@<TRIPOS>MOLECULE
tmp/5am9A00.pdb
 114 111 0 0 0
SMALL
GASTEIGER

@<TRIPOS>ATOM
      1  N        -13.6100   30.2110    4.9410 N.3   135  ASP135     -0.1239
      2  CA       -12.7540   31.3690    5.1270 C.3   135  ASP135      0.1674
      3  C        -13.6760   32.6030    5.1660 C.2   135  ASP135      0.2266
      4  O        -14.2670   32.9280    4.1280 O.2   135  ASP135     -0.2867
      5  CB       -11.8000   31.4580    3.9360 C.3   135  ASP135      0.1410
      6  CG       -10.7870   32.5840    4.0530 C.2   135  ASP135      0.3668
      7  OD1      -10.8230   33.3480    5.0080 O.co2 135  ASP135     -0.2456
      8  OD2       -9.9200   32.6910    3.1790 O.co2 135  ASP135     -0.2456
      9  N        -11.9210   31.6020   -2.2260 N.3   325  CYS325     -0.1221
     10  CA       -11.0330   32.2950   -1.2990 C.3   325  CYS325      0.1808
     11  C         -9.6320   31.7300   -1.2440 C.2   325  CYS325      0.2601
     12  O         -8.7310   32.4330   -0.8510 O.2   325  CYS325     -0.2717
     13  CB       -11.6070   32.3570    0.1140 C.3   325  CYS325      0.0970
     14  SG       -12.7000   33.7840    0.3500 S.3   325  CYS325     -0.0800
     15  N         -9.4540   30.4700   -1.6480 N.am  326  HIS326     -0.1961
     16  CA        -8.1850   29.7990   -1.4790 C.3   326  HIS326      0.1787
     17  C         -7.1310   30.5970   -2.2310 C.2   326  HIS326      0.2620
     18  O         -7.2930   30.8680   -3.4090 O.2   326  HIS326     -0.2715
     19  CB        -8.2340   28.3740   -2.0160 C.3   326  HIS326      0.0785
     20  CG        -7.0030   27.5960   -1.6950 C.ar  326  HIS326      0.0821
     21  ND1       -6.8820   26.8450   -0.5490 N.ar  326  HIS326     -0.2267
     22  CD2       -5.8240   27.4900   -2.3450 C.ar  326  HIS326      0.1154
     23  CE1       -5.6740   26.3080   -0.5030 C.ar  326  HIS326      0.1986
     24  NE2       -5.0150   26.6760   -1.5870 N.ar  326  HIS326     -0.2212
     25  N         -6.0690   30.9790   -1.5400 N.am  327  ALA327     -0.1963
     26  CA        -5.0620   31.9030   -2.0990 C.3   327  ALA327      0.1728
     27  C         -4.3730   31.3380   -3.3390 C.2   327  ALA327      0.2616
     28  O         -3.9260   30.1990   -3.3400 O.2   327  ALA327     -0.2715
     29  CB        -4.0180   32.2710   -1.0340 C.3   327  ALA327      0.0334
     30  N         -4.2970   32.1400   -4.3870 N.am  328  SER328     -0.1950
     31  CA        -3.6040   31.7470   -5.6150 C.3   328  SER328      0.1924
     32  C         -3.0350   32.9700   -6.3550 C.2   328  SER328      0.2314
     33  O         -3.4810   34.1130   -6.1430 O.2   328  SER328     -0.2863
     34  CB        -4.5440   30.9340   -6.5190 C.3   328  SER328      0.2116
     35  OG        -5.7610   31.6520   -6.7800 O.3   328  SER328     -0.2180
     36  N         -1.0090   34.4890    7.7540 N.3   350  GLN350     -0.1245
     37  CA        -1.4250   35.0890    6.4810 C.3   350  GLN350      0.1566
     38  C         -0.3420   35.9350    5.8230 C.2   350  GLN350      0.2260
     39  O         -0.2820   35.9940    4.5970 O.2   350  GLN350     -0.2867
     40  CB        -2.6980   35.9330    6.6350 C.3   350  GLN350      0.0367
     41  CG        -3.9620   35.0990    6.6800 C.3   350  GLN350      0.0905
     42  CD        -4.4180   34.6900    5.3030 C.2   350  GLN350      0.2608
     43  OE1       -5.0520   35.4740    4.5920 O.2   350  GLN350     -0.2717
     44  NE2       -4.1050   33.4460    4.9090 N.am  350  GLN350     -0.0878
     45  N          1.6570   33.5920    4.0010 N.3   353  THR353     -0.1218
     46  CA         0.9000   33.2340    2.8090 C.3   353  THR353      0.1862
     47  C          1.0330   34.3170    1.7280 C.2   353  THR353      0.2287
     48  O          1.2290   34.0020    0.5560 O.2   353  THR353     -0.2866
     49  CB        -0.5670   32.9130    3.1490 C.3   353  THR353      0.1770
     50  OG1       -0.5850   31.8160    4.0620 O.3   353  THR353     -0.2211
     51  CG2       -1.3330   32.5320    1.9270 C.3   353  THR353      0.0375
     52  N          4.2960   33.7700    0.1610 N.3   356  HIS356     -0.1226
     53  CA         4.1310   32.5830   -0.6790 C.3   356  HIS356      0.1752
     54  C          3.5770   32.9200   -2.0510 C.2   356  HIS356      0.2595
     55  O          4.1750   32.5940   -3.0790 O.2   356  HIS356     -0.2718
     56  CB         3.2280   31.5500    0.0090 C.3   356  HIS356      0.0759
     57  CG         3.0080   30.3270   -0.8190 C.ar  356  HIS356      0.0818
     58  ND1        3.8520   29.2420   -0.7610 N.ar  356  HIS356     -0.2268
     59  CD2        2.1110   30.0580   -1.7950 C.ar  356  HIS356      0.1154
     60  CE1        3.4550   28.3360   -1.6410 C.ar  356  HIS356      0.1986
     61  NE2        2.3970   28.8080   -2.2720 N.ar  356  HIS356     -0.2212
     62  N          2.4420   33.6020   -2.0650 N.am  357  GLU357     -0.1979
     63  CA         1.8000   33.9650   -3.3200 C.3   357  GLU357      0.1602
     64  C          2.6240   34.9670   -4.1280 C.2   357  GLU357      0.2287
     65  O          2.7090   34.8780   -5.3590 O.2   357  GLU357     -0.2864
     66  CB         0.3720   34.4910   -3.0920 C.3   357  GLU357      0.0415
     67  CG        -0.5410   33.5290   -2.3570 C.3   357  GLU357      0.1163
     68  CD        -0.6890   32.1860   -3.0360 C.2   357  GLU357      0.3649
     69  OE1       -0.5410   32.1230   -4.2650 O.co2 357  GLU357     -0.2457
     70  OE2       -0.9600   31.2040   -2.3300 O.co2 357  GLU357     -0.2457
     71  N          5.2450   33.3320   -6.2210 N.3   360  HIS360     -0.1241
     72  CA         4.7290   32.8750   -7.5120 C.3   360  HIS360      0.1621
     73  C          4.7420   34.0360   -8.5200 C.2   360  HIS360      0.2264
     74  O          5.1890   33.8670   -9.6490 O.2   360  HIS360     -0.2867
     75  CB         3.3050   32.3820   -7.3980 C.3   360  HIS360      0.0745
     76  CG         3.1540   31.0730   -6.6910 C.ar  360  HIS360      0.0817
     77  ND1        3.9220   29.9800   -6.9840 N.ar  360  HIS360     -0.2268
     78  CD2        2.2810   30.6680   -5.7450 C.ar  360  HIS360      0.1154
     79  CE1        3.5430   28.9580   -6.2470 C.ar  360  HIS360      0.1986
     80  NE2        2.5360   29.3460   -5.4990 N.ar  360  HIS360     -0.2212
     81  N         -7.2640   21.2340   -2.8530 N.3   486  HIS486     -0.1241
     82  CA        -6.5130   20.8430   -4.0020 C.3   486  HIS486      0.1621
     83  C         -7.1140   19.6620   -4.7230 C.2   486  HIS486      0.2264
     84  O         -6.8730   19.4780   -5.9020 O.2   486  HIS486     -0.2867
     85  CB        -5.0870   20.5450   -3.5830 C.3   486  HIS486      0.0745
     86  CG        -4.3560   21.7550   -3.0930 C.ar  486  HIS486      0.0817
     87  ND1       -4.6690   22.3900   -1.9090 N.ar  486  HIS486     -0.2268
     88  CD2       -3.3620   22.4710   -3.6490 C.ar  486  HIS486      0.1154
     89  CE1       -3.8780   23.4270   -1.7480 C.ar  486  HIS486      0.1986
     90  NE2       -3.0650   23.4880   -2.7780 N.ar  486  HIS486     -0.2212
     91  N         -0.1690   18.1270   -5.3810 N.3   493  TYR493     -0.1241
     92  CA         0.2510   18.4170   -4.0130 C.3   493  TYR493      0.1605
     93  C          1.7050   18.0990   -3.6680 C.2   493  TYR493      0.2264
     94  O          2.2610   18.7410   -2.7530 O.2   493  TYR493     -0.2867
     95  CB        -0.6780   17.7190   -2.9960 C.3   493  TYR493      0.0534
     96  CG        -0.8900   18.5680   -1.7660 C.ar  493  TYR493     -0.0201
     97  CD1       -1.7790   19.6510   -1.7990 C.ar  493  TYR493     -0.0009
     98  CD2       -0.1950   18.3150   -0.5830 C.ar  493  TYR493     -0.0009
     99  CE1       -1.9600   20.4490   -0.6970 C.ar  493  TYR493      0.0417
    100  CE2       -0.3900   19.1080    0.5360 C.ar  493  TYR493      0.0417
    101  CZ        -1.2680   20.1830    0.4620 C.ar  493  TYR493      0.1957
    102  OH        -1.4460   21.0040    1.5470 O.3   493  TYR493     -0.2866
    103  N          4.4140   20.6410   -2.7790 N.3   496  TYR496     -0.1241
    104  CA         4.5480   21.2770   -1.4730 C.3   496  TYR496      0.1605
    105  C          5.5010   20.4810   -0.5710 C.2   496  TYR496      0.2264
    106  O          6.2070   21.0620    0.2570 O.2   496  TYR496     -0.2867
    107  CB         3.1860   21.4510   -0.7960 C.3   496  TYR496      0.0534
    108  CG         2.2000   22.2770   -1.5860 C.ar  496  TYR496     -0.0201
    109  CD1        2.3890   23.6530   -1.7500 C.ar  496  TYR496     -0.0009
    110  CD2        1.0860   21.6880   -2.2010 C.ar  496  TYR496     -0.0009
    111  CE1        1.4990   24.4150   -2.4790 C.ar  496  TYR496      0.0417
    112  CE2        0.1950   22.4470   -2.9410 C.ar  496  TYR496      0.0417
    113  CZ         0.4040   23.8060   -3.0740 C.ar  496  TYR496      0.1957
    114  OH        -0.4940   24.5600   -3.7790 O.3   496  TYR496     -0.2866
@<TRIPOS>BOND
     1    74    73    2
     2    73    72    1
     3    72    75    1
     4    72    71    1
     5    75    76    1
     6    77    76   ar
     7    77    79   ar
     8    35    34    1
     9    76    78   ar
    10    34    31    1
    11    32    33    2
    12    32    31    1
    13    79    80   ar
    14    84    83    2
    15    78    80   ar
    16    31    30    1
    17    91    92    1
    18    65    64    2
    19    83    82    1
    20    30    27   am
    21    69    68   ar
    22    64    63    1
    23    92    93    1
    24    92    95    1
    25    82    85    1
    26    82    81    1
    27   114   113    1
    28    93    94    2
    29    88    86   ar
    30    88    90   ar
    31    85    86    1
    32    18    17    2
    33    28    27    2
    34    27    26    1
    35    63    66    1
    36    63    62    1
    37    86    87   ar
    38    66    67    1
    39    55    54    2
    40   113   112   ar
    41   113   111   ar
    42    68    67    1
    43    68    70   ar
    44    95    96    1
    45   112   110   ar
    46   103   104    1
    47    90    89   ar
    48   111   109   ar
    49    22    20   ar
    50    22    24   ar
    51    61    59   ar
    52    61    60   ar
    53    17    25   am
    54    17    16    1
    55     9    10    1
    56   110   108   ar
    57    26    25    1
    58    26    29    1
    59    62    54   am
    60    54    53    1
    61    19    20    1
    62    19    16    1
    63    87    89   ar
    64    97    96   ar
    65    97    99   ar
    66    59    57   ar
    67    96    98   ar
    68   109   108   ar
    69    20    21   ar
    70    15    16    1
    71    15    11   am
    72    60    58   ar
    73    24    23   ar
    74   108   107    1
    75   104   107    1
    76   104   105    1
    77    10    11    1
    78    10    13    1
    79    11    12    2
    80    57    58   ar
    81    57    56    1
    82    99   101   ar
    83    53    56    1
    84    53    52    1
    85    98   100   ar
    86   105   106    2
    87    21    23   ar
    88    13    14    1
    89   101   100   ar
    90   101   102    1
    91    48    47    2
    92    47    46    1
    93    51    49    1
    94    46    49    1
    95    46    45    1
    96    49    50    1
    97     8     6   ar
    98     5     6    1
    99     5     2    1
   100     6     7   ar
   101     4     3    2
   102    43    42    2
   103    39    38    2
   104    44    42   am
   105     1     2    1
   106     2     3    1
   107    42    41    1
   108    38    37    1
   109    37    40    1
   110    37    36    1
   111    40    41    1
