@<TRIPOS>MOLECULE
tmp/5amaA00.pdb
 106 102 0 0 0
SMALL
GASTEIGER

@<TRIPOS>ATOM
      1  N         -2.5840   20.2340    9.0510 N.3   254  GLN254     -0.1245
      2  CA        -1.4470   20.2280    8.1440 C.3   254  GLN254      0.1566
      3  C         -0.2970   21.0890    8.6400 C.2   254  GLN254      0.2260
      4  O          0.8460   20.8900    8.2770 O.2   254  GLN254     -0.2867
      5  CB        -1.8850   20.6390    6.7310 C.3   254  GLN254      0.0367
      6  CG        -2.0590   22.1310    6.4840 C.3   254  GLN254      0.0905
      7  CD        -2.5800   22.4010    5.0980 C.2   254  GLN254      0.2608
      8  OE1       -3.5920   21.8450    4.6910 O.2   254  GLN254     -0.2717
      9  NE2       -1.8610   23.2150    4.3440 N.am  254  GLN254     -0.0878
     10  N         -9.2070   30.4270   -1.6090 N.3   326  HIS326     -0.1226
     11  CA        -7.9010   29.7970   -1.4380 C.3   326  HIS326      0.1752
     12  C         -6.8380   30.5970   -2.1830 C.2   326  HIS326      0.2596
     13  O         -7.0180   30.8900   -3.3610 O.2   326  HIS326     -0.2718
     14  CB        -7.9030   28.3750   -1.9760 C.3   326  HIS326      0.0759
     15  CG        -6.6770   27.6110   -1.6010 C.ar  326  HIS326      0.0818
     16  ND1       -6.5640   26.9360   -0.4080 N.ar  326  HIS326     -0.2268
     17  CD2       -5.5010   27.4460   -2.2390 C.ar  326  HIS326      0.1154
     18  CE1       -5.3700   26.3770   -0.3270 C.ar  326  HIS326      0.1986
     19  NE2       -4.7040   26.6770   -1.4240 N.ar  326  HIS326     -0.2212
     20  N         -5.7540   30.9490   -1.5050 N.am  327  ALA327     -0.1966
     21  CA        -4.7460   31.8600   -2.0780 C.3   327  ALA327      0.1728
     22  C         -4.0970   31.3020   -3.3430 C.2   327  ALA327      0.2616
     23  O         -3.7150   30.1470   -3.3840 O.2   327  ALA327     -0.2715
     24  CB        -3.6720   32.1770   -1.0490 C.3   327  ALA327      0.0334
     25  N         -3.9600   32.1340   -4.3630 N.am  328  SER328     -0.1950
     26  CA        -3.3190   31.7220   -5.5980 C.3   328  SER328      0.1924
     27  C         -2.7000   32.8950   -6.3370 C.2   328  SER328      0.2314
     28  O         -3.1050   34.0600   -6.1410 O.2   328  SER328     -0.2863
     29  CB        -4.2940   30.9630   -6.5130 C.3   328  SER328      0.2116
     30  OG        -5.4660   31.7270   -6.8080 O.3   328  SER328     -0.2180
     31  N         -0.6700   34.5000    7.7190 N.3   350  GLN350     -0.1245
     32  CA        -1.0750   35.1060    6.4520 C.3   350  GLN350      0.1566
     33  C          0.0260   35.9470    5.8200 C.2   350  GLN350      0.2260
     34  O          0.1180   36.0220    4.5890 O.2   350  GLN350     -0.2867
     35  CB        -2.3470   35.9230    6.6170 C.3   350  GLN350      0.0367
     36  CG        -3.5860   35.0590    6.6180 C.3   350  GLN350      0.0905
     37  CD        -4.0040   34.6870    5.2100 C.2   350  GLN350      0.2608
     38  OE1       -4.6000   35.5060    4.5060 O.2   350  GLN350     -0.2717
     39  NE2       -3.6830   33.4570    4.7810 N.am  350  GLN350     -0.0878
     40  N          1.9620   33.5400    3.9880 N.3   353  THR353     -0.1218
     41  CA         1.2280   33.1990    2.7770 C.3   353  THR353      0.1862
     42  C          1.3870   34.2950    1.7150 C.2   353  THR353      0.2287
     43  O          1.5570   33.9930    0.5280 O.2   353  THR353     -0.2866
     44  CB        -0.2600   32.8810    3.0680 C.3   353  THR353      0.1770
     45  OG1       -0.3410   31.7440    3.9370 O.3   353  THR353     -0.2211
     46  CG2       -1.0240   32.5700    1.7820 C.3   353  THR353      0.0375
     47  N          4.6670   33.7190    0.1640 N.3   356  HIS356     -0.1226
     48  CA         4.5360   32.5250   -0.6840 C.3   356  HIS356      0.1752
     49  C          3.9680   32.8820   -2.0400 C.2   356  HIS356      0.2595
     50  O          4.5680   32.5760   -3.0750 O.2   356  HIS356     -0.2718
     51  CB         3.6690   31.4650    0.0090 C.3   356  HIS356      0.0759
     52  CG         3.4380   30.2320   -0.8170 C.ar  356  HIS356      0.0818
     53  ND1        4.2750   29.1390   -0.7550 N.ar  356  HIS356     -0.2268
     54  CD2        2.5190   29.9470   -1.7670 C.ar  356  HIS356      0.1154
     55  CE1        3.8730   28.2250   -1.6160 C.ar  356  HIS356      0.1986
     56  NE2        2.8030   28.6890   -2.2400 N.ar  356  HIS356     -0.2212
     57  N          2.8360   33.5760   -2.0460 N.am  357  GLU357     -0.1979
     58  CA         2.1930   33.9250   -3.3000 C.3   357  GLU357      0.1602
     59  C          3.0200   34.9140   -4.1330 C.2   357  GLU357      0.2287
     60  O          3.1290   34.7820   -5.3590 O.2   357  GLU357     -0.2864
     61  CB         0.7670   34.4660   -3.0860 C.3   357  GLU357      0.0415
     62  CG        -0.1930   33.5530   -2.3280 C.3   357  GLU357      0.1163
     63  CD        -0.3450   32.1660   -2.9220 C.2   357  GLU357      0.3649
     64  OE1       -0.1900   32.0020   -4.1340 O.co2 357  GLU357     -0.2457
     65  OE2       -0.6290   31.2350   -2.1630 O.co2 357  GLU357     -0.2457
     66  N          5.6350   33.2820   -6.3170 N.3   360  HIS360     -0.1241
     67  CA         5.1630   32.8480   -7.6270 C.3   360  HIS360      0.1621
     68  C          5.1830   34.0020   -8.6000 C.2   360  HIS360      0.2264
     69  O          5.6250   33.8530   -9.7300 O.2   360  HIS360     -0.2867
     70  CB         3.7350   32.3510   -7.5810 C.3   360  HIS360      0.0745
     71  CG         3.5420   31.1020   -6.7830 C.ar  360  HIS360      0.0817
     72  ND1        4.2370   29.9430   -7.0330 N.ar  360  HIS360     -0.2268
     73  CD2        2.7110   30.8210   -5.7590 C.ar  360  HIS360      0.1154
     74  CE1        3.8370   28.9970   -6.2110 C.ar  360  HIS360      0.1986
     75  NE2        2.8960   29.5010   -5.4400 N.ar  360  HIS360     -0.2212
     76  N          6.9140   26.5430   -5.6370 N.3   384  GLU384     -0.1245
     77  CA         6.4070   26.6120   -4.2620 C.3   384  GLU384      0.1567
     78  C          7.4050   27.0480   -3.2030 C.2   384  GLU384      0.2260
     79  O          6.9940   27.5350   -2.1430 O.2   384  GLU384     -0.2867
     80  CB         5.7880   25.2610   -3.8570 C.3   384  GLU384      0.0388
     81  CG         4.6910   24.7460   -4.7850 C.3   384  GLU384      0.1160
     82  CD         3.5830   25.7440   -5.0180 C.2   384  GLU384      0.3649
     83  OE1        3.3110   26.5680   -4.1100 O.co2 384  GLU384     -0.2457
     84  OE2        2.9800   25.7170   -6.1100 O.co2 384  GLU384     -0.2457
     85  N         -7.1280   21.2460   -2.8630 N.3   486  HIS486     -0.1241
     86  CA        -6.3530   20.8050   -4.0150 C.3   486  HIS486      0.1621
     87  C         -6.9650   19.6130   -4.7430 C.2   486  HIS486      0.2264
     88  O         -6.7350   19.4320   -5.9270 O.2   486  HIS486     -0.2867
     89  CB        -4.9200   20.5070   -3.5810 C.3   486  HIS486      0.0745
     90  CG        -4.2140   21.7080   -3.0360 C.ar  486  HIS486      0.0817
     91  ND1       -4.5740   22.3070   -1.8490 N.ar  486  HIS486     -0.2268
     92  CD2       -3.1940   22.4440   -3.5340 C.ar  486  HIS486      0.1154
     93  CE1       -3.8010   23.3500   -1.6330 C.ar  486  HIS486      0.1986
     94  NE2       -2.9510   23.4490   -2.6350 N.ar  486  HIS486     -0.2212
     95  N          4.5500   20.5080   -2.7250 N.3   496  TYR496     -0.1241
     96  CA         4.7230   21.1370   -1.4120 C.3   496  TYR496      0.1605
     97  C          5.6780   20.3640   -0.5290 C.2   496  TYR496      0.2264
     98  O          6.4430   20.9610    0.2470 O.2   496  TYR496     -0.2867
     99  CB         3.3850   21.3320   -0.7080 C.3   496  TYR496      0.0534
    100  CG         2.4340   22.1780   -1.5050 C.ar  496  TYR496     -0.0201
    101  CD1        2.6790   23.5360   -1.7120 C.ar  496  TYR496     -0.0009
    102  CD2        1.3050   21.6130   -2.0950 C.ar  496  TYR496     -0.0009
    103  CE1        1.7950   24.3040   -2.4670 C.ar  496  TYR496      0.0417
    104  CE2        0.4390   22.3590   -2.8440 C.ar  496  TYR496      0.0417
    105  CZ         0.6710   23.7040   -3.0260 C.ar  496  TYR496      0.1957
    106  OH        -0.2600   24.3880   -3.7720 O.3   496  TYR496     -0.2866
@<TRIPOS>BOND
     1    69    68    2
     2    68    67    1
     3    67    70    1
     4    67    66    1
     5    70    71    1
     6    72    71   ar
     7    72    74   ar
     8    30    29    1
     9    71    73   ar
    10    29    26    1
    11    27    28    2
    12    27    26    1
    13    74    75   ar
    14    84    82   ar
    15    88    87    2
    16    73    75   ar
    17    76    77    1
    18    26    25    1
    19    60    59    2
    20    82    81    1
    21    82    83   ar
    22    81    80    1
    23    87    86    1
    24    25    22   am
    25    77    80    1
    26    77    78    1
    27    64    63   ar
    28    59    58    1
    29    86    89    1
    30    86    85    1
    31   106   105    1
    32    89    90    1
    33    92    90   ar
    34    92    94   ar
    35    23    22    2
    36    13    12    2
    37    22    21    1
    38    58    61    1
    39    58    57    1
    40    78    79    2
    41    61    62    1
    42    50    49    2
    43    90    91   ar
    44   105   104   ar
    45   105   103   ar
    46    63    62    1
    47    63    65   ar
    48   104   102   ar
    49    95    96    1
    50    94    93   ar
    51   103   101   ar
    52    56    54   ar
    53    56    55   ar
    54    17    15   ar
    55    17    19   ar
    56    12    20   am
    57    12    11    1
    58   102   100   ar
    59    21    20    1
    60    21    24    1
    61    57    49   am
    62    49    48    1
    63    14    15    1
    64    14    11    1
    65    91    93   ar
    66    54    52   ar
    67   101   100   ar
    68    55    53   ar
    69    10    11    1
    70    15    16   ar
    71   100    99    1
    72    19    18   ar
    73    96    99    1
    74    96    97    1
    75    52    53   ar
    76    52    51    1
    77    48    51    1
    78    48    47    1
    79    97    98    2
    80    16    18   ar
    81    43    42    2
    82    42    41    1
    83    46    44    1
    84    41    44    1
    85    41    40    1
    86    44    45    1
    87     9     7   am
    88    38    37    2
    89    34    33    2
    90     8     7    2
    91    39    37   am
    92     7     6    1
    93    37    36    1
    94    33    32    1
    95    32    35    1
    96    32    31    1
    97     6     5    1
    98    35    36    1
    99     5     2    1
   100     2     3    1
   101     2     1    1
   102     4     3    2
