@<TRIPOS>MOLECULE
tmp/5amaD06.pdb
 93 90 0 0 0
SMALL
GASTEIGER

@<TRIPOS>ATOM
      1  N        -55.6480   29.8720  -55.7620 N.3   223  PHE223     -0.1241
      2  CA       -56.6270   28.8230  -55.4390 C.3   223  PHE223      0.1605
      3  C        -56.2870   28.1580  -54.1100 C.2   223  PHE223      0.2264
      4  O        -57.1650   27.9410  -53.2670 O.2   223  PHE223     -0.2867
      5  CB       -56.6460   27.7930  -56.5710 C.3   223  PHE223      0.0534
      6  CG       -57.7060   26.7540  -56.4340 C.ar  223  PHE223     -0.0203
      7  CD1      -59.0110   27.0210  -56.8330 C.ar  223  PHE223     -0.0042
      8  CD2      -57.4110   25.5010  -55.9310 C.ar  223  PHE223     -0.0042
      9  CE1      -60.0000   26.0540  -56.7080 C.ar  223  PHE223     -0.0003
     10  CE2      -58.3910   24.5350  -55.8130 C.ar  223  PHE223     -0.0003
     11  CZ       -59.6790   24.8090  -56.2070 C.ar  223  PHE223     -0.0000
     12  N        -56.9050   30.4890  -51.1140 N.3   226  ARG226     -0.1231
     13  CA       -58.3300   30.4470  -50.7810 C.3   226  ARG226      0.1694
     14  C        -58.7250   29.1790  -49.9960 C.2   226  ARG226      0.2591
     15  O        -59.4670   29.2760  -49.0240 O.2   226  ARG226     -0.2718
     16  CB       -59.1840   30.5690  -52.0360 C.3   226  ARG226      0.0321
     17  CG       -60.7060   30.4400  -51.8320 C.3   226  ARG226      0.0489
     18  CD       -61.3260   31.5640  -50.9990 C.3   226  ARG226      0.2205
     19  NE       -61.1560   32.8480  -51.6590 N.pl3 226  ARG226     -0.0865
     20  CZ       -61.7280   33.9920  -51.2870 C.cat 226  ARG226      0.5346
     21  NH1      -62.5310   34.0420  -50.2310 N.pl3 226  ARG226      0.1354
     22  NH2      -61.4830   35.1120  -51.9740 N.pl3 226  ARG226      0.1354
     23  N        -58.2320   28.0110  -50.4130 N.am  227  ALA227     -0.1980
     24  CA       -58.4930   26.7710  -49.7000 C.3   227  ALA227      0.1597
     25  C        -57.9560   26.8260  -48.2740 C.2   227  ALA227      0.2287
     26  O        -58.6230   26.3840  -47.3460 O.2   227  ALA227     -0.2864
     27  CB       -57.9040   25.5710  -50.4490 C.3   227  ALA227      0.0319
     28  N        -60.1480   29.1220  -45.9960 N.3   230  ARG230     -0.1231
     29  CA       -61.3590   28.4610  -45.5450 C.3   230  ARG230      0.1694
     30  C        -61.1520   27.5290  -44.3490 C.2   230  ARG230      0.2591
     31  O        -62.1340   27.1480  -43.7040 O.2   230  ARG230     -0.2718
     32  CB       -62.0140   27.6980  -46.6900 C.3   230  ARG230      0.0321
     33  CG       -62.5500   28.6050  -47.7840 C.3   230  ARG230      0.0489
     34  CD       -62.8390   27.8220  -49.0520 C.3   230  ARG230      0.2205
     35  NE       -63.6510   26.6540  -48.7280 N.pl3 230  ARG230     -0.0865
     36  CZ       -63.8460   25.5940  -49.5020 C.cat 230  ARG230      0.5346
     37  NH1      -63.3330   25.5340  -50.7020 N.pl3 230  ARG230      0.1354
     38  NH2      -64.5840   24.5820  -49.0620 N.pl3 230  ARG230      0.1354
     39  N        -59.8970   27.1590  -44.0790 N.am  231  ARG231     -0.1980
     40  CA       -59.5350   26.2720  -42.9830 C.3   231  ARG231      0.1597
     41  C        -58.9020   27.0070  -41.8250 C.2   231  ARG231      0.2287
     42  O        -59.2360   26.7390  -40.6850 O.2   231  ARG231     -0.2864
     43  CB       -58.5650   25.2150  -43.4970 C.3   231  ARG231      0.0334
     44  CG       -59.0710   24.5310  -44.7670 C.3   231  ARG231      0.0492
     45  CD       -59.2850   23.0560  -44.5740 C.3   231  ARG231      0.2205
     46  NE       -60.0040   22.4660  -45.7070 N.pl3 231  ARG231     -0.0865
     47  CZ       -60.2090   21.1570  -45.8610 C.cat 231  ARG231      0.5346
     48  NH1      -59.7290   20.2810  -44.9800 N.pl3 231  ARG231      0.1354
     49  NH2      -60.8770   20.7220  -46.9220 N.pl3 231  ARG231      0.1354
     50  N        -56.9630   19.2410  -48.6110 N.3   262  MET262     -0.1230
     51  CA       -57.5670   20.5570  -48.3850 C.3   262  MET262      0.1702
     52  C        -57.9240   21.2970  -49.6760 C.2   262  MET262      0.2592
     53  O        -58.7100   22.2410  -49.6570 O.2   262  MET262     -0.2718
     54  CB       -56.6380   21.4220  -47.5380 C.3   262  MET262      0.0401
     55  CG       -56.3270   20.8060  -46.1770 C.3   262  MET262      0.0596
     56  SD       -55.6880   22.0200  -44.9930 S.3   262  MET262     -0.1393
     57  CE       -54.0800   22.3220  -45.6760 C.3   262  MET262      0.0692
     58  N        -57.3370   20.8870  -50.7890 N.am  263  VAL263     -0.1966
     59  CA       -57.5250   21.5970  -52.0390 C.3   263  VAL263      0.1727
     60  C        -58.2790   20.8150  -53.1130 C.2   263  VAL263      0.2616
     61  O        -58.7270   21.4290  -54.0850 O.2   263  VAL263     -0.2715
     62  CB       -56.1820   22.1200  -52.5910 C.3   263  VAL263      0.0290
     63  CG1      -55.3670   22.8110  -51.5010 C.3   263  VAL263      0.0023
     64  CG2      -55.3790   21.0130  -53.2070 C.3   263  VAL263      0.0023
     65  N        -58.3920   19.4850  -52.9520 N.am  264  VAL264     -0.1964
     66  CA       -59.0430   18.5970  -53.9340 C.3   264  VAL264      0.1712
     67  C        -60.4150   19.1550  -54.3490 C.2   264  VAL264      0.2458
     68  O        -61.2920   19.3410  -53.5050 O.2   264  VAL264     -0.2730
     69  CB       -59.1430   17.1160  -53.4480 C.3   264  VAL264      0.0289
     70  CG1      -59.8560   16.9760  -52.1150 C.3   264  VAL264      0.0023
     71  CG2      -59.8020   16.2370  -54.5010 C.3   264  VAL264      0.0023
     72  N        -60.5760   19.4940  -55.6490 N.am  265  PRO265     -0.2727
     73  CA       -61.7930   20.1480  -56.1110 C.3   265  PRO265      0.1402
     74  C        -63.0380   19.2970  -55.9960 C.2   265  PRO265      0.2269
     75  O        -64.0930   19.8210  -55.6650 O.2   265  PRO265     -0.2865
     76  CB       -61.4940   20.4320  -57.5790 C.3   265  PRO265      0.0296
     77  CG       -60.0240   20.5320  -57.6630 C.3   265  PRO265      0.0237
     78  CD       -59.5150   19.5460  -56.6610 C.3   265  PRO265      0.0939
     79  N        -64.0270   16.1190  -54.0740 N.3   267  PRO267     -0.2116
     80  CA       -63.7000   15.0730  -53.0890 C.3   267  PRO267      0.1372
     81  C        -64.5090   13.7700  -53.1640 C.2   267  PRO267      0.2244
     82  O        -64.1050   12.7790  -52.5470 O.2   267  PRO267     -0.2868
     83  CB       -63.8910   15.7740  -51.7280 C.3   267  PRO267      0.0268
     84  CG       -64.7040   16.9780  -51.9970 C.3   267  PRO267      0.0207
     85  CD       -64.4820   17.3680  -53.4270 C.3   267  PRO267      0.0892
     86  N        -64.3240   33.2170  -58.3650 N.3   583  ASN583     -0.1240
     87  CA       -64.1900   33.4250  -56.9190 C.3   583  ASN583      0.1653
     88  C        -63.7300   34.8370  -56.5270 C.2   583  ASN583      0.2266
     89  O        -63.5850   35.1180  -55.3430 O.2   583  ASN583     -0.2867
     90  CB       -63.2280   32.3800  -56.3140 C.3   583  ASN583      0.1155
     91  CG       -63.7370   30.9460  -56.4470 C.2   583  ASN583      0.2627
     92  OD1      -64.9320   30.6950  -56.5390 O.2   583  ASN583     -0.2716
     93  ND2      -62.8100   29.9970  -56.4730 N.am  583  ASN583     -0.0877
@<TRIPOS>BOND
     1    86    87    1
     2    77    76    1
     3    77    78    1
     4    76    73    1
     5    87    88    1
     6    87    90    1
     7     7     9   ar
     8     7     6   ar
     9     9    11   ar
    10    78    72    1
    11     5     6    1
    12     5     2    1
    13    92    91    2
    14    88    89    2
    15    93    91   am
    16    91    90    1
    17     6     8   ar
    18    11    10   ar
    19    73    74    1
    20    73    72    1
    21    74    75    2
    22     8    10   ar
    23     1     2    1
    24    72    67   am
    25     2     3    1
    26    71    69    1
    27    67    66    1
    28    67    68    2
    29     3     4    2
    30    61    60    2
    31    79    85    1
    32    79    80    1
    33    66    69    1
    34    66    65    1
    35    69    70    1
    36    85    84    1
    37    64    62    1
    38    81    80    1
    39    81    82    2
    40    60    65   am
    41    60    59    1
    42    80    83    1
    43    62    59    1
    44    62    63    1
    45    59    58    1
    46    16    17    1
    47    16    13    1
    48    84    83    1
    49    22    20    1
    50    17    18    1
    51    19    20    2
    52    19    18    1
    53    20    21    1
    54    12    13    1
    55    58    52   am
    56    13    14    1
    57    37    36    1
    58    27    24    1
    59    23    14   am
    60    23    24    1
    61    14    15    2
    62    24    25    1
    63    52    53    2
    64    52    51    1
    65    36    38    1
    66    36    35    2
    67    34    35    1
    68    34    33    1
    69    50    51    1
    70    51    54    1
    71    25    26    2
    72    33    32    1
    73    54    55    1
    74    49    47    1
    75    32    29    1
    76    55    56    1
    77    28    29    1
    78    47    46    2
    79    47    48    1
    80    46    45    1
    81    57    56    1
    82    29    30    1
    83    44    45    1
    84    44    43    1
    85    30    39   am
    86    30    31    2
    87    39    40    1
    88    43    40    1
    89    40    41    1
    90    41    42    2
