@<TRIPOS>MOLECULE
tmp/5amaA01.pdb
 103 101 0 0 0
SMALL
GASTEIGER

@<TRIPOS>ATOM
      1  N         -2.5840   20.2340    9.0510 N.3   254  GLN254     -0.1245
      2  CA        -1.4470   20.2280    8.1440 C.3   254  GLN254      0.1566
      3  C         -0.2970   21.0890    8.6400 C.2   254  GLN254      0.2260
      4  O          0.8460   20.8900    8.2770 O.2   254  GLN254     -0.2867
      5  CB        -1.8850   20.6390    6.7310 C.3   254  GLN254      0.0367
      6  CG        -2.0590   22.1310    6.4840 C.3   254  GLN254      0.0905
      7  CD        -2.5800   22.4010    5.0980 C.2   254  GLN254      0.2608
      8  OE1       -3.5920   21.8450    4.6910 O.2   254  GLN254     -0.2717
      9  NE2       -1.8610   23.2150    4.3440 N.am  254  GLN254     -0.0878
     10  N         -9.2070   30.4270   -1.6090 N.3   326  HIS326     -0.1241
     11  CA        -7.9010   29.7970   -1.4380 C.3   326  HIS326      0.1621
     12  C         -6.8380   30.5970   -2.1830 C.2   326  HIS326      0.2264
     13  O         -7.0180   30.8900   -3.3610 O.2   326  HIS326     -0.2867
     14  CB        -7.9030   28.3750   -1.9760 C.3   326  HIS326      0.0745
     15  CG        -6.6770   27.6110   -1.6010 C.ar  326  HIS326      0.0817
     16  ND1       -6.5640   26.9360   -0.4080 N.ar  326  HIS326     -0.2268
     17  CD2       -5.5010   27.4460   -2.2390 C.ar  326  HIS326      0.1154
     18  CE1       -5.3700   26.3770   -0.3270 C.ar  326  HIS326      0.1986
     19  NE2       -4.7040   26.6770   -1.4240 N.ar  326  HIS326     -0.2212
     20  N          4.6670   33.7190    0.1640 N.3   356  HIS356     -0.1226
     21  CA         4.5360   32.5250   -0.6840 C.3   356  HIS356      0.1752
     22  C          3.9680   32.8820   -2.0400 C.2   356  HIS356      0.2595
     23  O          4.5680   32.5760   -3.0750 O.2   356  HIS356     -0.2718
     24  CB         3.6690   31.4650    0.0090 C.3   356  HIS356      0.0759
     25  CG         3.4380   30.2320   -0.8170 C.ar  356  HIS356      0.0818
     26  ND1        4.2750   29.1390   -0.7550 N.ar  356  HIS356     -0.2268
     27  CD2        2.5190   29.9470   -1.7670 C.ar  356  HIS356      0.1154
     28  CE1        3.8730   28.2250   -1.6160 C.ar  356  HIS356      0.1986
     29  NE2        2.8030   28.6890   -2.2400 N.ar  356  HIS356     -0.2212
     30  N          2.8360   33.5760   -2.0460 N.am  357  GLU357     -0.1979
     31  CA         2.1930   33.9250   -3.3000 C.3   357  GLU357      0.1602
     32  C          3.0200   34.9140   -4.1330 C.2   357  GLU357      0.2287
     33  O          3.1290   34.7820   -5.3590 O.2   357  GLU357     -0.2864
     34  CB         0.7670   34.4660   -3.0860 C.3   357  GLU357      0.0415
     35  CG        -0.1930   33.5530   -2.3280 C.3   357  GLU357      0.1163
     36  CD        -0.3450   32.1660   -2.9220 C.2   357  GLU357      0.3649
     37  OE1       -0.1900   32.0020   -4.1340 O.co2 357  GLU357     -0.2457
     38  OE2       -0.6290   31.2350   -2.1630 O.co2 357  GLU357     -0.2457
     39  N          3.9440   19.7140    8.7010 N.3   430  PHE430     -0.1241
     40  CA         3.4390   19.6210    7.3430 C.3   430  PHE430      0.1605
     41  C          3.9330   18.4170    6.5750 C.2   430  PHE430      0.2264
     42  O          3.1800   17.8640    5.7550 O.2   430  PHE430     -0.2867
     43  CB         3.7810   20.8830    6.5450 C.3   430  PHE430      0.0534
     44  CG         3.2440   20.8680    5.1450 C.ar  430  PHE430     -0.0203
     45  CD1        1.9010   21.0810    4.9140 C.ar  430  PHE430     -0.0042
     46  CD2        4.0690   20.5900    4.0700 C.ar  430  PHE430     -0.0042
     47  CE1        1.3830   21.0640    3.6100 C.ar  430  PHE430     -0.0003
     48  CE2        3.5630   20.5530    2.7690 C.ar  430  PHE430     -0.0003
     49  CZ         2.2040   20.7960    2.5450 C.ar  430  PHE430     -0.0000
     50  N        -10.3900   19.0110    1.0630 N.3   484  LYS484     -0.1245
     51  CA        -9.1290   19.7320    0.9630 C.3   484  LYS484      0.1561
     52  C         -9.0510   20.3640   -0.4310 C.2   484  LYS484      0.2260
     53  O         -9.1490   19.6590   -1.4300 O.2   484  LYS484     -0.2867
     54  CB        -7.9630   18.7570    1.1780 C.3   484  LYS484      0.0271
     55  CG        -6.5850   19.3180    0.9210 C.3   484  LYS484      0.0035
     56  CD        -6.2200   20.3820    1.9460 C.3   484  LYS484      0.0206
     57  CE        -4.9510   21.1100    1.5430 C.3   484  LYS484      0.1093
     58  NZ        -4.7880   22.3570    2.3330 N.3   484  LYS484     -0.1314
     59  N         -7.1280   21.2460   -2.8630 N.3   486  HIS486     -0.1241
     60  CA        -6.3530   20.8050   -4.0150 C.3   486  HIS486      0.1621
     61  C         -6.9650   19.6130   -4.7430 C.2   486  HIS486      0.2264
     62  O         -6.7350   19.4320   -5.9270 O.2   486  HIS486     -0.2867
     63  CB        -4.9200   20.5070   -3.5810 C.3   486  HIS486      0.0745
     64  CG        -4.2140   21.7080   -3.0360 C.ar  486  HIS486      0.0817
     65  ND1       -4.5740   22.3070   -1.8490 N.ar  486  HIS486     -0.2268
     66  CD2       -3.1940   22.4440   -3.5340 C.ar  486  HIS486      0.1154
     67  CE1       -3.8010   23.3500   -1.6330 C.ar  486  HIS486      0.1986
     68  NE2       -2.9510   23.4490   -2.6350 N.ar  486  HIS486     -0.2212
     69  N         -0.0680   18.0350   -5.3820 N.3   493  TYR493     -0.1241
     70  CA         0.3620   18.3150   -4.0160 C.3   493  TYR493      0.1605
     71  C          1.8250   17.9900   -3.6900 C.2   493  TYR493      0.2264
     72  O          2.3830   18.5870   -2.7710 O.2   493  TYR493     -0.2867
     73  CB        -0.5490   17.6030   -3.0000 C.3   493  TYR493      0.0534
     74  CG        -0.7660   18.4610   -1.7760 C.ar  493  TYR493     -0.0201
     75  CD1       -1.5970   19.5900   -1.8370 C.ar  493  TYR493     -0.0009
     76  CD2       -0.1190   18.1880   -0.5820 C.ar  493  TYR493     -0.0009
     77  CE1       -1.7840   20.4020   -0.7450 C.ar  493  TYR493      0.0417
     78  CE2       -0.3040   18.9990    0.5170 C.ar  493  TYR493      0.0417
     79  CZ        -1.1270   20.1120    0.4280 C.ar  493  TYR493      0.1957
     80  OH        -1.2980   20.9300    1.5230 O.3   493  TYR493     -0.2866
     81  N          4.5500   20.5080   -2.7250 N.3   496  TYR496     -0.1241
     82  CA         4.7230   21.1370   -1.4120 C.3   496  TYR496      0.1605
     83  C          5.6780   20.3640   -0.5290 C.2   496  TYR496      0.2264
     84  O          6.4430   20.9610    0.2470 O.2   496  TYR496     -0.2867
     85  CB         3.3850   21.3320   -0.7080 C.3   496  TYR496      0.0534
     86  CG         2.4340   22.1780   -1.5050 C.ar  496  TYR496     -0.0201
     87  CD1        2.6790   23.5360   -1.7120 C.ar  496  TYR496     -0.0009
     88  CD2        1.3050   21.6130   -2.0950 C.ar  496  TYR496     -0.0009
     89  CE1        1.7950   24.3040   -2.4670 C.ar  496  TYR496      0.0417
     90  CE2        0.4390   22.3590   -2.8440 C.ar  496  TYR496      0.0417
     91  CZ         0.6710   23.7040   -3.0260 C.ar  496  TYR496      0.1957
     92  OH        -0.2600   24.3880   -3.7720 O.3   496  TYR496     -0.2866
     93  N          9.1360   21.9460    0.7420 N.3   500  PHE500     -0.1241
     94  CA         9.4810   22.0970    2.1640 C.3   500  PHE500      0.1605
     95  C         10.8940   21.5860    2.4540 C.2   500  PHE500      0.2264
     96  O         11.5190   22.0660    3.3870 O.2   500  PHE500     -0.2867
     97  CB         8.4400   21.4540    3.0920 C.3   500  PHE500      0.0534
     98  CG         7.3130   22.3730    3.4680 C.ar  500  PHE500     -0.0203
     99  CD1        6.6250   23.1130    2.4890 C.ar  500  PHE500     -0.0042
    100  CD2        6.9050   22.4970    4.7860 C.ar  500  PHE500     -0.0042
    101  CE1        5.5790   23.9490    2.8330 C.ar  500  PHE500     -0.0003
    102  CE2        5.8680   23.3540    5.1270 C.ar  500  PHE500     -0.0003
    103  CZ         5.2040   24.0800    4.1580 C.ar  500  PHE500     -0.0000
@<TRIPOS>BOND
     1    62    61    2
     2    69    70    1
     3    33    32    2
     4    61    60    1
     5    37    36   ar
     6    32    31    1
     7    70    71    1
     8    70    73    1
     9    60    63    1
    10    60    59    1
    11    92    91    1
    12    71    72    2
    13    63    64    1
    14    66    64   ar
    15    66    68   ar
    16    13    12    2
    17    31    34    1
    18    31    30    1
    19    34    35    1
    20    23    22    2
    21    64    65   ar
    22    91    90   ar
    23    91    89   ar
    24    73    74    1
    25    36    35    1
    26    36    38   ar
    27    90    88   ar
    28    81    82    1
    29    68    67   ar
    30    89    87   ar
    31    29    27   ar
    32    29    28   ar
    33    17    15   ar
    34    17    19   ar
    35    12    11    1
    36    88    86   ar
    37    30    22   am
    38    22    21    1
    39    14    15    1
    40    14    11    1
    41    65    67   ar
    42    75    74   ar
    43    75    77   ar
    44    74    76   ar
    45    27    25   ar
    46    87    86   ar
    47    28    26   ar
    48    10    11    1
    49    15    16   ar
    50    86    85    1
    51    53    52    2
    52    19    18   ar
    53    82    85    1
    54    82    83    1
    55    25    26   ar
    56    25    24    1
    57    77    79   ar
    58    21    24    1
    59    21    20    1
    60    76    78   ar
    61    83    84    2
    62    52    51    1
    63    16    18   ar
    64    79    78   ar
    65    79    80    1
    66    93    94    1
    67    55    54    1
    68    55    56    1
    69    51    50    1
    70    51    54    1
    71    57    56    1
    72    57    58    1
    73    94    95    1
    74    94    97    1
    75    95    96    2
    76    99   101   ar
    77    99    98   ar
    78    49    48   ar
    79    49    47   ar
    80    48    46   ar
    81   101   103   ar
    82    97    98    1
    83    98   100   ar
    84    47    45   ar
    85    46    44   ar
    86   103   102   ar
    87     9     7   am
    88     8     7    2
    89   100   102   ar
    90    45    44   ar
    91     7     6    1
    92    44    43    1
    93    42    41    2
    94     6     5    1
    95    43    40    1
    96    41    40    1
    97     5     2    1
    98    40    39    1
    99     2     3    1
   100     2     1    1
   101     4     3    2
