@<TRIPOS>MOLECULE
tmp/5ambA00.pdb
 145 141 0 0 0
SMALL
GASTEIGER

@<TRIPOS>ATOM
      1  N         10.1230   -7.3040  -18.2600 N.3   256  GLN256     -0.1245
      2  CA         9.6270   -8.4810  -17.5330 C.3   256  GLN256      0.1566
      3  C         10.5120   -9.7180  -17.7050 C.2   256  GLN256      0.2260
      4  O         10.4290  -10.5910  -16.8980 O.2   256  GLN256     -0.2867
      5  CB         8.2210   -8.8600  -17.8990 C.3   256  GLN256      0.0367
      6  CG         8.0330   -9.3420  -19.3190 C.3   256  GLN256      0.0905
      7  CD         6.6060   -9.6120  -19.6430 C.2   256  GLN256      0.2608
      8  OE1        5.8420   -8.6830  -19.8430 O.2   256  GLN256     -0.2717
      9  NE2        6.2300  -10.8710  -19.7150 N.am  256  GLN256     -0.0878
     10  N         -0.4240  -11.1160  -29.6220 N.3   328  HIS328     -0.1226
     11  CA        -0.0250  -11.7570  -28.3820 C.3   328  HIS328      0.1752
     12  C         -0.2900  -13.2520  -28.3880 C.2   328  HIS328      0.2596
     13  O         -1.3930  -13.7230  -28.6550 O.2   328  HIS328     -0.2718
     14  CB        -0.7400  -11.1130  -27.1840 C.3   328  HIS328      0.0759
     15  CG        -0.0920  -11.4550  -25.8900 C.ar  328  HIS328      0.0818
     16  ND1        0.8980  -10.6760  -25.3230 N.ar  328  HIS328     -0.2268
     17  CD2       -0.2180  -12.5410  -25.1000 C.ar  328  HIS328      0.1154
     18  CE1        1.3230  -11.2520  -24.2150 C.ar  328  HIS328      0.1986
     19  NE2        0.6650  -12.3880  -24.0610 N.ar  328  HIS328     -0.2212
     20  N          0.7610  -14.0230  -28.1190 N.am  329  ALA329     -0.1966
     21  CA         0.6540  -15.4640  -28.2590 C.3   329  ALA329      0.1728
     22  C         -0.4150  -16.0530  -27.3470 C.2   329  ALA329      0.2616
     23  O         -0.4600  -15.7350  -26.1520 O.2   329  ALA329     -0.2715
     24  CB         1.9890  -16.0920  -27.9620 C.3   329  ALA329      0.0334
     25  N         -1.2350  -16.9410  -27.9000 N.am  330  SER330     -0.1950
     26  CA        -2.2470  -17.6440  -27.1430 C.3   330  SER330      0.1924
     27  C         -2.6180  -18.9970  -27.7550 C.2   330  SER330      0.2314
     28  O         -2.3530  -19.2890  -28.9430 O.2   330  SER330     -0.2863
     29  CB        -3.4890  -16.7510  -26.9500 C.3   330  SER330      0.2116
     30  OG        -3.9620  -16.2700  -28.1780 O.3   330  SER330     -0.2180
     31  N         11.0090  -20.9260  -26.9280 N.3   354  SER354     -0.1202
     32  CA        10.4440  -21.1670  -25.5770 C.3   354  SER354      0.2020
     33  C          8.9430  -20.8770  -25.5590 C.2   354  SER354      0.2619
     34  O          8.1550  -21.6600  -25.0340 O.2   354  SER354     -0.2717
     35  CB        11.2210  -20.4420  -24.4830 C.3   354  SER354      0.2103
     36  OG        12.5130  -21.0780  -24.3120 O.3   354  SER354     -0.2182
     37  N          8.5610  -19.7830  -26.1880 N.am  355  THR355     -0.1952
     38  CA         7.1180  -19.3820  -26.2130 C.3   355  THR355      0.1897
     39  C          6.2800  -20.4010  -26.9780 C.2   355  THR355      0.2313
     40  O          5.2020  -20.7690  -26.5550 O.2   355  THR355     -0.2863
     41  CB         6.9920  -17.9990  -26.8280 C.3   355  THR355      0.1794
     42  OG1        7.6700  -17.0780  -25.9780 O.3   355  THR355     -0.2208
     43  CG2        5.5420  -17.6370  -27.0600 C.3   355  THR355      0.0378
     44  N          5.6450  -23.0710  -24.5140 N.3   358  HIS358     -0.1226
     45  CA         4.6370  -22.5850  -23.5630 C.3   358  HIS358      0.1752
     46  C          3.2130  -22.7940  -24.1090 C.2   358  HIS358      0.2595
     47  O          2.3680  -23.4360  -23.4710 O.2   358  HIS358     -0.2718
     48  CB         4.8810  -21.1110  -23.2690 C.3   358  HIS358      0.0759
     49  CG         3.8280  -20.5150  -22.3830 C.ar  358  HIS358      0.0818
     50  ND1        3.9230  -20.5290  -21.0170 N.ar  358  HIS358     -0.2268
     51  CD2        2.6490  -19.9400  -22.6800 C.ar  358  HIS358      0.1154
     52  CE1        2.8400  -19.9830  -20.4910 C.ar  358  HIS358      0.1986
     53  NE2        2.0270  -19.6750  -21.4750 N.ar  358  HIS358     -0.2212
     54  N          2.9720  -22.2690  -25.3120 N.am  359  GLU359     -0.1979
     55  CA         1.6800  -22.4000  -25.9550 C.3   359  GLU359      0.1602
     56  C          1.2880  -23.8330  -26.2510 C.2   359  GLU359      0.2287
     57  O          0.1380  -24.2320  -26.0650 O.2   359  GLU359     -0.2864
     58  CB         1.5640  -21.5250  -27.1940 C.3   359  GLU359      0.0415
     59  CG         1.9680  -20.0750  -27.0130 C.3   359  GLU359      0.1163
     60  CD         1.1140  -19.3340  -25.9770 C.2   359  GLU359      0.3649
     61  OE1       -0.0400  -19.7490  -25.6850 O.co2 359  GLU359     -0.2457
     62  OE2        1.6180  -18.3250  -25.4590 O.co2 359  GLU359     -0.2457
     63  N         -0.1420  -25.5880  -23.2150 N.3   362  HIS362     -0.1241
     64  CA        -1.5910  -25.3410  -23.1400 C.3   362  HIS362      0.1621
     65  C         -2.4020  -26.3330  -24.0060 C.2   362  HIS362      0.2264
     66  O         -3.3330  -26.9890  -23.5110 O.2   362  HIS362     -0.2867
     67  CB        -1.9010  -23.9150  -23.6080 C.3   362  HIS362      0.0745
     68  CG        -1.5010  -22.8250  -22.6610 C.ar  362  HIS362      0.0817
     69  ND1       -1.8460  -22.8430  -21.3280 N.ar  362  HIS362     -0.2268
     70  CD2       -0.8840  -21.6400  -22.8620 C.ar  362  HIS362      0.1154
     71  CE1       -1.4550  -21.7350  -20.7450 C.ar  362  HIS362      0.1986
     72  NE2       -0.8070  -21.0130  -21.6290 N.ar  362  HIS362     -0.2212
     73  N          6.4200  -24.5150  -20.1140 N.3   390  ASP390     -0.1239
     74  CA         7.6490  -23.9940  -19.5170 C.3   390  ASP390      0.1674
     75  C          8.5410  -25.1260  -18.9530 C.2   390  ASP390      0.2266
     76  O          9.7560  -25.0380  -19.0380 O.2   390  ASP390     -0.2867
     77  CB         7.3640  -22.9870  -18.3990 C.3   390  ASP390      0.1410
     78  CG         6.8770  -21.6190  -18.9160 C.2   390  ASP390      0.3668
     79  OD1        6.3640  -21.5610  -20.0580 O.co2 390  ASP390     -0.2456
     80  OD2        6.9880  -20.5960  -18.1610 O.co2 390  ASP390     -0.2456
     81  N         11.6320  -12.0530  -13.9450 N.3   432  PHE432     -0.1241
     82  CA        10.1890  -12.0230  -14.1110 C.3   432  PHE432      0.1605
     83  C          9.4430  -11.9420  -12.7760 C.2   432  PHE432      0.2264
     84  O          8.3710  -11.3830  -12.7380 O.2   432  PHE432     -0.2867
     85  CB         9.7000  -13.2290  -14.8940 C.3   432  PHE432      0.0534
     86  CG         8.2070  -13.2360  -15.1110 C.ar  432  PHE432     -0.0203
     87  CD1        7.6410  -12.4360  -16.0920 C.ar  432  PHE432     -0.0042
     88  CD2        7.3630  -14.0260  -14.3150 C.ar  432  PHE432     -0.0042
     89  CE1        6.2470  -12.3920  -16.2480 C.ar  432  PHE432     -0.0003
     90  CE2        5.9740  -14.0200  -14.4980 C.ar  432  PHE432     -0.0003
     91  CZ         5.4280  -13.1930  -15.4680 C.ar  432  PHE432     -0.0000
     92  N          0.1680   -3.1100  -21.2040 N.3   486  LYS486     -0.1245
     93  CA         0.4880   -4.5370  -21.0470 C.3   486  LYS486      0.1561
     94  C         -0.7130   -5.3640  -21.4350 C.2   486  LYS486      0.2260
     95  O         -1.7930   -5.2230  -20.8410 O.2   486  LYS486     -0.2867
     96  CB         0.8850   -4.8230  -19.6030 C.3   486  LYS486      0.0271
     97  CG         1.1670   -6.2780  -19.2870 C.3   486  LYS486      0.0035
     98  CD         2.3670   -6.8180  -20.0440 C.3   486  LYS486      0.0206
     99  CE         2.3860   -8.3330  -19.8750 C.3   486  LYS486      0.1093
    100  NZ         3.2580   -8.9760  -20.8990 N.3   486  LYS486     -0.1314
    101  N         -2.3280   -8.0990  -20.9560 N.3   488  HIS488     -0.1241
    102  CA        -3.2280   -8.7680  -20.1050 C.3   488  HIS488      0.1621
    103  C         -4.2380   -7.8230  -19.3770 C.2   488  HIS488      0.2264
    104  O         -5.2580   -8.2950  -18.9540 O.2   488  HIS488     -0.2867
    105  CB        -2.4820   -9.5250  -19.0550 C.3   488  HIS488      0.0745
    106  CG        -1.6490  -10.6200  -19.6290 C.ar  488  HIS488      0.0817
    107  ND1       -0.5030  -10.3850  -20.3430 N.ar  488  HIS488     -0.2268
    108  CD2       -1.8200  -11.9620  -19.5770 C.ar  488  HIS488      0.1154
    109  CE1        0.0210  -11.5610  -20.7020 C.ar  488  HIS488      0.1986
    110  NE2       -0.7800  -12.5220  -20.2820 N.ar  488  HIS488     -0.2212
    111  N         -3.1460  -12.4550  -13.9950 N.3   495  TYR495     -0.1241
    112  CA        -1.6960  -12.5090  -14.0780 C.3   495  TYR495      0.1605
    113  C         -1.0150  -13.3270  -13.0120 C.2   495  TYR495      0.2264
    114  O          0.1070  -13.8270  -13.2520 O.2   495  TYR495     -0.2867
    115  CB        -1.0620  -11.1190  -14.0790 C.3   495  TYR495      0.0534
    116  CG         0.1270  -11.0640  -14.9960 C.ar  495  TYR495     -0.0201
    117  CD1       -0.0440  -11.0440  -16.3830 C.ar  495  TYR495     -0.0009
    118  CD2        1.4160  -10.9920  -14.4930 C.ar  495  TYR495     -0.0009
    119  CE1        1.0540  -11.0030  -17.2460 C.ar  495  TYR495      0.0417
    120  CE2        2.5240  -10.9480  -15.3670 C.ar  495  TYR495      0.0417
    121  CZ         2.3420  -10.9430  -16.7380 C.ar  495  TYR495      0.1957
    122  OH         3.4560  -10.9090  -17.5890 O.3   495  TYR495     -0.2866
    123  N          1.0060  -16.5170  -13.5690 N.3   498  TYR498     -0.1241
    124  CA         2.3880  -16.5550  -14.0910 C.3   498  TYR498      0.1605
    125  C          3.4100  -16.6160  -12.9560 C.2   498  TYR498      0.2264
    126  O          4.4090  -17.3800  -13.0360 O.2   498  TYR498     -0.2867
    127  CB         2.6740  -15.4230  -15.0770 C.3   498  TYR498      0.0534
    128  CG         1.7870  -15.4390  -16.2650 C.ar  498  TYR498     -0.0201
    129  CD1        1.8700  -16.4510  -17.2420 C.ar  498  TYR498     -0.0009
    130  CD2        0.7940  -14.4470  -16.4680 C.ar  498  TYR498     -0.0009
    131  CE1        1.0160  -16.4760  -18.3200 C.ar  498  TYR498      0.0417
    132  CE2       -0.0380  -14.4800  -17.5630 C.ar  498  TYR498      0.0417
    133  CZ         0.0880  -15.4630  -18.5170 C.ar  498  TYR498      0.1957
    134  OH        -0.7370  -15.4980  -19.6150 O.3   498  TYR498     -0.2866
    135  N          5.8550  -19.7970  -12.3970 N.3   502  PHE502     -0.1241
    136  CA         7.3320  -19.7030  -12.3640 C.3   502  PHE502      0.1605
    137  C          7.9250  -20.4110  -11.1560 C.2   502  PHE502      0.2264
    138  O          9.0580  -20.8860  -11.2120 O.2   502  PHE502     -0.2867
    139  CB         7.8070  -18.2530  -12.4840 C.3   502  PHE502      0.0534
    140  CG         7.9260  -17.7750  -13.9120 C.ar  502  PHE502     -0.0203
    141  CD1        6.8890  -17.9470  -14.8290 C.ar  502  PHE502     -0.0042
    142  CD2        9.0830  -17.1560  -14.3490 C.ar  502  PHE502     -0.0042
    143  CE1        7.0160  -17.4970  -16.1460 C.ar  502  PHE502     -0.0003
    144  CE2        9.2140  -16.7120  -15.6480 C.ar  502  PHE502     -0.0003
    145  CZ         8.1780  -16.8780  -16.5500 C.ar  502  PHE502     -0.0000
@<TRIPOS>BOND
     1    10    11    1
     2    28    27    2
     3    13    12    2
     4    12    11    1
     5    12    20   am
     6    11    14    1
     7    21    20    1
     8    21    24    1
     9    21    22    1
    10    30    29    1
    11    25    22   am
    12    25    26    1
    13    27    26    1
    14    22    23    2
    15    58    59    1
    16    58    55    1
    17    14    15    1
    18    26    29    1
    19    43    41    1
    20    59    60    1
    21    39    40    2
    22    39    38    1
    23    31    32    1
    24    41    38    1
    25    41    42    1
    26    56    57    2
    27    56    55    1
    28    38    37    1
    29    37    33   am
    30    60    61   ar
    31    60    62   ar
    32    55    54    1
    33    15    16   ar
    34    15    17   ar
    35    32    33    1
    36    32    35    1
    37    33    34    2
    38    16    18   ar
    39    54    46   am
    40    17    19   ar
    41    44    45    1
    42    35    36    1
    43    18    19   ar
    44    46    45    1
    45    46    47    2
    46    65    66    2
    47    65    64    1
    48    67    64    1
    49    67    68    1
    50    45    48    1
    51    48    49    1
    52    63    64    1
    53    70    68   ar
    54    70    72   ar
    55    51    49   ar
    56    51    53   ar
    57    68    69   ar
    58    49    50   ar
    59    72    71   ar
    60    53    52   ar
    61    94    93    1
    62    94    95    2
    63    69    71   ar
    64    92    93    1
    65    93    96    1
    66    50    52   ar
    67   101   102    1
    68   100    99    1
    69   109   107   ar
    70   109   110   ar
    71   107   106   ar
    72   110   108   ar
    73    73    74    1
    74   102   103    1
    75   102   105    1
    76    79    78   ar
    77    98    99    1
    78    98    97    1
    79     8     7    2
    80     9     7   am
    81     7     6    1
    82   106   108   ar
    83   106   105    1
    84   134   133    1
    85    96    97    1
    86    74    75    1
    87    74    77    1
    88   103   104    2
    89     6     5    1
    90    76    75    2
    91    78    77    1
    92    78    80   ar
    93   133   131   ar
    94   133   132   ar
    95   131   129   ar
    96     1     2    1
    97     5     2    1
    98     3     2    1
    99     3     4    2
   100   122   121    1
   101   132   130   ar
   102   119   121   ar
   103   119   117   ar
   104   129   128   ar
   105   121   120   ar
   106   145   143   ar
   107   145   144   ar
   108   130   128   ar
   109   117   116   ar
   110   128   127    1
   111    89    87   ar
   112    89    91   ar
   113   143   141   ar
   114    87    86   ar
   115   144   142   ar
   116    91    90   ar
   117   120   118   ar
   118    86    85    1
   119    86    88   ar
   120   127   124    1
   121   116   118   ar
   122   116   115    1
   123    85    82    1
   124   141   140   ar
   125    90    88   ar
   126   142   140   ar
   127    82    81    1
   128    82    83    1
   129   124   123    1
   130   124   125    1
   131   115   112    1
   132   112   111    1
   133   112   113    1
   134   140   139    1
   135   114   113    2
   136   126   125    2
   137    83    84    2
   138   139   136    1
   139   135   136    1
   140   136   137    1
   141   138   137    2
