@<TRIPOS>MOLECULE
tmp/5ambA08.pdb
 209 203 0 0 0
SMALL
GASTEIGER

@<TRIPOS>ATOM
      1  N        -20.0890  -22.6590  -26.1210 N.3    32  LEU32      -0.1245
      2  CA       -18.6620  -22.3840  -25.9930 C.3    32  LEU32       0.1561
      3  C        -17.9830  -22.3200  -27.3590 C.2    32  LEU32       0.2260
      4  O        -17.2210  -21.3880  -27.6400 O.2    32  LEU32      -0.2867
      5  CB       -17.9850  -23.3980  -25.0620 C.3    32  LEU32       0.0270
      6  CG       -18.3510  -23.1870  -23.5860 C.3    32  LEU32       0.0019
      7  CD1      -17.9000  -24.3630  -22.7380 C.3    32  LEU32       0.0001
      8  CD2      -17.7630  -21.8880  -23.0390 C.3    32  LEU32       0.0001
      9  N        -18.7630  -19.1440  -29.3830 N.3    35  SER35      -0.1202
     10  CA       -18.0620  -18.0070  -28.7750 C.3    35  SER35       0.2020
     11  C        -16.5620  -17.9830  -29.0920 C.2    35  SER35       0.2618
     12  O        -15.9940  -16.9550  -29.4920 O.2    35  SER35      -0.2717
     13  CB       -18.2650  -18.0440  -27.2730 C.3    35  SER35       0.2103
     14  OG       -17.6530  -16.9140  -26.6940 O.3    35  SER35      -0.2182
     15  N        -15.9180  -19.1320  -28.9260 N.am   36  VAL36      -0.1979
     16  CA       -14.4920  -19.2280  -29.2060 C.3    36  VAL36       0.1595
     17  C        -14.2620  -18.9640  -30.7020 C.2    36  VAL36       0.2287
     18  O        -13.3330  -18.2100  -31.0990 O.2    36  VAL36      -0.2864
     19  CB       -13.9320  -20.5980  -28.7750 C.3    36  VAL36       0.0276
     20  CG1      -12.4550  -20.6650  -29.0970 C.3    36  VAL36       0.0022
     21  CG2      -14.1040  -20.8310  -27.2700 C.3    36  VAL36       0.0022
     22  N        -14.5640  -15.3390  -31.4050 N.3    39  SER39      -0.1217
     23  CA       -13.3630  -14.6950  -30.8830 C.3    39  SER39       0.1889
     24  C        -12.1550  -14.9390  -31.7980 C.2    39  SER39       0.2288
     25  O        -11.3410  -14.0350  -32.0230 O.2    39  SER39      -0.2866
     26  CB       -13.0570  -15.1820  -29.4610 C.3    39  SER39       0.2089
     27  OG       -13.9840  -14.6440  -28.5450 O.3    39  SER39      -0.2183
     28  N         -9.9400  -12.1560  -33.5080 N.3    43  ASP43      -0.1239
     29  CA        -8.5330  -12.0010  -33.1070 C.3    43  ASP43       0.1674
     30  C         -7.5360  -12.2930  -34.2410 C.2    43  ASP43       0.2266
     31  O         -6.4120  -11.8210  -34.1970 O.2    43  ASP43      -0.2867
     32  CB        -8.1900  -12.8860  -31.9060 C.3    43  ASP43       0.1410
     33  CG        -8.8880  -12.4450  -30.6150 C.2    43  ASP43       0.3668
     34  OD1       -9.7020  -11.4930  -30.6260 O.co2  43  ASP43      -0.2456
     35  OD2       -8.6190  -13.0810  -29.5940 O.co2  43  ASP43      -0.2456
     36  N        -18.5490  -11.1270  -32.6620 N.3    54  GLN54      -0.1245
     37  CA       -18.0230  -11.5990  -31.3920 C.3    54  GLN54       0.1566
     38  C        -18.8840  -11.1040  -30.2050 C.2    54  GLN54       0.2260
     39  O        -19.1590  -11.8530  -29.2580 O.2    54  GLN54      -0.2867
     40  CB       -16.5530  -11.1740  -31.2700 C.3    54  GLN54       0.0367
     41  CG       -15.8300  -11.7590  -30.0740 C.3    54  GLN54       0.0905
     42  CD       -16.2250  -11.0600  -28.7810 C.2    54  GLN54       0.2608
     43  OE1      -16.2990   -9.8350  -28.7310 O.2    54  GLN54      -0.2717
     44  NE2      -16.5070  -11.8360  -27.7460 N.am   54  GLN54      -0.0878
     45  N         -1.2350  -16.9410  -27.9000 N.3   330  SER330     -0.1202
     46  CA        -2.2470  -17.6440  -27.1430 C.3   330  SER330      0.2020
     47  C         -2.6180  -18.9970  -27.7550 C.2   330  SER330      0.2619
     48  O         -2.3530  -19.2890  -28.9430 O.2   330  SER330     -0.2717
     49  CB        -3.4890  -16.7510  -26.9500 C.3   330  SER330      0.2103
     50  OG        -3.9620  -16.2700  -28.1780 O.3   330  SER330     -0.2182
     51  N         -3.1880  -19.8270  -26.9050 N.am  331  ALA331     -0.1965
     52  CA        -3.5840  -21.1970  -27.1870 C.3   331  ALA331      0.1728
     53  C         -5.0690  -21.3960  -26.9020 C.2   331  ALA331      0.2616
     54  O         -5.5780  -20.9900  -25.8260 O.2   331  ALA331     -0.2715
     55  CB        -2.7690  -22.1300  -26.3170 C.3   331  ALA331      0.0334
     56  N         -5.7310  -22.0740  -27.8380 N.am  332  TRP332     -0.1960
     57  CA        -7.1780  -22.0590  -27.9640 C.3   332  TRP332      0.1771
     58  C         -7.7970  -23.4290  -27.9240 C.2   332  TRP332      0.2619
     59  O         -7.4160  -24.3330  -28.6940 O.2   332  TRP332     -0.2715
     60  CB        -7.5910  -21.3620  -29.2750 C.3   332  TRP332      0.0590
     61  CG        -7.2080  -19.9040  -29.3450 C.ar  332  TRP332      0.0006
     62  CD1       -5.9600  -19.3630  -29.2610 C.ar  332  TRP332      0.0946
     63  CD2       -8.1060  -18.8190  -29.4930 C.ar  332  TRP332      0.0152
     64  NE1       -6.0150  -18.0090  -29.3780 N.ar  332  TRP332     -0.2442
     65  CE2       -7.3290  -17.6390  -29.5270 C.ar  332  TRP332      0.0810
     66  CE3       -9.4780  -18.7390  -29.6680 C.ar  332  TRP332      0.0012
     67  CZ2       -7.8950  -16.3700  -29.6680 C.ar  332  TRP332      0.0191
     68  CZ3      -10.0480  -17.4580  -29.7880 C.ar  332  TRP332      0.0001
     69  CH2       -9.2470  -16.3090  -29.8100 C.ar  332  TRP332      0.0015
     70  N         -8.7590  -23.5890  -27.0210 N.am  333  ASP333     -0.1971
     71  CA        -9.5860  -24.7790  -26.9610 C.3   333  ASP333      0.1709
     72  C        -10.9540  -24.3290  -27.4710 C.2   333  ASP333      0.2293
     73  O        -11.5190  -23.3820  -26.9370 O.2   333  ASP333     -0.2864
     74  CB        -9.6380  -25.2590  -25.5290 C.3   333  ASP333      0.1436
     75  CG       -10.3560  -26.5860  -25.3490 C.2   333  ASP333      0.3671
     76  OD1      -11.0630  -27.0420  -26.2540 O.co2 333  ASP333     -0.2456
     77  OD2      -10.2040  -27.1700  -24.2520 O.co2 333  ASP333     -0.2456
     78  N        -13.6300  -26.2490  -27.4720 N.3   335  TYR335     -0.1241
     79  CA       -14.6280  -26.9840  -26.6960 C.3   335  TYR335      0.1605
     80  C        -15.4890  -27.9710  -27.4840 C.2   335  TYR335      0.2264
     81  O        -16.5600  -28.3580  -27.0390 O.2   335  TYR335     -0.2867
     82  CB       -15.4940  -25.9660  -25.8780 C.3   335  TYR335      0.0534
     83  CG       -14.6850  -25.3670  -24.7610 C.ar  335  TYR335     -0.0201
     84  CD1      -14.4700  -26.0800  -23.5940 C.ar  335  TYR335     -0.0009
     85  CD2      -14.0540  -24.1460  -24.9020 C.ar  335  TYR335     -0.0009
     86  CE1      -13.6900  -25.5650  -22.5740 C.ar  335  TYR335      0.0417
     87  CE2      -13.2500  -23.6270  -23.8940 C.ar  335  TYR335      0.0417
     88  CZ       -13.0840  -24.3370  -22.7320 C.ar  335  TYR335      0.1957
     89  OH       -12.3170  -23.8220  -21.7370 O.3   335  TYR335     -0.2866
     90  N         -0.1420  -25.5880  -23.2150 N.3   362  HIS362     -0.1241
     91  CA        -1.5910  -25.3410  -23.1400 C.3   362  HIS362      0.1621
     92  C         -2.4020  -26.3330  -24.0060 C.2   362  HIS362      0.2264
     93  O         -3.3330  -26.9890  -23.5110 O.2   362  HIS362     -0.2867
     94  CB        -1.9010  -23.9150  -23.6080 C.3   362  HIS362      0.0745
     95  CG        -1.5010  -22.8250  -22.6610 C.ar  362  HIS362      0.0817
     96  ND1       -1.8460  -22.8430  -21.3280 N.ar  362  HIS362     -0.2268
     97  CD2       -0.8840  -21.6400  -22.8620 C.ar  362  HIS362      0.1154
     98  CE1       -1.4550  -21.7350  -20.7450 C.ar  362  HIS362      0.1986
     99  NE2       -0.8070  -21.0130  -21.6290 N.ar  362  HIS362     -0.2212
    100  N         -5.2000  -29.3240  -23.1570 N.3   366  TYR366     -0.1241
    101  CA        -6.5030  -29.4320  -23.8340 C.3   366  TYR366      0.1605
    102  C         -6.7360  -30.8050  -24.4390 C.2   366  TYR366      0.2264
    103  O         -7.8130  -31.3560  -24.3260 O.2   366  TYR366     -0.2867
    104  CB        -6.6930  -28.4210  -24.9720 C.3   366  TYR366      0.0534
    105  CG        -6.4730  -26.9540  -24.6480 C.ar  366  TYR366     -0.0201
    106  CD1       -6.7520  -26.4470  -23.3980 C.ar  366  TYR366     -0.0009
    107  CD2       -6.0670  -26.0550  -25.6400 C.ar  366  TYR366     -0.0009
    108  CE1       -6.5330  -25.1170  -23.1250 C.ar  366  TYR366      0.0417
    109  CE2       -5.8520  -24.7120  -25.3680 C.ar  366  TYR366      0.0417
    110  CZ        -6.1000  -24.2380  -24.1020 C.ar  366  TYR366      0.1957
    111  OH        -5.9290  -22.8680  -23.8260 O.3   366  TYR366     -0.2866
    112  N         -7.3540  -33.4840  -21.4990 N.3   369  TYR369     -0.1241
    113  CA        -8.6200  -33.4230  -20.7540 C.3   369  TYR369      0.1605
    114  C         -9.8810  -33.2190  -21.5890 C.2   369  TYR369      0.2264
    115  O        -10.9660  -32.9430  -21.0210 O.2   369  TYR369     -0.2867
    116  CB        -8.5290  -32.4070  -19.6060 C.3   369  TYR369      0.0534
    117  CG        -8.3360  -30.9290  -19.8950 C.ar  369  TYR369     -0.0201
    118  CD1       -9.0300  -30.2520  -20.9070 C.ar  369  TYR369     -0.0009
    119  CD2       -7.5340  -30.1620  -19.0410 C.ar  369  TYR369     -0.0009
    120  CE1       -8.8520  -28.8670  -21.0810 C.ar  369  TYR369      0.0417
    121  CE2       -7.3570  -28.7930  -19.2160 C.ar  369  TYR369      0.0417
    122  CZ        -8.0340  -28.1420  -20.2100 C.ar  369  TYR369      0.1957
    123  OH        -7.8660  -26.7500  -20.3220 O.3   369  TYR369     -0.2866
    124  N        -12.6730  -28.7550  -17.7730 N.3   377  ARG377     -0.1231
    125  CA       -11.6120  -28.5920  -18.7990 C.3   377  ARG377      0.1694
    126  C        -10.8660  -27.2950  -18.4890 C.2   377  ARG377      0.2592
    127  O        -10.9930  -26.2820  -19.2020 O.2   377  ARG377     -0.2718
    128  CB       -12.1970  -28.5850  -20.2140 C.3   377  ARG377      0.0321
    129  CG       -12.8060  -29.9120  -20.6170 C.3   377  ARG377      0.0489
    130  CD       -13.2320  -29.9250  -22.0850 C.3   377  ARG377      0.2205
    131  NE       -14.2930  -30.8840  -22.3190 N.pl3 377  ARG377     -0.0865
    132  CZ       -15.0910  -30.9040  -23.3820 C.cat 377  ARG377      0.5346
    133  NH1      -14.9150  -30.0560  -24.3910 N.pl3 377  ARG377      0.1354
    134  NH2      -16.0660  -31.8060  -23.4430 N.pl3 377  ARG377      0.1354
    135  N        -10.0900  -27.3370  -17.4010 N.am  378  ARG378     -0.1966
    136  CA        -9.2700  -26.2340  -16.9650 C.3   378  ARG378      0.1729
    137  C         -8.0650  -26.8500  -16.2880 C.2   378  ARG378      0.2616
    138  O         -8.0610  -28.0370  -15.9800 O.2   378  ARG378     -0.2715
    139  CB       -10.0160  -25.3210  -15.9370 C.3   378  ARG378      0.0348
    140  CG       -11.2330  -24.5660  -16.4670 C.3   378  ARG378      0.0492
    141  CD       -11.8460  -23.6790  -15.3750 C.3   378  ARG378      0.2205
    142  NE       -10.9910  -22.5350  -15.0030 N.pl3 378  ARG378     -0.0865
    143  CZ       -11.3000  -21.6040  -14.0940 C.cat 378  ARG378      0.5346
    144  NH1      -12.4460  -21.6640  -13.4240 N.pl3 378  ARG378      0.1354
    145  NH2      -10.4550  -20.6040  -13.8470 N.pl3 378  ARG378      0.1354
    146  N         -7.0950  -26.0330  -15.9640 N.am  379  GLY379     -0.1955
    147  CA        -5.9590  -26.5050  -15.2160 C.3   379  GLY379      0.1869
    148  C         -6.3370  -26.8040  -13.7870 C.2   379  GLY379      0.2309
    149  O         -7.3490  -26.2560  -13.2670 O.2   379  GLY379     -0.2863
    150  N         -1.7060  -24.5620  -15.7000 N.3   385  HIS385     -0.1226
    151  CA        -1.8220  -24.4240  -17.1470 C.3   385  HIS385      0.1752
    152  C         -0.6540  -23.6500  -17.7300 C.2   385  HIS385      0.2595
    153  O         -0.1180  -24.0050  -18.7690 O.2   385  HIS385     -0.2718
    154  CB        -3.1480  -23.7540  -17.5240 C.3   385  HIS385      0.0759
    155  CG        -3.8440  -24.4520  -18.6360 C.ar  385  HIS385      0.0818
    156  ND1       -5.0830  -25.0320  -18.5110 N.ar  385  HIS385     -0.2268
    157  CD2       -3.4250  -24.7270  -19.8870 C.ar  385  HIS385      0.1154
    158  CE1       -5.4040  -25.6100  -19.6520 C.ar  385  HIS385      0.1986
    159  NE2       -4.4190  -25.4170  -20.5060 N.ar  385  HIS385     -0.2212
    160  N         -0.2370  -22.5890  -17.0570 N.am  386  GLU386     -0.1979
    161  CA         0.8960  -21.8080  -17.4910 C.3   386  GLU386      0.1602
    162  C          2.2690  -22.5080  -17.3560 C.2   386  GLU386      0.2287
    163  O          3.2360  -22.0680  -17.9770 O.2   386  GLU386     -0.2864
    164  CB         0.9370  -20.4660  -16.7580 C.3   386  GLU386      0.0415
    165  CG        -0.3290  -19.6100  -16.9350 C.3   386  GLU386      0.1163
    166  CD        -0.7510  -19.3950  -18.3740 C.2   386  GLU386      0.3649
    167  OE1        0.1550  -19.3720  -19.2450 O.co2 386  GLU386     -0.2457
    168  OE2       -1.9890  -19.2510  -18.6340 O.co2 386  GLU386     -0.2457
    169  N         -0.5380   -6.2790  -22.3990 N.3   487  PHE487     -0.1241
    170  CA        -1.6430   -7.0340  -22.9830 C.3   487  PHE487      0.1605
    171  C         -2.7410   -7.4890  -22.0320 C.2   487  PHE487      0.2264
    172  O         -3.9380   -7.2930  -22.2710 O.2   487  PHE487     -0.2867
    173  CB        -1.0830   -8.2930  -23.7160 C.3   487  PHE487      0.0534
    174  CG        -2.1440   -9.2140  -24.2060 C.ar  487  PHE487     -0.0203
    175  CD1       -2.7610   -8.9920  -25.4420 C.ar  487  PHE487     -0.0042
    176  CD2       -2.5880  -10.2660  -23.4270 C.ar  487  PHE487     -0.0042
    177  CE1       -3.7650   -9.8280  -25.8920 C.ar  487  PHE487     -0.0003
    178  CE2       -3.6070  -11.0930  -23.8730 C.ar  487  PHE487     -0.0003
    179  CZ        -4.1760  -10.8880  -25.1170 C.ar  487  PHE487     -0.0000
    180  N         -7.0090  -10.6510  -18.7130 N.3   493  THR493     -0.1218
    181  CA        -6.4480  -11.9720  -18.4570 C.3   493  THR493      0.1862
    182  C         -5.7130  -11.8480  -17.1340 C.2   493  THR493      0.2287
    183  O         -4.7920  -11.0260  -17.0260 O.2   493  THR493     -0.2866
    184  CB        -5.5000  -12.3970  -19.5950 C.3   493  THR493      0.1770
    185  OG1       -6.2440  -12.4630  -20.8060 O.3   493  THR493     -0.2211
    186  CG2       -4.8900  -13.7870  -19.2900 C.3   493  THR493      0.0375
    187  N         -1.3160  -16.2070  -12.0170 N.3   497  ARG497     -0.1231
    188  CA        -1.0000  -17.5190  -12.6590 C.3   497  ARG497      0.1694
    189  C          0.4420  -17.6080  -13.0810 C.2   497  ARG497      0.2592
    190  O          1.0210  -18.7100  -12.9750 O.2   497  ARG497     -0.2718
    191  CB        -1.9240  -17.7780  -13.8390 C.3   497  ARG497      0.0321
    192  CG        -1.9150  -16.6810  -14.9020 C.3   497  ARG497      0.0489
    193  CD        -2.9630  -16.8470  -15.9720 C.3   497  ARG497      0.2205
    194  NE        -4.3080  -16.8860  -15.3800 N.pl3 497  ARG497     -0.0865
    195  CZ        -5.4420  -17.0480  -16.0640 C.cat 497  ARG497      0.5346
    196  NH1       -5.4530  -17.1560  -17.4010 N.pl3 497  ARG497      0.1354
    197  NH2       -6.5730  -17.1090  -15.4000 N.pl3 497  ARG497      0.1354
    198  N          1.0060  -16.5170  -13.5690 N.am  498  TYR498     -0.1976
    199  CA         2.3880  -16.5550  -14.0910 C.3   498  TYR498      0.1639
    200  C          3.4100  -16.6160  -12.9560 C.2   498  TYR498      0.2290
    201  O          4.4090  -17.3800  -13.0360 O.2   498  TYR498     -0.2864
    202  CB         2.6740  -15.4230  -15.0770 C.3   498  TYR498      0.0560
    203  CG         1.7870  -15.4390  -16.2650 C.ar  498  TYR498     -0.0198
    204  CD1        1.8700  -16.4510  -17.2420 C.ar  498  TYR498     -0.0009
    205  CD2        0.7940  -14.4470  -16.4680 C.ar  498  TYR498     -0.0009
    206  CE1        1.0160  -16.4760  -18.3200 C.ar  498  TYR498      0.0417
    207  CE2       -0.0380  -14.4800  -17.5630 C.ar  498  TYR498      0.0417
    208  CZ         0.0880  -15.4630  -18.5170 C.ar  498  TYR498      0.1957
    209  OH        -0.7370  -15.4980  -19.6150 O.3   498  TYR498     -0.2866
@<TRIPOS>BOND
     1    30    31    2
     2    30    29    1
     3    28    29    1
     4    29    32    1
     5    36    37    1
     6    25    24    2
     7    32    33    1
     8    24    23    1
     9    22    23    1
    10    37    40    1
    11    37    38    1
    12    40    41    1
    13    18    17    2
    14    23    26    1
    15    17    16    1
    16    34    33   ar
    17    33    35   ar
    18    38    39    2
    19    41    42    1
    20    69    68   ar
    21    69    67   ar
    22    68    66   ar
    23    66    63   ar
    24    67    65   ar
    25    65    63   ar
    26    65    64   ar
    27    63    61   ar
    28    12    11    2
    29    26    27    1
    30     9    10    1
    31    64    62   ar
    32    61    60    1
    33    61    62   ar
    34    60    57    1
    35    16    15    1
    36    16    19    1
    37    20    19    1
    38    11    15   am
    39    11    10    1
    40    48    47    2
    41    42    43    2
    42    42    44   am
    43    19    21    1
    44    10    13    1
    45    59    58    2
    46    50    49    1
    47    57    58    1
    48    57    56    1
    49    58    70   am
    50    45    46    1
    51    56    53   am
    52    47    46    1
    53    47    51   am
    54     4     3    2
    55    80    81    2
    56    80    79    1
    57    78    79    1
    58    72    71    1
    59    72    73    2
    60     3     2    1
    61    13    14    1
    62    52    51    1
    63    52    53    1
    64    52    55    1
    65    46    49    1
    66    70    71    1
    67    71    74    1
    68    53    54    2
    69    79    82    1
    70    76    75   ar
    71     1     2    1
    72     2     5    1
    73   177   175   ar
    74   177   179   ar
    75    82    83    1
    76   107   109   ar
    77   107   105   ar
    78    74    75    1
    79   175   174   ar
    80   109   110   ar
    81    75    77   ar
    82   179   178   ar
    83     5     6    1
    84   104   105    1
    85   104   101    1
    86    85    83   ar
    87    85    87   ar
    88    83    84   ar
    89   105   106   ar
    90   102   103    2
    91   102   101    1
    92   133   132    1
    93   174   173    1
    94   174   176   ar
    95   110   111    1
    96   110   108   ar
    97    92    93    2
    98    92    91    1
    99    87    88   ar
   100   178   176   ar
   101   101   100    1
   102   173   170    1
   103    94    91    1
   104    94    95    1
   105    84    86   ar
   106     6     8    1
   107     6     7    1
   108   134   132    1
   109   106   108   ar
   110   132   131    2
   111    90    91    1
   112   170   169    1
   113   170   171    1
   114    97    95   ar
   115    97    99   ar
   116    88    86   ar
   117    88    89    1
   118    95    96   ar
   119   131   130    1
   120   172   171    2
   121   130   129    1
   122    99    98   ar
   123   114   115    2
   124   114   113    1
   125   112   113    1
   126    96    98   ar
   127   120   118   ar
   128   120   122   ar
   129   118   117   ar
   130   185   184    1
   131   113   116    1
   132   129   128    1
   133   159   157   ar
   134   159   158   ar
   135   123   122    1
   136   128   125    1
   137   122   121   ar
   138   117   116    1
   139   117   119   ar
   140   157   155   ar
   141   158   156   ar
   142   209   208    1
   143   184   186    1
   144   184   181    1
   145   167   166   ar
   146   121   119   ar
   147   127   126    2
   148   125   126    1
   149   125   124    1
   150   153   152    2
   151   180   181    1
   152   155   156   ar
   153   155   154    1
   154   168   166   ar
   155   208   206   ar
   156   208   207   ar
   157   126   135   am
   158   181   182    1
   159   166   165    1
   160   206   204   ar
   161   163   162    2
   162   152   151    1
   163   152   160   am
   164   207   205   ar
   165   154   151    1
   166   161   162    1
   167   161   160    1
   168   161   164    1
   169   196   195    1
   170   135   136    1
   171   204   203   ar
   172   151   150    1
   173   182   183    2
   174   136   137    1
   175   136   139    1
   176   165   164    1
   177   205   203   ar
   178   140   139    1
   179   140   141    1
   180   137   138    2
   181   137   146   am
   182   203   202    1
   183   195   197    1
   184   195   194    2
   185   193   194    1
   186   193   192    1
   187   146   147    1
   188   141   142    1
   189   147   148    1
   190   202   199    1
   191   142   143    2
   192   192   191    1
   193   143   145    1
   194   143   144    1
   195   199   198    1
   196   199   200    1
   197   191   188    1
   198   148   149    2
   199   198   189   am
   200   189   190    2
   201   189   188    1
   202   201   200    2
   203   188   187    1
