@<TRIPOS>MOLECULE
tmp/5ambA07.pdb
 102 98 0 0 0
SMALL
GASTEIGER

@<TRIPOS>ATOM
      1  N         23.7200   -6.7160  -10.3590 N.3   225  PHE225     -0.1241
      2  CA        24.7450   -7.1840  -11.2970 C.3   225  PHE225      0.1605
      3  C         24.4280   -6.6600  -12.7020 C.2   225  PHE225      0.2264
      4  O         25.2940   -6.1280  -13.4000 O.2   225  PHE225     -0.2867
      5  CB        24.7460   -8.7000  -11.2670 C.3   225  PHE225      0.0534
      6  CG        25.8290   -9.3270  -12.0930 C.ar  225  PHE225     -0.0203
      7  CD1       27.0970   -9.4700  -11.5780 C.ar  225  PHE225     -0.0042
      8  CD2       25.5670   -9.7560  -13.3830 C.ar  225  PHE225     -0.0042
      9  CE1       28.1070  -10.0790  -12.3420 C.ar  225  PHE225     -0.0003
     10  CE2       26.5900  -10.3710  -14.1590 C.ar  225  PHE225     -0.0003
     11  CZ        27.8380  -10.4940  -13.6300 C.ar  225  PHE225     -0.0000
     12  N         24.9570   -2.8840  -12.9830 N.3   228  ARG228     -0.1231
     13  CA        26.3720   -2.6330  -13.2000 C.3   228  ARG228      0.1694
     14  C         26.7720   -2.8050  -14.6820 C.2   228  ARG228      0.2591
     15  O         27.4960   -1.9770  -15.2370 O.2   228  ARG228     -0.2718
     16  CB        27.2110   -3.5440  -12.2960 C.3   228  ARG228      0.0321
     17  CG        28.7150   -3.4530  -12.5100 C.3   228  ARG228      0.0489
     18  CD        29.2610   -2.0610  -12.2340 C.3   228  ARG228      0.2205
     19  NE        29.1240   -1.7160  -10.8240 N.pl3 228  ARG228     -0.0865
     20  CZ        29.6300   -0.6280  -10.2520 C.cat 228  ARG228      0.5346
     21  NH1       30.3150    0.2530  -10.9660 N.pl3 228  ARG228      0.1354
     22  NH2       29.4520   -0.4210   -8.9450 N.pl3 228  ARG228      0.1354
     23  N         26.3000   -3.8810  -15.3000 N.am  229  ALA229     -0.1980
     24  CA        26.5380   -4.1180  -16.7300 C.3   229  ALA229      0.1597
     25  C         26.0130   -2.9800  -17.6060 C.2   229  ALA229      0.2287
     26  O         26.6760   -2.5610  -18.5410 O.2   229  ALA229     -0.2864
     27  CB        25.9270   -5.4330  -17.1650 C.3   229  ALA229      0.0319
     28  N         28.1580    0.2050  -17.2920 N.3   232  ARG232     -0.1231
     29  CA        29.3400    0.0900  -18.1370 C.3   232  ARG232      0.1694
     30  C         29.0790    0.4720  -19.6020 C.2   232  ARG232      0.2591
     31  O         29.9900    0.9300  -20.2740 O.2   232  ARG232     -0.2718
     32  CB        29.9420   -1.3220  -18.0120 C.3   232  ARG232      0.0321
     33  CG        30.6020   -1.5910  -16.6580 C.3   232  ARG232      0.0489
     34  CD        30.8760   -3.0740  -16.4030 C.3   232  ARG232      0.2205
     35  NE        31.5030   -3.6930  -17.5700 N.pl3 232  ARG232     -0.0865
     36  CZ        31.7320   -4.9960  -17.7250 C.cat 232  ARG232      0.5346
     37  NH1       31.3970   -5.8840  -16.7860 N.pl3 232  ARG232      0.1354
     38  NH2       32.3160   -5.4220  -18.8420 N.pl3 232  ARG232      0.1354
     39  N         27.8430    0.3130  -20.0840 N.am  233  ARG233     -0.1980
     40  CA        27.5050    0.6990  -21.4580 C.3   233  ARG233      0.1597
     41  C         26.9410    2.0990  -21.5670 C.2   233  ARG233      0.2287
     42  O         27.3520    2.8880  -22.4400 O.2   233  ARG233     -0.2864
     43  CB        26.5100   -0.2710  -22.0660 C.3   233  ARG233      0.0334
     44  CG        27.1750   -1.4570  -22.7100 C.3   233  ARG233      0.0492
     45  CD        27.8600   -2.3080  -21.6640 C.3   233  ARG233      0.2205
     46  NE        28.5500   -3.4770  -22.2290 N.pl3 233  ARG233     -0.0865
     47  CZ        28.7340   -4.6050  -21.5490 C.cat 233  ARG233      0.5346
     48  NH1       28.2870   -4.7240  -20.2770 N.pl3 233  ARG233      0.1354
     49  NH2       29.3540   -5.6230  -22.1480 N.pl3 233  ARG233      0.1354
     50  N         25.3230   -8.4910  -22.8690 N.3   264  MET264     -0.1230
     51  CA        25.9420   -7.4790  -22.0210 C.3   264  MET264      0.1702
     52  C         26.3090   -7.9450  -20.6430 C.2   264  MET264      0.2592
     53  O         27.1730   -7.3330  -19.9850 O.2   264  MET264     -0.2718
     54  CB        25.0300   -6.2580  -21.8570 C.3   264  MET264      0.0401
     55  CG        25.0630   -5.4030  -23.0720 C.3   264  MET264      0.0596
     56  SD        24.2070   -3.8440  -22.8910 S.3   264  MET264     -0.1393
     57  CE        22.5480   -4.4550  -22.7080 C.3   264  MET264      0.0692
     58  N         25.6730   -9.0210  -20.2050 N.am  265  VAL265     -0.1966
     59  CA        25.8610   -9.4930  -18.8340 C.3   265  VAL265      0.1727
     60  C         26.5830  -10.8360  -18.7050 C.2   265  VAL265      0.2616
     61  O         26.9870  -11.1750  -17.6000 O.2   265  VAL265     -0.2715
     62  CB        24.5330   -9.5360  -18.0770 C.3   265  VAL265      0.0290
     63  CG1       23.8280   -8.1540  -18.1100 C.3   265  VAL265      0.0023
     64  CG2       23.6170  -10.5620  -18.6660 C.3   265  VAL265      0.0023
     65  N         26.7020  -11.5890  -19.8070 N.am  266  VAL266     -0.1964
     66  CA        27.3080  -12.9440  -19.7820 C.3   266  VAL266      0.1712
     67  C         28.6610  -12.9020  -19.0920 C.2   266  VAL266      0.2458
     68  O         29.5480  -12.1800  -19.5200 O.2   266  VAL266     -0.2730
     69  CB        27.4190  -13.5920  -21.1830 C.3   266  VAL266      0.0289
     70  CG1       28.1430  -12.7090  -22.1850 C.3   266  VAL266      0.0023
     71  CG2       28.0770  -14.9850  -21.1080 C.3   266  VAL266      0.0023
     72  N         28.8160  -13.6600  -18.0010 N.am  267  PRO267     -0.2727
     73  CA        30.0180  -13.5910  -17.1960 C.3   267  PRO267      0.1402
     74  C         31.2950  -14.1160  -17.8820 C.2   267  PRO267      0.2269
     75  O         32.3760  -13.5810  -17.6450 O.2   267  PRO267     -0.2865
     76  CB        29.6760  -14.5010  -16.0060 C.3   267  PRO267      0.0296
     77  CG        28.1980  -14.5030  -15.9390 C.3   267  PRO267      0.0237
     78  CD        27.8080  -14.5320  -17.3730 C.3   267  PRO267      0.0939
     79  N         32.2780  -14.8030  -21.6130 N.3   269  PRO269     -0.2116
     80  CA        32.0670  -14.7140  -23.0690 C.3   269  PRO269      0.1372
     81  C         32.8250  -15.7330  -23.9420 C.2   269  PRO269      0.2244
     82  O         32.4300  -15.9710  -25.0800 O.2   269  PRO269     -0.2868
     83  CB        32.5570  -13.2970  -23.4130 C.3   269  PRO269      0.0268
     84  CG        32.4990  -12.5410  -22.1510 C.3   269  PRO269      0.0207
     85  CD        32.7430  -13.5140  -21.0570 C.3   269  PRO269      0.0892
     86  N         32.3240   -6.2940   -5.9170 N.3   585  ASN585     -0.1240
     87  CA        32.1820   -5.0700   -6.6980 C.3   585  ASN585      0.1653
     88  C         31.6910   -3.8720   -5.8720 C.2   585  ASN585      0.2266
     89  O         31.6000   -2.7660   -6.3940 O.2   585  ASN585     -0.2867
     90  CB        31.2760   -5.3370   -7.9160 C.3   585  ASN585      0.1155
     91  CG        31.8870   -6.3620   -8.8720 C.2   585  ASN585      0.2627
     92  OD1       33.0820   -6.6060   -8.8340 O.2   585  ASN585     -0.2716
     93  ND2       31.0660   -6.9730   -9.7130 N.am  585  ASN585     -0.0877
     94  N         28.6700   -3.3090   -4.5810 N.3   587  GLU587     -0.1245
     95  CA        27.3460   -2.8550   -5.0250 C.3   587  GLU587      0.1567
     96  C         26.4560   -2.5680   -3.8380 C.2   587  GLU587      0.2260
     97  O         26.6020   -3.1670   -2.7770 O.2   587  GLU587     -0.2867
     98  CB        26.6180   -3.9090   -5.8490 C.3   587  GLU587      0.0388
     99  CG        27.3070   -4.3880   -7.0930 C.3   587  GLU587      0.1160
    100  CD        27.5610   -3.3350   -8.1530 C.2   587  GLU587      0.3649
    101  OE1       27.0890   -2.1790   -8.0710 O.co2 587  GLU587     -0.2457
    102  OE2       28.2580   -3.6610   -9.1330 O.co2 587  GLU587     -0.2457
@<TRIPOS>BOND
     1    82    81    2
     2    81    80    1
     3    83    80    1
     4    83    84    1
     5    55    56    1
     6    55    54    1
     7    80    79    1
     8    56    57    1
     9    50    51    1
    10    44    43    1
    11    44    45    1
    12    42    41    2
    13    46    45    1
    14    46    47    2
    15    70    69    1
    16    84    85    1
    17    49    47    1
    18    43    40    1
    19    51    54    1
    20    51    52    1
    21    79    85    1
    22    41    40    1
    23    47    48    1
    24    40    39    1
    25    69    71    1
    26    69    66    1
    27    52    58   am
    28    52    53    2
    29    31    30    2
    30    58    59    1
    31    39    30   am
    32    65    66    1
    33    65    60   am
    34    66    67    1
    35    30    29    1
    36    68    67    2
    37    67    72   am
    38    38    36    1
    39    59    60    1
    40    59    62    1
    41    60    61    2
    42    64    62    1
    43    26    25    2
    44    29    32    1
    45    29    28    1
    46    63    62    1
    47    32    33    1
    48    72    78    1
    49    72    73    1
    50    74    75    2
    51    74    73    1
    52    36    35    2
    53    36    37    1
    54    25    24    1
    55    35    34    1
    56    78    77    1
    57    73    76    1
    58    27    24    1
    59    24    23    1
    60    33    34    1
    61    76    77    1
    62    23    14   am
    63    15    14    2
    64    14    13    1
    65    10    11   ar
    66    10     8   ar
    67    11     9   ar
    68     4     3    2
    69     8     6   ar
    70    13    12    1
    71    13    16    1
    72     3     2    1
    73    17    16    1
    74    17    18    1
    75     9     7   ar
    76    18    19    1
    77     6     7   ar
    78     6     5    1
    79     2     5    1
    80     2     1    1
    81    21    20    1
    82    19    20    2
    83    20    22    1
    84    93    91   am
    85   102   100   ar
    86    91    92    2
    87    91    90    1
    88   100   101   ar
    89   100    99    1
    90    90    87    1
    91    99    98    1
    92    87    86    1
    93    87    88    1
    94    89    88    2
    95    98    95    1
    96    95    94    1
    97    95    96    1
    98    96    97    2
