@<TRIPOS>MOLECULE
tmp/5amcB00.pdb
 173 165 0 0 0
SMALL
GASTEIGER

@<TRIPOS>ATOM
      1  N          1.3270   58.1510    3.2770 N.3   252  ASP252     -0.1239
      2  CA         1.6080   57.1740    4.3140 C.3   252  ASP252      0.1674
      3  C          2.6820   56.1980    3.8070 C.2   252  ASP252      0.2266
      4  O          2.6680   55.8160    2.6350 O.2   252  ASP252     -0.2867
      5  CB         0.2740   56.4930    4.6150 C.3   252  ASP252      0.1410
      6  CG         0.3970   55.3400    5.5400 C.2   252  ASP252      0.3668
      7  OD1        0.7100   54.2660    5.0410 O.co2 252  ASP252     -0.2456
      8  OD2        0.1920   55.5060    6.7640 O.co2 252  ASP252     -0.2456
      9  N         -1.4070   52.8910    3.2110 N.3   256  GLN256     -0.1231
     10  CA        -2.4820   52.1260    3.8450 C.3   256  GLN256      0.1698
     11  C         -3.6790   52.9970    4.1950 C.2   256  GLN256      0.2592
     12  O         -4.7600   52.5020    4.3170 O.2   256  GLN256     -0.2718
     13  CB        -1.9410   51.4090    5.0850 C.3   256  GLN256      0.0381
     14  CG        -1.8090   52.2500    6.3440 C.3   256  GLN256      0.0905
     15  CD        -1.1840   51.4690    7.4890 C.2   256  GLN256      0.2608
     16  OE1       -0.1750   50.8000    7.3230 O.2   256  GLN256     -0.2717
     17  NE2       -1.7950   51.5440    8.6510 N.am  256  GLN256     -0.0878
     18  N         -3.4500   54.3060    4.3250 N.am  257  SER257     -0.1952
     19  CA        -4.4430   55.2540    4.7290 C.3   257  SER257      0.1924
     20  C         -4.0850   56.5290    3.9960 C.2   257  SER257      0.2314
     21  O         -2.9150   56.9310    4.0250 O.2   257  SER257     -0.2863
     22  CB        -4.3270   55.4760    6.2390 C.3   257  SER257      0.2116
     23  OG        -5.5410   55.9320    6.7610 O.3   257  SER257     -0.2180
     24  N         -5.6090   59.6970    4.1140 N.3   259  GLU259     -0.1245
     25  CA        -6.1280   60.9840    4.6190 C.3   259  GLU259      0.1567
     26  C         -5.1530   62.1670    4.4970 C.2   259  GLU259      0.2260
     27  O         -5.5990   63.3150    4.3700 O.2   259  GLU259     -0.2867
     28  CB        -6.6440   60.8520    6.0550 C.3   259  GLU259      0.0388
     29  CG        -5.5820   60.6610    7.1390 C.3   259  GLU259      0.1160
     30  CD        -5.0610   59.2330    7.2800 C.2   259  GLU259      0.3649
     31  OE1       -5.5620   58.3160    6.5770 O.co2 259  GLU259     -0.2457
     32  OE2       -4.1220   59.0410    8.0930 O.co2 259  GLU259     -0.2457
     33  N          5.4730   52.5280   17.6870 N.3   328  HIS328     -0.1241
     34  CA         4.1800   52.0550   17.2010 C.3   328  HIS328      0.1621
     35  C          3.1890   52.0040   18.3560 C.2   328  HIS328      0.2264
     36  O          3.4820   51.3900   19.3700 O.2   328  HIS328     -0.2867
     37  CB         4.2890   50.6770   16.5560 C.3   328  HIS328      0.0745
     38  CG         3.0400   50.2820   15.8600 C.ar  328  HIS328      0.0817
     39  ND1        2.7480   50.6950   14.5770 N.ar  328  HIS328     -0.2268
     40  CD2        1.9500   49.6160   16.3040 C.ar  328  HIS328      0.1154
     41  CE1        1.5430   50.2670   14.2500 C.ar  328  HIS328      0.1986
     42  NE2        1.0360   49.6180   15.2830 N.ar  328  HIS328     -0.2212
     43  N         -5.3770   62.7860   12.7630 N.3   351  ASP351     -0.1239
     44  CA        -5.3100   61.3280   12.6830 C.3   351  ASP351      0.1674
     45  C         -4.7180   60.7110   13.9560 C.2   351  ASP351      0.2266
     46  O         -5.1090   59.6130   14.3560 O.2   351  ASP351     -0.2867
     47  CB        -4.5670   60.8550   11.4450 C.3   351  ASP351      0.1410
     48  CG        -4.8410   59.4060   11.1600 C.2   351  ASP351      0.3668
     49  OD1       -5.9680   59.0610   10.7430 O.co2 351  ASP351     -0.2456
     50  OD2       -3.9440   58.6050   11.4100 O.co2 351  ASP351     -0.2456
     51  N         -7.5080   60.3570   16.3640 N.3   354  SER354     -0.1202
     52  CA        -8.1880   59.0740   16.1010 C.3   354  SER354      0.2020
     53  C         -7.4550   57.8820   16.7040 C.2   354  SER354      0.2619
     54  O         -8.0860   57.0250   17.3240 O.2   354  SER354     -0.2717
     55  CB        -8.4340   58.8540   14.6070 C.3   354  SER354      0.2103
     56  OG        -9.3880   59.7940   14.1420 O.3   354  SER354     -0.2182
     57  N         -6.1370   57.8460   16.5350 N.am  355  THR355     -0.1952
     58  CA        -5.2890   56.7850   17.0840 C.3   355  THR355      0.1897
     59  C         -5.3740   56.7280   18.6090 C.2   355  THR355      0.2313
     60  O         -5.4360   55.6390   19.1950 O.2   355  THR355     -0.2863
     61  CB        -3.8310   56.9370   16.6040 C.3   355  THR355      0.1794
     62  OG1       -3.7850   56.7460   15.1820 O.3   355  THR355     -0.2208
     63  CG2       -2.8970   55.9470   17.2980 C.3   355  THR355      0.0378
     64  N         -8.4520   54.9620   19.2770 N.3   358  HIS358     -0.1226
     65  CA        -8.2090   53.5370   18.9540 C.3   358  HIS358      0.1752
     66  C         -7.5400   52.8130   20.1260 C.2   358  HIS358      0.2595
     67  O         -8.0190   51.7440   20.5730 O.2   358  HIS358     -0.2718
     68  CB        -7.3570   53.4130   17.6900 C.3   358  HIS358      0.0759
     69  CG        -6.9960   52.0060   17.3630 C.ar  358  HIS358      0.0818
     70  ND1       -7.8190   51.1970   16.6160 N.ar  358  HIS358     -0.2268
     71  CD2       -5.9280   51.2550   17.7040 C.ar  358  HIS358      0.1154
     72  CE1       -7.2720   50.0010   16.5120 C.ar  358  HIS358      0.1986
     73  NE2       -6.1210   50.0150   17.1560 N.ar  358  HIS358     -0.2212
     74  N         -6.4440   53.3740   20.6210 N.am  359  GLU359     -0.1979
     75  CA        -5.7370   52.7690   21.7450 C.3   359  GLU359      0.1602
     76  C         -6.5550   52.7820   23.0290 C.2   359  GLU359      0.2287
     77  O         -6.4990   51.8240   23.7990 O.2   359  GLU359     -0.2864
     78  CB        -4.3730   53.4130   22.0040 C.3   359  GLU359      0.0415
     79  CG        -3.3740   53.3490   20.8530 C.3   359  GLU359      0.1163
     80  CD        -3.1640   51.9610   20.3130 C.2   359  GLU359      0.3649
     81  OE1       -3.1330   51.0300   21.1300 O.co2 359  GLU359     -0.2457
     82  OE2       -3.0410   51.8160   19.0790 O.co2 359  GLU359     -0.2457
     83  N        -12.2480   52.8630   17.2720 N.3   390  ASP390     -0.1239
     84  CA       -12.5550   53.3900   15.9540 C.3   390  ASP390      0.1674
     85  C        -14.0220   53.8140   15.8760 C.2   390  ASP390      0.2266
     86  O        -14.3420   54.7830   15.2120 O.2   390  ASP390     -0.2867
     87  CB       -12.2230   52.3780   14.8340 C.3   390  ASP390      0.1410
     88  CG       -10.7270   52.2950   14.5100 C.2   390  ASP390      0.3668
     89  OD1       -9.8650   52.6310   15.3600 O.co2 390  ASP390     -0.2456
     90  OD2      -10.4060   51.8620   13.3750 O.co2 390  ASP390     -0.2456
     91  N         -9.4440   57.5110    4.6110 N.3   428  GLU428     -0.1231
     92  CA        -9.0180   56.8300    5.8210 C.3   428  GLU428      0.1699
     93  C         -9.4720   55.3640    5.8710 C.2   428  GLU428      0.2592
     94  O         -8.6510   54.4910    6.1390 O.2   428  GLU428     -0.2718
     95  CB        -9.5070   57.6260    7.0260 C.3   428  GLU428      0.0402
     96  CG        -9.0800   57.0850    8.3680 C.3   428  GLU428      0.1161
     97  CD        -9.6830   57.8560    9.5280 C.2   428  GLU428      0.3649
     98  OE1      -10.0540   59.0400    9.3560 O.co2 428  GLU428     -0.2457
     99  OE2       -9.7700   57.2670   10.6170 O.co2 428  GLU428     -0.2457
    100  N        -10.7440   55.1070    5.5620 N.am  429  LYS429     -0.1980
    101  CA       -11.3970   53.8260    5.8000 C.3   429  LYS429      0.1596
    102  C        -11.4640   52.9120    4.5690 C.2   429  LYS429      0.2287
    103  O        -11.1170   51.7240    4.6720 O.2   429  LYS429     -0.2864
    104  CB       -12.8030   54.0490    6.3510 C.3   429  LYS429      0.0298
    105  CG       -12.8540   54.8160    7.6760 C.3   429  LYS429      0.0038
    106  CD       -12.2100   54.0430    8.8150 C.3   429  LYS429      0.0206
    107  CE       -12.2810   54.8160   10.1270 C.3   429  LYS429      0.1093
    108  NZ       -11.5750   54.0790   11.2050 N.3   429  LYS429     -0.1314
    109  N         -7.8480   51.7940    3.1750 N.3   432  PHE432     -0.1241
    110  CA        -7.2540   50.7660    4.0190 C.3   432  PHE432      0.1605
    111  C         -7.6530   49.3550    3.6540 C.2   432  PHE432      0.2264
    112  O         -6.8500   48.4440    3.8010 O.2   432  PHE432     -0.2867
    113  CB        -7.5770   51.0130    5.5050 C.3   432  PHE432      0.0534
    114  CG        -6.9250   50.0200    6.4260 C.ar  432  PHE432     -0.0203
    115  CD1       -5.5830   50.1550    6.7570 C.ar  432  PHE432     -0.0042
    116  CD2       -7.6340   48.9430    6.9170 C.ar  432  PHE432     -0.0042
    117  CE1       -4.9610   49.2420    7.5840 C.ar  432  PHE432     -0.0003
    118  CE2       -7.0290   48.0290    7.7590 C.ar  432  PHE432     -0.0003
    119  CZ        -5.6800   48.1550    8.0710 C.ar  432  PHE432     -0.0000
    120  N          6.9200   46.8280    7.5330 N.3   486  LYS486     -0.1245
    121  CA         5.6370   47.1280    8.1890 C.3   486  LYS486      0.1561
    122  C          5.6570   46.5490    9.6060 C.2   486  LYS486      0.2260
    123  O          5.8610   45.3380    9.7650 O.2   486  LYS486     -0.2867
    124  CB         4.4940   46.5280    7.3750 C.3   486  LYS486      0.0271
    125  CG         3.1020   46.5960    8.0060 C.3   486  LYS486      0.0035
    126  CD         2.5750   48.0150    8.1370 C.3   486  LYS486      0.0206
    127  CE         1.3920   48.1080    9.0780 C.3   486  LYS486      0.1093
    128  NZ         1.0470   49.5450    9.3180 N.3   486  LYS486     -0.1314
    129  N          3.9530   45.2030   11.9010 N.3   488  HIS488     -0.1241
    130  CA         3.2750   43.9830   12.3770 C.3   488  HIS488      0.1621
    131  C          3.9660   42.7140   11.9330 C.2   488  HIS488      0.2264
    132  O          3.7480   41.6600   12.5320 O.2   488  HIS488     -0.2867
    133  CB         1.8240   43.9570   11.9030 C.3   488  HIS488      0.0745
    134  CG         0.9820   45.0420   12.4870 C.ar  488  HIS488      0.0817
    135  ND1        1.1820   46.3760   12.1990 N.ar  488  HIS488     -0.2268
    136  CD2       -0.0570   44.9970   13.3510 C.ar  488  HIS488      0.1154
    137  CE1        0.3020   47.1040   12.8630 C.ar  488  HIS488      0.1986
    138  NE2       -0.4670   46.2910   13.5600 N.ar  488  HIS488     -0.2212
    139  N         -2.7850   40.5650   11.3250 N.3   495  TYR495     -0.1241
    140  CA        -3.3280   41.7280   10.6090 C.3   495  TYR495      0.1605
    141  C         -4.7770   41.6330   10.1490 C.2   495  TYR495      0.2264
    142  O         -5.4250   42.6620    9.9830 O.2   495  TYR495     -0.2867
    143  CB        -2.4120   42.1030    9.4290 C.3   495  TYR495      0.0534
    144  CG        -2.3660   43.6030    9.2340 C.ar  495  TYR495     -0.0201
    145  CD1       -1.5740   44.3880   10.0630 C.ar  495  TYR495     -0.0009
    146  CD2       -3.1260   44.2240    8.2660 C.ar  495  TYR495     -0.0009
    147  CE1       -1.5190   45.7600    9.9220 C.ar  495  TYR495      0.0417
    148  CE2       -3.0790   45.6130    8.1140 C.ar  495  TYR495      0.0417
    149  CZ        -2.2860   46.3650    8.9470 C.ar  495  TYR495      0.1957
    150  OH        -2.2440   47.7350    8.8250 O.3   495  TYR495     -0.2866
    151  N         -7.6600   43.8100   11.4090 N.3   498  TYR498     -0.1241
    152  CA        -7.9300   45.1900   10.9650 C.3   498  TYR498      0.1605
    153  C         -8.9360   45.2250    9.8180 C.2   498  TYR498      0.2264
    154  O         -9.7930   46.1010    9.7880 O.2   498  TYR498     -0.2867
    155  CB        -6.6470   45.9160   10.5800 C.3   498  TYR498      0.0534
    156  CG        -5.6740   45.9630   11.7170 C.ar  498  TYR498     -0.0201
    157  CD1       -5.9640   46.7030   12.8750 C.ar  498  TYR498     -0.0009
    158  CD2       -4.5040   45.2280   11.6830 C.ar  498  TYR498     -0.0009
    159  CE1       -5.0860   46.7240   13.9390 C.ar  498  TYR498      0.0417
    160  CE2       -3.6210   45.2340   12.7440 C.ar  498  TYR498      0.0417
    161  CZ        -3.9040   45.9880   13.8650 C.ar  498  TYR498      0.1957
    162  OH        -3.0240   45.9840   14.9140 O.3   498  TYR498     -0.2866
    163  N        -12.5820   46.9790   10.2540 N.3   502  PHE502     -0.1241
    164  CA       -13.0340   48.0930    9.4260 C.3   502  PHE502      0.1605
    165  C        -14.4720   47.8840    8.9230 C.2   502  PHE502      0.2264
    166  O        -15.1780   48.8470    8.6770 O.2   502  PHE502     -0.2867
    167  CB       -12.0150   48.3930    8.3120 C.3   502  PHE502      0.0534
    168  CG       -10.9540   49.3770    8.7250 C.ar  502  PHE502     -0.0203
    169  CD1      -10.2720   49.2320    9.9370 C.ar  502  PHE502     -0.0042
    170  CD2      -10.6410   50.4670    7.9210 C.ar  502  PHE502     -0.0042
    171  CE1       -9.3100   50.1410   10.3290 C.ar  502  PHE502     -0.0003
    172  CE2       -9.6580   51.3730    8.3040 C.ar  502  PHE502     -0.0003
    173  CZ        -8.9870   51.2100    9.5120 C.ar  502  PHE502     -0.0000
@<TRIPOS>BOND
     1     4     3    2
     2   109   110    1
     3     9    10    1
     4     1     2    1
     5   111   112    2
     6   111   110    1
     7     3     2    1
     8    10    11    1
     9    10    13    1
    10    20    21    2
    11    20    19    1
    12   110   113    1
    13    24    25    1
    14    11    12    2
    15    11    18   am
    16     2     5    1
    17    18    19    1
    18    27    26    2
    19    26    25    1
    20   102   103    2
    21   102   101    1
    22    91    92    1
    23     5     6    1
    24    25    28    1
    25    19    22    1
    26     7     6   ar
    27    13    14    1
    28   113   114    1
    29     6     8   ar
    30   100   101    1
    31   100    93   am
    32   101   104    1
    33    92    93    1
    34    92    95    1
    35    93    94    2
    36    28    29    1
    37    22    23    1
    38    14    15    1
    39   104   105    1
    40   114   115   ar
    41   114   116   ar
    42    31    30   ar
    43   115   117   ar
    44   116   118   ar
    45    95    96    1
    46    29    30    1
    47    30    32   ar
    48    16    15    2
    49   124   125    1
    50   124   121    1
    51    15    17   am
    52   120   121    1
    53   117   119   ar
    54   105   106    1
    55   118   119   ar
    56   170   172   ar
    57   170   168   ar
    58   125   126    1
    59   148   146   ar
    60   148   149   ar
    61   126   127    1
    62   121   122    1
    63   146   144   ar
    64   172   173   ar
    65   167   168    1
    66   167   164    1
    67    96    97    1
    68   166   165    2
    69   168   169   ar
    70   106   107    1
    71   150   149    1
    72   165   164    1
    73   149   147   ar
    74   127   128    1
    75   144   143    1
    76   144   145   ar
    77    98    97   ar
    78   164   163    1
    79   143   140    1
    80   173   171   ar
    81    97    99   ar
    82   122   123    2
    83   154   153    2
    84   153   152    1
    85   147   145   ar
    86   169   171   ar
    87   142   141    2
    88   107   108    1
    89   141   140    1
    90   155   152    1
    91   155   156    1
    92   140   139    1
    93    49    48   ar
    94   152   151    1
    95    48    50   ar
    96    48    47    1
    97    47    44    1
    98   158   156   ar
    99   158   160   ar
   100   156   157   ar
   101   129   130    1
   102   133   130    1
   103   133   134    1
   104   131   130    1
   105   131   132    2
   106   135   134   ar
   107   135   137   ar
   108   134   136   ar
   109    44    43    1
   110    44    45    1
   111   160   161   ar
   112   137   138   ar
   113   157   159   ar
   114   136   138   ar
   115    90    88   ar
   116   161   159   ar
   117   161   162    1
   118    45    46    2
   119    56    55    1
   120    41    39   ar
   121    41    42   ar
   122    88    87    1
   123    88    89   ar
   124    39    38   ar
   125    55    52    1
   126    87    84    1
   127    62    61    1
   128    86    85    2
   129    42    40   ar
   130    38    40   ar
   131    38    37    1
   132    85    84    1
   133    84    83    1
   134    52    51    1
   135    52    53    1
   136    72    70   ar
   137    72    73   ar
   138    57    53   am
   139    57    58    1
   140    37    34    1
   141    61    58    1
   142    61    63    1
   143    70    69   ar
   144    53    54    2
   145    58    59    1
   146    73    71   ar
   147    34    33    1
   148    34    35    1
   149    69    68    1
   150    69    71   ar
   151    68    65    1
   152    35    36    2
   153    59    60    2
   154    65    64    1
   155    65    66    1
   156    82    80   ar
   157    66    67    2
   158    66    74   am
   159    80    79    1
   160    80    81   ar
   161    74    75    1
   162    79    78    1
   163    75    78    1
   164    75    76    1
   165    76    77    2
