@<TRIPOS>MOLECULE
tmp/5amdA00.pdb
 180 174 0 0 0
SMALL
GASTEIGER

@<TRIPOS>ATOM
      1  N         -3.4080    0.1980    3.5960 N.3    59  ASN59      -0.1240
      2  CA        -2.2890    1.0410    4.0640 C.3    59  ASN59       0.1653
      3  C         -1.0000    0.2640    4.3430 C.2    59  ASN59       0.2266
      4  O         -0.0420    0.8280    4.9090 O.2    59  ASN59      -0.2867
      5  CB        -2.7060    1.8910    5.2710 C.3    59  ASN59       0.1155
      6  CG        -3.0780    1.0470    6.4680 C.2    59  ASN59       0.2627
      7  OD1       -2.7160   -0.1200    6.5270 O.2    59  ASN59      -0.2716
      8  ND2       -3.8390    1.6140    7.3880 N.am   59  ASN59      -0.0877
      9  N         -0.7120   -2.2800    6.3990 N.3    61  HIS61      -0.1226
     10  CA        -0.8690   -3.0450    7.6740 C.3    61  HIS61       0.1752
     11  C         -2.2840   -3.5250    7.9290 C.2    61  HIS61       0.2595
     12  O         -2.4700   -4.4790    8.6740 O.2    61  HIS61      -0.2718
     13  CB        -0.3370   -2.3230    8.9340 C.3    61  HIS61       0.0759
     14  CG        -0.7260   -0.8850    9.0620 C.ar   61  HIS61       0.0818
     15  ND1       -1.8020   -0.4550    9.8170 N.ar   61  HIS61      -0.2268
     16  CD2       -0.1250    0.2340    8.5980 C.ar   61  HIS61       0.1154
     17  CE1       -1.8680    0.8620    9.7650 C.ar   61  HIS61       0.1986
     18  NE2       -0.8700    1.3010    9.0230 N.ar   61  HIS61      -0.2212
     19  N         -3.2780   -2.8920    7.3240 N.am   62  ALA62      -0.1980
     20  CA        -4.6770   -3.3110    7.3860 C.3    62  ALA62       0.1597
     21  C         -5.3680   -2.6180    6.2380 C.2    62  ALA62       0.2287
     22  O         -4.7060   -2.0170    5.4000 O.2    62  ALA62      -0.2864
     23  CB        -5.3070   -2.9400    8.7390 C.3    62  ALA62       0.0319
     24  N         -8.4220    0.3270    5.8330 N.3    64  ASN64      -0.1240
     25  CA        -9.2200    1.2720    6.5810 C.3    64  ASN64       0.1653
     26  C        -10.4090    1.6630    5.7410 C.2    64  ASN64       0.2266
     27  O        -10.2210    2.0690    4.5900 O.2    64  ASN64      -0.2867
     28  CB        -8.4400    2.5400    6.9180 C.3    64  ASN64       0.1155
     29  CG        -7.4530    2.3610    8.0350 C.2    64  ASN64       0.2627
     30  OD1       -7.3550    1.2890    8.6400 O.2    64  ASN64      -0.2716
     31  ND2       -6.6750    3.4080    8.3030 N.am   64  ASN64      -0.0877
     32  N        -13.9580    8.1560   12.6310 N.3    88  ILE88      -0.1231
     33  CA       -13.0370    8.5050   11.5380 C.3    88  ILE88       0.1692
     34  C        -12.7610    7.3330   10.6110 C.2    88  ILE88       0.2591
     35  O        -12.6860    7.4960    9.3900 O.2    88  ILE88      -0.2718
     36  CB       -11.7310    9.1710   12.0530 C.3    88  ILE88       0.0266
     37  CG1      -10.8000    9.4970   10.8810 C.3    88  ILE88       0.0019
     38  CG2      -11.0210    8.3220   13.0890 C.3    88  ILE88       0.0020
     39  CD1       -9.5540   10.2780   11.2720 C.3    88  ILE88       0.0001
     40  N        -12.5440    6.1450   11.1700 N.am   89  GLN89      -0.1979
     41  CA       -12.2990    4.9680   10.3260 C.3    89  GLN89       0.1601
     42  C        -12.5990    3.7050   11.1020 C.2    89  GLN89       0.2287
     43  O        -12.6790    3.7570   12.3420 O.2    89  GLN89      -0.2864
     44  CB       -10.8570    4.9350    9.7960 C.3    89  GLN89       0.0394
     45  CG        -9.7720    4.9310   10.8740 C.3    89  GLN89       0.0908
     46  CD        -9.1690    3.5610   11.1660 C.2    89  GLN89       0.2608
     47  OE1       -9.8440    2.5510   11.1230 O.2    89  GLN89      -0.2717
     48  NE2       -7.8930    3.5370   11.4520 N.am   89  GLN89      -0.0878
     49  N        -11.2390   -0.5610   10.8980 N.3    91  HIS91      -0.1241
     50  CA       -10.3890   -1.5700   10.2760 C.3    91  HIS91       0.1621
     51  C        -10.4520   -2.8270   11.1180 C.2    91  HIS91       0.2264
     52  O        -11.1180   -2.8530   12.1840 O.2    91  HIS91      -0.2867
     53  CB        -8.9450   -1.0870   10.2030 C.3    91  HIS91       0.0745
     54  CG        -8.3550   -0.8460   11.5380 C.ar   91  HIS91       0.0817
     55  ND1       -8.5700    0.3180   12.2140 N.ar   91  HIS91      -0.2268
     56  CD2       -7.6530   -1.6470   12.3700 C.ar   91  HIS91       0.1154
     57  CE1       -8.0000    0.2550   13.3990 C.ar   91  HIS91       0.1986
     58  NE2       -7.4470   -0.9340   13.5210 N.ar   91  HIS91      -0.2212
     59  N         -8.1530   -6.5490   12.4610 N.3    93  HIS93      -0.1241
     60  CA        -6.9490   -7.3790   12.6640 C.3    93  HIS93       0.1621
     61  C         -7.3610   -8.8350   12.5550 C.2    93  HIS93       0.2264
     62  O         -8.4110   -9.2060   13.0590 O.2    93  HIS93      -0.2867
     63  CB        -6.2580   -7.0960   14.0120 C.3    93  HIS93       0.0745
     64  CG        -6.0110   -5.6480   14.2640 C.ar   93  HIS93       0.0817
     65  ND1       -4.7760   -5.0840   14.0560 N.ar   93  HIS93      -0.2268
     66  CD2       -6.8380   -4.6360   14.6110 C.ar   93  HIS93       0.1154
     67  CE1       -4.8410   -3.7860   14.2860 C.ar   93  HIS93       0.1986
     68  NE2       -6.0830   -3.4910   14.6030 N.ar   93  HIS93      -0.2212
     69  N        -12.0860   -2.6940   14.8300 N.3   116  HIS116     -0.1241
     70  CA       -11.8440   -1.4750   15.5790 C.3   116  HIS116      0.1621
     71  C        -12.5080   -0.3180   14.8590 C.2   116  HIS116      0.2264
     72  O        -12.1200    0.0050   13.7320 O.2   116  HIS116     -0.2867
     73  CB       -10.3530   -1.1910   15.7100 C.3   116  HIS116      0.0745
     74  CG        -9.6600   -2.1750   16.5980 C.ar  116  HIS116      0.0817
     75  ND1       -8.2960   -2.3280   16.6370 N.ar  116  HIS116     -0.2268
     76  CD2      -10.1590   -3.0510   17.4990 C.ar  116  HIS116      0.1154
     77  CE1       -7.9790   -3.2620   17.5080 C.ar  116  HIS116      0.1986
     78  NE2       -9.0900   -3.7110   18.0520 N.ar  116  HIS116     -0.2212
     79  N        -12.7130    3.4650   15.1590 N.3   118  VAL118     -0.1245
     80  CA       -11.8880    4.5300   15.7750 C.3   118  VAL118      0.1561
     81  C        -12.6240    5.8530   15.7780 C.2   118  VAL118      0.2260
     82  O        -13.0620    6.3200   14.7360 O.2   118  VAL118     -0.2867
     83  CB       -10.5440    4.6820   15.0470 C.3   118  VAL118      0.0252
     84  CG1       -9.7080    5.7720   15.7040 C.3   118  VAL118      0.0019
     85  CG2       -9.8100    3.3550   14.9840 C.3   118  VAL118      0.0019
     86  N         -8.2290   15.1870   14.6040 N.3   127  PHE127     -0.1227
     87  CA        -7.7090   13.8740   14.9910 C.3   127  PHE127      0.1736
     88  C         -6.2550   13.9430   15.4230 C.2   127  PHE127      0.2596
     89  O         -5.8770   13.3340   16.4250 O.2   127  PHE127     -0.2718
     90  CB        -7.9070   12.8960   13.8160 C.3   127  PHE127      0.0547
     91  CG        -7.2750   11.5600   14.0220 C.ar  127  PHE127     -0.0202
     92  CD1       -7.9520   10.5460   14.7070 C.ar  127  PHE127     -0.0042
     93  CD2       -5.9900   11.3190   13.5620 C.ar  127  PHE127     -0.0042
     94  CE1       -7.3440    9.3220   14.9180 C.ar  127  PHE127     -0.0003
     95  CE2       -5.3930   10.0970   13.7640 C.ar  127  PHE127     -0.0003
     96  CZ        -6.0670    9.1110   14.4530 C.ar  127  PHE127     -0.0000
     97  N         -5.4220   14.6670   14.6600 N.am  128  GLY128     -0.1957
     98  CA        -4.0260   14.8230   14.9880 C.3   128  GLY128      0.1869
     99  C         -3.7770   15.4510   16.3550 C.2   128  GLY128      0.2309
    100  O         -2.8200   15.0950   17.0160 O.2   128  GLY128     -0.2863
    101  N         -4.9900   12.6910   19.2460 N.3   131  VAL131     -0.1245
    102  CA        -4.0610   11.5810   19.5810 C.3   131  VAL131      0.1561
    103  C         -2.9450   11.9850   20.5500 C.2   131  VAL131      0.2260
    104  O         -2.2670   11.1150   21.1070 O.2   131  VAL131     -0.2867
    105  CB        -3.4480   10.8730   18.3560 C.3   131  VAL131      0.0252
    106  CG1       -4.5410   10.2600   17.5110 C.3   131  VAL131      0.0019
    107  CG2       -2.5520   11.7840   17.5310 C.3   131  VAL131      0.0019
    108  N         -8.9800    9.5130   22.0100 N.3   137  LEU137     -0.1245
    109  CA        -9.6730    8.5630   21.1650 C.3   137  LEU137      0.1561
    110  C        -10.5260    7.6200   21.9780 C.2   137  LEU137      0.2260
    111  O        -10.2590    7.3490   23.1420 O.2   137  LEU137     -0.2867
    112  CB        -8.6780    7.7550   20.3550 C.3   137  LEU137      0.0270
    113  CG        -7.7700    8.4230   19.3270 C.3   137  LEU137      0.0019
    114  CD1       -7.0600    7.3770   18.4940 C.3   137  LEU137      0.0001
    115  CD2       -8.4120    9.4340   18.4150 C.3   137  LEU137      0.0001
    116  N        -11.9390    3.7640   21.0430 N.3   139  VAL139     -0.1245
    117  CA       -12.0020    2.7040   20.0610 C.3   139  VAL139      0.1561
    118  C        -12.9470    1.6340   20.5480 C.2   139  VAL139      0.2260
    119  O        -12.7820    1.0830   21.6480 O.2   139  VAL139     -0.2867
    120  CB       -10.6040    2.1100   19.7010 C.3   139  VAL139      0.0252
    121  CG1      -10.7440    1.0760   18.5790 C.3   139  VAL139      0.0019
    122  CG2       -9.6610    3.2030   19.2250 C.3   139  VAL139      0.0019
    123  N         -3.0300    3.1040   21.1730 N.3   194  LEU194     -0.1231
    124  CA        -3.0520    2.5770   19.8200 C.3   194  LEU194      0.1693
    125  C         -2.3240    1.2400   19.8510 C.2   194  LEU194      0.2593
    126  O         -1.3310    1.0770   20.5720 O.2   194  LEU194     -0.2718
    127  CB        -2.3170    3.5020   18.8670 C.3   194  LEU194      0.0284
    128  CG        -2.8790    4.9180   18.7570 C.3   194  LEU194      0.0019
    129  CD1       -2.0530    5.7430   17.7690 C.3   194  LEU194      0.0001
    130  CD2       -4.3350    4.9390   18.3030 C.3   194  LEU194      0.0001
    131  N         -2.7580    0.3000   19.0170 N.am  195  THR195     -0.1939
    132  CA        -2.0920   -1.0080   18.9770 C.3   195  THR195      0.2028
    133  C         -1.1110   -1.1020   17.8450 C.2   195  THR195      0.2643
    134  O         -0.4640   -2.1330   17.7060 O.2   195  THR195     -0.2714
    135  CB        -3.1080   -2.1540   18.8600 C.3   195  THR195      0.1808
    136  OG1       -3.7520   -2.0950   17.5820 O.3   195  THR195     -0.2208
    137  CG2       -4.1340   -2.0980   19.9910 C.3   195  THR195      0.0379
    138  N         -0.9600   -0.0320   17.0660 N.am  196  THR196     -0.1937
    139  CA         0.1140    0.0590   16.0620 C.3   196  THR196      0.2013
    140  C          0.9760    1.2580   16.3990 C.2   196  THR196      0.2484
    141  O          0.4970    2.2050   17.0230 O.2   196  THR196     -0.2729
    142  CB        -0.4540    0.3030   14.6470 C.3   196  THR196      0.1807
    143  OG1       -1.2390    1.4950   14.6330 O.3   196  THR196     -0.2208
    144  CG2       -1.3480   -0.8330   14.2470 C.3   196  THR196      0.0379
    145  N          2.2540    1.2550   15.9620 N.am  197  PRO197     -0.2715
    146  CA         3.0130    2.4980   16.0140 C.3   197  PRO197      0.1521
    147  C          2.1680    3.6650   15.4860 C.2   197  PRO197      0.2440
    148  O          1.4550    3.4850   14.4710 O.2   197  PRO197     -0.2731
    149  CB         4.1790    2.1960   15.0890 C.3   197  PRO197      0.0310
    150  CG         4.4140    0.7530   15.3160 C.3   197  PRO197      0.0237
    151  CD         3.0280    0.1760   15.3320 C.3   197  PRO197      0.0939
    152  N          2.1980    4.8220   16.1350 N.am  198  PRO198     -0.2727
    153  CA         3.1440    5.2210   17.1920 C.3   198  PRO198      0.1402
    154  C          2.7920    4.8280   18.6420 C.2   198  PRO198      0.2269
    155  O          3.4350    5.2850   19.5730 O.2   198  PRO198     -0.2865
    156  CB         3.1830    6.7460   17.0340 C.3   198  PRO198      0.0296
    157  CG         1.8470    7.0920   16.5100 C.3   198  PRO198      0.0237
    158  CD         1.4190    5.9710   15.6360 C.3   198  PRO198      0.0939
    159  N          0.5450    5.4780   20.7760 N.3   200  LEU200     -0.1245
    160  CA         0.2110    6.5750   21.6560 C.3   200  LEU200      0.1561
    161  C         -0.8200    6.1790   22.6830 C.2   200  LEU200      0.2260
    162  O         -1.7900    5.4840   22.3620 O.2   200  LEU200     -0.2867
    163  CB        -0.2970    7.7850   20.8570 C.3   200  LEU200      0.0270
    164  CG         0.7050    8.3790   19.8740 C.3   200  LEU200      0.0019
    165  CD1        0.0200    9.2640   18.8590 C.3   200  LEU200      0.0001
    166  CD2        1.8010    9.1010   20.6300 C.3   200  LEU200      0.0001
    167  N        -10.5570    2.3190   25.5740 N.3   205  TRP205     -0.1241
    168  CA       -10.9860    1.1000   24.8880 C.3   205  TRP205      0.1605
    169  C        -12.3440    0.6810   25.4080 C.2   205  TRP205      0.2264
    170  O        -12.5590    0.6550   26.6100 O.2   205  TRP205     -0.2867
    171  CB        -9.9840   -0.0490   25.0780 C.3   205  TRP205      0.0550
    172  CG        -8.8870    0.0750   24.1170 C.ar  205  TRP205      0.0003
    173  CD1       -7.6870    0.6730   24.3160 C.ar  205  TRP205      0.0946
    174  CD2       -8.9240   -0.3240   22.7510 C.ar  205  TRP205      0.0152
    175  NE1       -6.9650    0.6720   23.1430 N.ar  205  TRP205     -0.2442
    176  CE2       -7.6900    0.0280   22.1770 C.ar  205  TRP205      0.0810
    177  CE3       -9.8700   -0.9940   21.9670 C.ar  205  TRP205      0.0012
    178  CZ2       -7.3850   -0.2400   20.8400 C.ar  205  TRP205      0.0191
    179  CZ3       -9.5630   -1.2800   20.6560 C.ar  205  TRP205      0.0001
    180  CH2       -8.3450   -0.9040   20.1050 C.ar  205  TRP205      0.0015
@<TRIPOS>BOND
     1     1     2    1
     2     2     3    1
     3     2     5    1
     4     3     4    2
     5    27    26    2
     6     5     6    1
     7    22    21    2
     8    26    25    1
     9    24    25    1
    10    21    20    1
    11     9    10    1
    12     6     7    2
    13     6     8   am
    14    25    28    1
    15    28    29    1
    16    19    20    1
    17    19    11   am
    18    20    23    1
    19    10    11    1
    20    10    13    1
    21    11    12    2
    22    29    31   am
    23    29    30    2
    24    16    18   ar
    25    16    14   ar
    26    13    14    1
    27    18    17   ar
    28    14    15   ar
    29    35    34    2
    30    17    15   ar
    31    44    41    1
    32    44    45    1
    33    53    50    1
    34    53    54    1
    35    50    49    1
    36    50    51    1
    37    41    42    1
    38    41    40    1
    39    34    40   am
    40    34    33    1
    41    45    46    1
    42    37    39    1
    43    37    36    1
    44    42    43    2
    45    51    52    2
    46    47    46    2
    47    46    48   am
    48    54    55   ar
    49    54    56   ar
    50    33    36    1
    51    33    32    1
    52    36    38    1
    53    55    57   ar
    54    56    58   ar
    55    59    60    1
    56    61    60    1
    57    61    62    2
    58    60    63    1
    59    57    58   ar
    60    93    95   ar
    61    93    91   ar
    62    72    71    2
    63    95    96   ar
    64    90    91    1
    65    90    87    1
    66    63    64    1
    67    91    92   ar
    68    65    64   ar
    69    65    67   ar
    70   144   142    1
    71    64    66   ar
    72    67    68   ar
    73    96    94   ar
    74   148   147    2
    75    68    66   ar
    76    86    87    1
    77   143   142    1
    78   142   139    1
    79    97    98    1
    80    97    88   am
    81    92    94   ar
    82    82    81    2
    83    69    70    1
    84    71    70    1
    85    85    83    1
    86    98    99    1
    87    87    88    1
    88    83    84    1
    89    83    80    1
    90   149   150    1
    91   149   146    1
    92    79    80    1
    93   150   151    1
    94   151   145    1
    95    88    89    2
    96   147   146    1
    97   147   152   am
    98    70    73    1
    99   158   152    1
   100   158   157    1
   101    73    74    1
   102    80    81    1
   103   145   146    1
   104   145   140   am
   105   139   140    1
   106   139   138    1
   107   152   153    1
   108    99   100    2
   109   140   141    2
   110   157   156    1
   111    74    75   ar
   112    74    76   ar
   113    75    77   ar
   114   156   153    1
   115   138   133   am
   116   153   154    1
   117    76    78   ar
   118    77    78   ar
   119   106   105    1
   120   107   105    1
   121   136   135    1
   122   134   133    2
   123   129   128    1
   124   133   132    1
   125   130   128    1
   126   105   102    1
   127   115   113    1
   128   114   113    1
   129   121   120    1
   130   154   155    2
   131   128   127    1
   132   165   164    1
   133   135   132    1
   134   135   137    1
   135   127   124    1
   136   132   131    1
   137   131   125   am
   138   122   120    1
   139   101   102    1
   140   113   112    1
   141   102   103    1
   142   120   117    1
   143   124   125    1
   144   124   123    1
   145   125   126    2
   146   164   166    1
   147   164   163    1
   148   117   118    1
   149   117   116    1
   150   180   179   ar
   151   180   178   ar
   152   112   109    1
   153   118   119    2
   154   103   104    2
   155   179   177   ar
   156   159   160    1
   157   178   176   ar
   158   163   160    1
   159   109   110    1
   160   109   108    1
   161   160   161    1
   162   177   174   ar
   163   110   111    2
   164   176   174   ar
   165   176   175   ar
   166   162   161    2
   167   174   172   ar
   168   175   173   ar
   169   172   173   ar
   170   172   171    1
   171   168   171    1
   172   168   169    1
   173   168   167    1
   174   169   170    2
