@<TRIPOS>MOLECULE
tmp/5amlA00.pdb
 170 163 0 0 0
SMALL
GASTEIGER

@<TRIPOS>ATOM
      1  N         -3.4010    0.1570    3.6010 N.3    59  ASN59      -0.1240
      2  CA        -2.2690    0.9900    4.0480 C.3    59  ASN59       0.1653
      3  C         -0.9840    0.1990    4.2830 C.2    59  ASN59       0.2266
      4  O         -0.0100    0.7500    4.8010 O.2    59  ASN59      -0.2867
      5  CB        -2.6270    1.8370    5.2570 C.3    59  ASN59       0.1155
      6  CG        -2.9610    1.0090    6.4520 C.2    59  ASN59       0.2627
      7  OD1       -2.6270   -0.1730    6.5300 O.2    59  ASN59      -0.2716
      8  ND2       -3.6760    1.5860    7.3580 N.am   59  ASN59      -0.0877
      9  N         -3.2670   -2.9470    7.2780 N.3    62  ALA62      -0.1245
     10  CA        -4.6490   -3.3680    7.3340 C.3    62  ALA62       0.1562
     11  C         -5.3590   -2.6470    6.1870 C.2    62  ALA62       0.2260
     12  O         -4.6950   -2.0320    5.3630 O.2    62  ALA62      -0.2867
     13  CB        -5.2480   -3.0560    8.7070 C.3    62  ALA62       0.0290
     14  N         -8.3850    0.3290    5.8540 N.3    64  ASN64      -0.1240
     15  CA        -9.2020    1.2760    6.5720 C.3    64  ASN64       0.1653
     16  C        -10.3860    1.6950    5.7280 C.2    64  ASN64       0.2266
     17  O        -10.2080    2.1220    4.5830 O.2    64  ASN64      -0.2867
     18  CB        -8.4100    2.5600    6.9140 C.3    64  ASN64       0.1155
     19  CG        -7.4110    2.3750    7.9670 C.2    64  ASN64       0.2627
     20  OD1       -7.3530    1.3190    8.6140 O.2    64  ASN64      -0.2716
     21  ND2       -6.5860    3.3790    8.1470 N.am   64  ASN64      -0.0877
     22  N        -13.8890    8.1980   12.6330 N.3    88  ILE88      -0.1231
     23  CA       -12.9500    8.5560   11.5600 C.3    88  ILE88       0.1692
     24  C        -12.6920    7.3660   10.6380 C.2    88  ILE88       0.2591
     25  O        -12.6090    7.5400    9.4010 O.2    88  ILE88      -0.2718
     26  CB       -11.6520    9.1940   12.0790 C.3    88  ILE88       0.0266
     27  CG1      -10.6990    9.5170   10.9140 C.3    88  ILE88       0.0019
     28  CG2      -10.9160    8.3670   13.1410 C.3    88  ILE88       0.0020
     29  CD1       -9.5770   10.4500   11.3040 C.3    88  ILE88       0.0001
     30  N        -12.5620    6.1510   11.1930 N.am   89  GLN89      -0.1979
     31  CA       -12.2970    5.0070   10.3320 C.3    89  GLN89       0.1601
     32  C        -12.5930    3.7420   11.0880 C.2    89  GLN89       0.2287
     33  O        -12.6000    3.7660   12.3500 O.2    89  GLN89      -0.2864
     34  CB       -10.8320    4.9630    9.8550 C.3    89  GLN89       0.0394
     35  CG        -9.7530    4.9280   10.9440 C.3    89  GLN89       0.0908
     36  CD        -9.1330    3.5550   11.1570 C.2    89  GLN89       0.2608
     37  OE1       -9.8030    2.5400   11.1580 O.2    89  GLN89      -0.2717
     38  NE2       -7.8370    3.5250   11.3890 N.am   89  GLN89      -0.0878
     39  N        -11.2080   -0.5460   10.8770 N.3    91  HIS91      -0.1241
     40  CA       -10.3450   -1.5670   10.2830 C.3    91  HIS91       0.1621
     41  C        -10.3970   -2.8290   11.1170 C.2    91  HIS91       0.2264
     42  O        -11.0770   -2.8540   12.1530 O.2    91  HIS91      -0.2867
     43  CB        -8.9180   -1.0590   10.2160 C.3    91  HIS91       0.0745
     44  CG        -8.3340   -0.8290   11.5600 C.ar   91  HIS91       0.0817
     45  ND1       -8.5780    0.3180   12.2710 N.ar   91  HIS91      -0.2268
     46  CD2       -7.6270   -1.6280   12.3930 C.ar   91  HIS91       0.1154
     47  CE1       -8.0280    0.2270   13.4650 C.ar   91  HIS91       0.1986
     48  NE2       -7.4430   -0.9440   13.5730 N.ar   91  HIS91      -0.2212
     49  N         -8.1380   -6.5220   12.4560 N.3    93  HIS93      -0.1241
     50  CA        -6.9330   -7.3450   12.6330 C.3    93  HIS93       0.1621
     51  C         -7.3680   -8.7980   12.5280 C.2    93  HIS93       0.2264
     52  O         -8.4270   -9.1620   13.0170 O.2    93  HIS93      -0.2867
     53  CB        -6.2700   -7.1030   13.9850 C.3    93  HIS93       0.0745
     54  CG        -6.0080   -5.6510   14.2370 C.ar   93  HIS93       0.0817
     55  ND1       -4.7840   -5.1030   14.0140 N.ar   93  HIS93      -0.2268
     56  CD2       -6.8250   -4.6420   14.6140 C.ar   93  HIS93       0.1154
     57  CE1       -4.8490   -3.8040   14.2590 C.ar   93  HIS93       0.1986
     58  NE2       -6.0780   -3.5060   14.6300 N.ar   93  HIS93      -0.2212
     59  N        -12.0570   -2.7020   14.7940 N.3   116  HIS116     -0.1241
     60  CA       -11.8350   -1.4740   15.5380 C.3   116  HIS116      0.1621
     61  C        -12.4850   -0.2960   14.8630 C.2   116  HIS116      0.2264
     62  O        -12.1050    0.0100   13.7290 O.2   116  HIS116     -0.2867
     63  CB       -10.3330   -1.2320   15.6610 C.3   116  HIS116      0.0745
     64  CG        -9.6450   -2.1870   16.5840 C.ar  116  HIS116      0.0817
     65  ND1       -8.2690   -2.3590   16.5960 N.ar  116  HIS116     -0.2268
     66  CD2      -10.1690   -3.0520   17.4910 C.ar  116  HIS116      0.1154
     67  CE1       -7.9940   -3.2980   17.4950 C.ar  116  HIS116      0.1986
     68  NE2       -9.1190   -3.6900   18.0650 N.ar  116  HIS116     -0.2212
     69  N        -12.6610    3.5320   15.1680 N.3   118  VAL118     -0.1245
     70  CA       -11.8510    4.5640   15.7950 C.3   118  VAL118      0.1561
     71  C        -12.5810    5.8840   15.7930 C.2   118  VAL118      0.2260
     72  O        -13.0550    6.3440   14.7320 O.2   118  VAL118     -0.2867
     73  CB       -10.5100    4.7230   15.0420 C.3   118  VAL118      0.0252
     74  CG1       -9.6580    5.7810   15.7230 C.3   118  VAL118      0.0019
     75  CG2       -9.7780    3.3920   14.9350 C.3   118  VAL118      0.0019
     76  N         -8.2740   15.2530   14.7060 N.3   127  PHE127     -0.1227
     77  CA        -7.7090   13.9620   15.0740 C.3   127  PHE127      0.1736
     78  C         -6.2750   14.0940   15.5430 C.2   127  PHE127      0.2596
     79  O         -5.8550   13.4460   16.5090 O.2   127  PHE127     -0.2718
     80  CB        -7.8500   12.9760   13.8830 C.3   127  PHE127      0.0547
     81  CG        -7.1800   11.6620   14.1120 C.ar  127  PHE127     -0.0202
     82  CD1       -7.8580   10.6250   14.7130 C.ar  127  PHE127     -0.0042
     83  CD2       -5.8660   11.4940   13.7540 C.ar  127  PHE127     -0.0042
     84  CE1       -7.2190    9.4430   14.9500 C.ar  127  PHE127     -0.0003
     85  CE2       -5.2080   10.3160   14.0360 C.ar  127  PHE127     -0.0003
     86  CZ        -5.9130    9.3080   14.5880 C.ar  127  PHE127     -0.0000
     87  N         -5.4770   14.8190   14.7610 N.am  128  GLY128     -0.1957
     88  CA        -4.0790   14.9700   15.1050 C.3   128  GLY128      0.1869
     89  C         -3.7980   15.5610   16.4830 C.2   128  GLY128      0.2309
     90  O         -2.8270   15.2220   17.1420 O.2   128  GLY128     -0.2863
     91  N         -4.9430   12.7600   19.2770 N.3   131  VAL131     -0.1245
     92  CA        -4.0380   11.6420   19.6090 C.3   131  VAL131      0.1561
     93  C         -2.9360   12.0400   20.5810 C.2   131  VAL131      0.2260
     94  O         -2.2710   11.1500   21.1330 O.2   131  VAL131     -0.2867
     95  CB        -3.3650   10.9730   18.4210 C.3   131  VAL131      0.0252
     96  CG1       -4.4090   10.3150   17.5520 C.3   131  VAL131      0.0019
     97  CG2       -2.4420   11.8850   17.6570 C.3   131  VAL131      0.0019
     98  N         -8.9510    9.5560   22.0510 N.3   137  LEU137     -0.1245
     99  CA        -9.6270    8.5660   21.2010 C.3   137  LEU137      0.1561
    100  C        -10.4820    7.6310   21.9970 C.2   137  LEU137      0.2260
    101  O        -10.1890    7.3470   23.1500 O.2   137  LEU137     -0.2867
    102  CB        -8.6480    7.7560   20.3980 C.3   137  LEU137      0.0270
    103  CG        -7.8020    8.3940   19.3070 C.3   137  LEU137      0.0019
    104  CD1       -7.0110    7.3570   18.5430 C.3   137  LEU137      0.0001
    105  CD2       -8.4130    9.4200   18.4210 C.3   137  LEU137      0.0001
    106  N        -11.9460    3.7630   21.0190 N.3   139  VAL139     -0.1245
    107  CA       -11.9460    2.6910   20.0300 C.3   139  VAL139      0.1561
    108  C        -12.8970    1.6210   20.4950 C.2   139  VAL139      0.2260
    109  O        -12.7960    1.1430   21.6250 O.2   139  VAL139     -0.2867
    110  CB       -10.5430    2.1320   19.6560 C.3   139  VAL139      0.0252
    111  CG1      -10.7250    1.1100   18.5290 C.3   139  VAL139      0.0019
    112  CG2       -9.6080    3.2360   19.2200 C.3   139  VAL139      0.0019
    113  N         -2.9860    3.1140   21.2260 N.3   194  LEU194     -0.1231
    114  CA        -3.0190    2.5510   19.8790 C.3   194  LEU194      0.1693
    115  C         -2.2750    1.2210   19.8990 C.2   194  LEU194      0.2593
    116  O         -1.3070    1.0590   20.6040 O.2   194  LEU194     -0.2718
    117  CB        -2.3010    3.4920   18.9150 C.3   194  LEU194      0.0284
    118  CG        -2.8580    4.9160   18.7900 C.3   194  LEU194      0.0019
    119  CD1       -1.9450    5.7490   17.8670 C.3   194  LEU194      0.0001
    120  CD2       -4.2470    4.8710   18.2110 C.3   194  LEU194      0.0001
    121  N         -2.7050    0.2930   19.0810 N.am  195  THR195     -0.1939
    122  CA        -2.0680   -1.0130   18.9740 C.3   195  THR195      0.2028
    123  C         -1.0940   -1.1240   17.8330 C.2   195  THR195      0.2643
    124  O         -0.4870   -2.1740   17.6800 O.2   195  THR195     -0.2714
    125  CB        -3.0810   -2.1540   18.8750 C.3   195  THR195      0.1808
    126  OG1       -3.7340   -2.0990   17.5960 O.3   195  THR195     -0.2208
    127  CG2       -4.0770   -2.1400   20.0150 C.3   195  THR195      0.0379
    128  N         -0.9050   -0.0050   17.1020 N.am  196  THR196     -0.1937
    129  CA         0.1240    0.0680   16.0690 C.3   196  THR196      0.2013
    130  C          0.9760    1.2670   16.4100 C.2   196  THR196      0.2484
    131  O          0.4850    2.2410   17.0070 O.2   196  THR196     -0.2729
    132  CB        -0.4760    0.2500   14.6690 C.3   196  THR196      0.1807
    133  OG1       -1.2600    1.4460   14.6210 O.3   196  THR196     -0.2208
    134  CG2       -1.3500   -0.8950   14.2820 C.3   196  THR196      0.0379
    135  N          2.2350    1.2920   15.9090 N.am  197  PRO197     -0.2715
    136  CA         2.9730    2.5420   15.9380 C.3   197  PRO197      0.1521
    137  C          2.1410    3.7200   15.4270 C.2   197  PRO197      0.2440
    138  O          1.4220    3.5740   14.4190 O.2   197  PRO197     -0.2731
    139  CB         4.1850    2.2600   15.0570 C.3   197  PRO197      0.0310
    140  CG         4.4080    0.8170   15.3030 C.3   197  PRO197      0.0237
    141  CD         3.0370    0.2240   15.3240 C.3   197  PRO197      0.0939
    142  N          2.1330    4.8610   16.1270 N.am  198  PRO198     -0.2727
    143  CA         3.1160    5.2590   17.1450 C.3   198  PRO198      0.1402
    144  C          2.7760    4.8450   18.5900 C.2   198  PRO198      0.2269
    145  O          3.4380    5.3190   19.5240 O.2   198  PRO198     -0.2865
    146  CB         3.1310    6.7940   17.0180 C.3   198  PRO198      0.0296
    147  CG         1.7780    7.1320   16.5360 C.3   198  PRO198      0.0237
    148  CD         1.3870    6.0290   15.6040 C.3   198  PRO198      0.0939
    149  N          0.5840    5.4840   20.8040 N.3   200  LEU200     -0.1245
    150  CA         0.2790    6.5750   21.6950 C.3   200  LEU200      0.1561
    151  C         -0.7800    6.1990   22.7180 C.2   200  LEU200      0.2260
    152  O         -1.7330    5.4660   22.4010 O.2   200  LEU200     -0.2867
    153  CB        -0.2010    7.7940   20.8890 C.3   200  LEU200      0.0270
    154  CG         0.7980    8.3890   19.9480 C.3   200  LEU200      0.0019
    155  CD1        0.1180    9.4180   19.0480 C.3   200  LEU200      0.0001
    156  CD2        1.9530    9.0070   20.6940 C.3   200  LEU200      0.0001
    157  N        -10.4990    2.3220   25.5500 N.3   205  TRP205     -0.1241
    158  CA       -10.9850    1.1090   24.8910 C.3   205  TRP205      0.1605
    159  C        -12.3360    0.6890   25.3950 C.2   205  TRP205      0.2264
    160  O        -12.5670    0.6410   26.5920 O.2   205  TRP205     -0.2867
    161  CB        -9.9480   -0.0450   25.0800 C.3   205  TRP205      0.0550
    162  CG        -8.8370    0.0570   24.1030 C.ar  205  TRP205      0.0003
    163  CD1       -7.6280    0.6240   24.3010 C.ar  205  TRP205      0.0946
    164  CD2       -8.8840   -0.3430   22.7280 C.ar  205  TRP205      0.0152
    165  NE1       -6.8920    0.5900   23.1290 N.ar  205  TRP205     -0.2442
    166  CE2       -7.6690    0.0060   22.1530 C.ar  205  TRP205      0.0810
    167  CE3       -9.8450   -0.9770   21.9370 C.ar  205  TRP205      0.0012
    168  CZ2       -7.3960   -0.2530   20.7970 C.ar  205  TRP205      0.0191
    169  CZ3       -9.5500   -1.2580   20.6270 C.ar  205  TRP205      0.0001
    170  CH2       -8.3630   -0.9050   20.0740 C.ar  205  TRP205      0.0015
@<TRIPOS>BOND
     1     1     2    1
     2     2     3    1
     3     2     5    1
     4     3     4    2
     5    17    16    2
     6     5     6    1
     7    12    11    2
     8    16    15    1
     9    14    15    1
    10    11    10    1
    11     6     7    2
    12     6     8   am
    13    15    18    1
    14    18    19    1
    15     9    10    1
    16    10    13    1
    17    19    21   am
    18    19    20    2
    19    25    24    2
    20    34    31    1
    21    34    35    1
    22    43    40    1
    23    43    44    1
    24    40    39    1
    25    40    41    1
    26    31    32    1
    27    31    30    1
    28    24    30   am
    29    24    23    1
    30    27    29    1
    31    27    26    1
    32    35    36    1
    33    32    33    2
    34    41    42    2
    35    36    37    2
    36    36    38   am
    37    44    45   ar
    38    44    46   ar
    39    23    26    1
    40    23    22    1
    41    26    28    1
    42    45    47   ar
    43    46    48   ar
    44    49    50    1
    45    51    50    1
    46    51    52    2
    47    50    53    1
    48    47    48   ar
    49    62    61    2
    50    83    85   ar
    51    83    81   ar
    52    80    81    1
    53    80    77    1
    54    53    54    1
    55    55    54   ar
    56    55    57   ar
    57    85    86   ar
    58    81    82   ar
    59    54    56   ar
    60    57    58   ar
    61   134   132    1
    62   138   137    2
    63    86    84   ar
    64    56    58   ar
    65   133   132    1
    66   132   129    1
    67    76    77    1
    68    82    84   ar
    69    72    71    2
    70    87    88    1
    71    87    78   am
    72    59    60    1
    73    61    60    1
    74    75    73    1
    75    73    74    1
    76    73    70    1
    77   139   140    1
    78   139   136    1
    79    77    78    1
    80    88    89    1
    81    69    70    1
    82   140   141    1
    83   141   135    1
    84   137   136    1
    85   137   142   am
    86    60    63    1
    87    78    79    2
    88   148   142    1
    89   148   147    1
    90    63    64    1
    91    71    70    1
    92   135   136    1
    93   135   130   am
    94   129   130    1
    95   129   128    1
    96   142   143    1
    97   130   131    2
    98    89    90    2
    99   147   146    1
   100    64    65   ar
   101    64    66   ar
   102    65    67   ar
   103   146   143    1
   104   128   123   am
   105   143   144    1
   106    66    68   ar
   107    67    68   ar
   108    96    95    1
   109   126   125    1
   110    97    95    1
   111   124   123    2
   112   123   122    1
   113   119   118    1
   114   120   118    1
   115    95    92    1
   116   105   103    1
   117   111   110    1
   118   104   103    1
   119   144   145    2
   120   118   117    1
   121   125   122    1
   122   125   127    1
   123   117   114    1
   124   122   121    1
   125   155   154    1
   126   121   115   am
   127   112   110    1
   128    91    92    1
   129   103   102    1
   130    92    93    1
   131   110   107    1
   132   114   115    1
   133   114   113    1
   134   115   116    2
   135   154   156    1
   136   154   153    1
   137   107   108    1
   138   107   106    1
   139   170   169   ar
   140   170   168   ar
   141   102    99    1
   142   108   109    2
   143    93    94    2
   144   169   167   ar
   145   168   166   ar
   146   149   150    1
   147   153   150    1
   148    99   100    1
   149    99    98    1
   150   150   151    1
   151   167   164   ar
   152   100   101    2
   153   166   164   ar
   154   166   165   ar
   155   152   151    2
   156   164   162   ar
   157   165   163   ar
   158   162   163   ar
   159   162   161    1
   160   158   161    1
   161   158   159    1
   162   158   157    1
   163   159   160    2
