@<TRIPOS>MOLECULE
tmp/5amnA00.pdb
 152 143 0 0 0
SMALL
GASTEIGER

@<TRIPOS>ATOM
      1  N         77.9010   -8.5860    5.0490 N.3    29  LEU29      -0.1231
      2  CA        78.3060   -8.9210    6.4070 C.3    29  LEU29       0.1693
      3  C         78.7210  -10.3820    6.5030 C.2    29  LEU29       0.2592
      4  O         79.4640  -10.7660    7.4010 O.2    29  LEU29      -0.2718
      5  CB        77.1750   -8.6360    7.3910 C.3    29  LEU29       0.0284
      6  CG        76.7650   -7.1760    7.5770 C.3    29  LEU29       0.0019
      7  CD1       75.4850   -7.0910    8.3880 C.3    29  LEU29       0.0001
      8  CD2       77.8790   -6.4010    8.2570 C.3    29  LEU29       0.0001
      9  N         78.2340  -11.1890    5.5660 N.am   30  GLY30      -0.1957
     10  CA        78.4960  -12.6150    5.5580 C.3    30  GLY30       0.1869
     11  C         77.9110  -13.2690    4.3210 C.2    30  GLY30       0.2309
     12  O         76.8890  -12.8260    3.8010 O.2    30  GLY30      -0.2863
     13  N         74.0750  -12.2480    3.8160 N.3    37  VAL37      -0.1245
     14  CA        73.4830  -11.2580    4.6990 C.3    37  VAL37       0.1561
     15  C         74.2080   -9.9300    4.5040 C.2    37  VAL37       0.2260
     16  O         75.4370   -9.8750    4.4790 O.2    37  VAL37      -0.2867
     17  CB        73.5510  -11.6980    6.1680 C.3    37  VAL37       0.0252
     18  CG1       73.0460  -10.5960    7.0850 C.3    37  VAL37       0.0019
     19  CG2       72.7500  -12.9680    6.3640 C.3    37  VAL37       0.0019
     20  N         69.7780   -5.6140    9.2450 N.3    55  ALA55      -0.1245
     21  CA        70.4380   -6.6220    8.4270 C.3    55  ALA55       0.1562
     22  C         69.4480   -7.1680    7.4110 C.2    55  ALA55       0.2260
     23  O         68.2520   -7.2390    7.6820 O.2    55  ALA55      -0.2867
     24  CB        70.9970   -7.7360    9.2860 C.3    55  ALA55       0.0290
     25  N         68.8560  -10.4070    4.5730 N.3    57  LYS57      -0.1245
     26  CA        69.2800  -11.6650    3.9670 C.3    57  LYS57       0.1561
     27  C         68.6350  -11.8670    2.6090 C.2    57  LYS57       0.2260
     28  O         67.4300  -11.6850    2.4450 O.2    57  LYS57      -0.2867
     29  CB        68.9490  -12.8570    4.8640 C.3    57  LYS57       0.0271
     30  CG        69.2270  -14.1890    4.1840 C.3    57  LYS57       0.0035
     31  CD        68.9980  -15.3690    5.1060 C.3    57  LYS57       0.0206
     32  CE        70.0790  -15.4700    6.1580 C.3    57  LYS57       0.1093
     33  NZ        69.9490  -16.7330    6.9290 N.3    57  LYS57      -0.1314
     34  N         62.6290  -19.7690    6.5150 N.3    74  GLU74      -0.1245
     35  CA        63.1360  -18.9240    7.5880 C.3    74  GLU74       0.1567
     36  C         62.1950  -17.7590    7.8650 C.2    74  GLU74       0.2260
     37  O         61.9530  -17.4070    9.0210 O.2    74  GLU74      -0.2867
     38  CB        64.5280  -18.3990    7.2500 C.3    74  GLU74       0.0388
     39  CG        64.9600  -17.2490    8.1310 C.3    74  GLU74       0.1160
     40  CD        66.4340  -17.2860    8.4650 C.2    74  GLU74       0.3649
     41  OE1       67.2630  -17.0660    7.5570 O.co2  74  GLU74      -0.2457
     42  OE2       66.7580  -17.5390    9.6410 O.co2  74  GLU74      -0.2457
     43  N         60.2040  -17.0780   11.4190 N.3    78  LEU78      -0.1245
     44  CA        60.4910  -15.8200   12.1050 C.3    78  LEU78       0.1561
     45  C         59.2460  -14.9700   12.3520 C.2    78  LEU78       0.2260
     46  O         59.2180  -14.1550   13.2730 O.2    78  LEU78      -0.2867
     47  CB        61.5200  -15.0170   11.3090 C.3    78  LEU78       0.0270
     48  CG        62.9320  -15.6000   11.3430 C.3    78  LEU78       0.0019
     49  CD1       63.8890  -14.7560   10.5170 C.3    78  LEU78       0.0001
     50  CD2       63.4110  -15.7130   12.7810 C.3    78  LEU78       0.0001
     51  N         66.3680  -13.8410   17.1090 N.3    87  ILE87      -0.1245
     52  CA        66.4850  -12.6800   16.2330 C.3    87  ILE87       0.1561
     53  C         65.1030  -12.1700   15.8390 C.2    87  ILE87       0.2260
     54  O         64.1490  -12.9430   15.7560 O.2    87  ILE87      -0.2867
     55  CB        67.3010  -12.9980   14.9690 C.3    87  ILE87       0.0252
     56  CG1       67.7870  -11.7070   14.3130 C.3    87  ILE87       0.0019
     57  CG2       66.4810  -13.8240   13.9970 C.3    87  ILE87       0.0019
     58  CD1       68.7120  -11.9280   13.1510 C.3    87  ILE87       0.0001
     59  N         64.8900  -10.5020    3.3680 N.3   101  LEU101     -0.1245
     60  CA        64.4620  -10.5740    4.7600 C.3   101  LEU101      0.1561
     61  C         65.1050   -9.4630    5.5790 C.2   101  LEU101      0.2260
     62  O         66.3190   -9.2550    5.5160 O.2   101  LEU101     -0.2867
     63  CB        64.8120  -11.9330    5.3630 C.3   101  LEU101      0.0270
     64  CG        63.7400  -13.0140    5.2660 C.3   101  LEU101      0.0019
     65  CD1       63.1430  -13.0350    3.8740 C.3   101  LEU101      0.0001
     66  CD2       64.3280  -14.3700    5.6190 C.3   101  LEU101      0.0001
     67  N         65.8130   -7.9670    9.3260 N.3   103  VAL103     -0.1231
     68  CA        65.8640   -8.2450   10.7590 C.3   103  VAL103      0.1692
     69  C         66.6290   -7.1570   11.5160 C.2   103  VAL103      0.2592
     70  O         67.3350   -6.3520   10.9140 O.2   103  VAL103     -0.2718
     71  CB        66.5310   -9.6120   11.0520 C.3   103  VAL103      0.0266
     72  CG1       65.8490  -10.7230   10.2720 C.3   103  VAL103      0.0020
     73  CG2       68.0150   -9.5650   10.7250 C.3   103  VAL103      0.0020
     74  N         66.4860   -7.1480   12.8380 N.am  104  GLU104     -0.1966
     75  CA        67.2380   -6.2430   13.7000 C.3   104  GLU104      0.1733
     76  C         68.7330   -6.4920   13.5880 C.2   104  GLU104      0.2616
     77  O         69.1890   -7.6270   13.6610 O.2   104  GLU104     -0.2715
     78  CB        66.8010   -6.4040   15.1540 C.3   104  GLU104      0.0429
     79  CG        66.8600   -7.8450   15.6330 C.3   104  GLU104      0.1163
     80  CD        66.8230   -7.9710   17.1410 C.2   104  GLU104      0.3649
     81  OE1       66.7150   -6.9350   17.8300 O.co2 104  GLU104     -0.2457
     82  OE2       66.9070   -9.1120   17.6390 O.co2 104  GLU104     -0.2457
     83  N         69.4920   -5.4160   13.4240 N.am  105  TYR105     -0.1960
     84  CA        70.9350   -5.4910   13.2520 C.3   105  TYR105      0.1771
     85  C         71.6400   -5.9170   14.5390 C.2   105  TYR105      0.2619
     86  O         71.3300   -5.4200   15.6180 O.2   105  TYR105     -0.2715
     87  CB        71.4540   -4.1370   12.7700 C.3   105  TYR105      0.0574
     88  CG        72.9490   -4.0450   12.5650 C.ar  105  TYR105     -0.0198
     89  CD1       73.5580   -4.6510   11.4750 C.ar  105  TYR105     -0.0009
     90  CD2       73.7450   -3.3210   13.4430 C.ar  105  TYR105     -0.0009
     91  CE1       74.9210   -4.5530   11.2770 C.ar  105  TYR105      0.0417
     92  CE2       75.1050   -3.2180   13.2510 C.ar  105  TYR105      0.0417
     93  CZ        75.6880   -3.8360   12.1680 C.ar  105  TYR105      0.1957
     94  OH        77.0470   -3.7380   11.9770 O.3   105  TYR105     -0.2866
     95  N         72.5810   -6.8480   14.4170 N.am  106  ALA106     -0.1963
     96  CA        73.3370   -7.3430   15.5650 C.3   106  ALA106      0.1728
     97  C         74.7570   -6.7810   15.5540 C.2   106  ALA106      0.2616
     98  O         75.5560   -7.0980   14.6750 O.2   106  ALA106     -0.2715
     99  CB        73.3640   -8.8640   15.5720 C.3   106  ALA106      0.0334
    100  N         75.0540   -5.9560   16.5530 N.am  107  LYS107     -0.1963
    101  CA        76.2770   -5.1590   16.6130 C.3   107  LYS107      0.1728
    102  C         77.5700   -5.9380   16.3420 C.2   107  LYS107      0.2616
    103  O         78.3270   -5.5930   15.4340 O.2   107  LYS107     -0.2715
    104  CB        76.3550   -4.4790   17.9850 C.3   107  LYS107      0.0311
    105  CG        77.3710   -3.3540   18.1150 C.3   107  LYS107      0.0038
    106  CD        76.9480   -2.3930   19.2230 C.3   107  LYS107      0.0206
    107  CE        78.0400   -1.3970   19.5760 C.3   107  LYS107      0.1093
    108  NZ        78.9570   -1.9340   20.6160 N.3   107  LYS107     -0.1314
    109  N         77.8220   -6.9860   17.1190 N.am  108  TYR108     -0.1960
    110  CA        79.1110   -7.6690   17.0620 C.3   108  TYR108      0.1771
    111  C         79.1460   -8.8850   16.1300 C.2   108  TYR108      0.2620
    112  O         80.1300   -9.6210   16.1090 O.2   108  TYR108     -0.2715
    113  CB        79.5310   -8.1050   18.4650 C.3   108  TYR108      0.0574
    114  CG        79.4990   -7.0060   19.5010 C.ar  108  TYR108     -0.0198
    115  CD1       80.5700   -6.1370   19.6570 C.ar  108  TYR108     -0.0009
    116  CD2       78.4030   -6.8480   20.3360 C.ar  108  TYR108     -0.0009
    117  CE1       80.5450   -5.1340   20.6110 C.ar  108  TYR108      0.0417
    118  CE2       78.3690   -5.8540   21.2910 C.ar  108  TYR108      0.0417
    119  CZ        79.4420   -4.9980   21.4250 C.ar  108  TYR108      0.1957
    120  OH        79.4080   -4.0050   22.3780 O.3   108  TYR108     -0.2866
    121  N         78.0820   -9.1030   15.3660 N.am  109  GLY109     -0.1940
    122  CA        78.0460  -10.2200   14.4370 C.3   109  GLY109      0.2014
    123  C         77.9190  -11.5820   15.1010 C.2   109  GLY109      0.2639
    124  O         77.4420  -11.6960   16.2260 O.2   109  GLY109     -0.2714
    125  N         78.3560  -12.6210   14.4000 N.am  110  SER110     -0.1949
    126  CA        78.2080  -13.9870   14.8910 C.3   110  SER110      0.1924
    127  C         79.0510  -14.2400   16.1360 C.2   110  SER110      0.2314
    128  O         80.1160  -13.6490   16.3090 O.2   110  SER110     -0.2863
    129  CB        78.5800  -14.9940   13.8010 C.3   110  SER110      0.2116
    130  OG        79.9840  -15.1180   13.6740 O.3   110  SER110     -0.2180
    131  N         74.0730  -14.8680   17.0780 N.3   160  LEU160     -0.1245
    132  CA        74.5150  -13.4970   16.8590 C.3   160  LEU160      0.1561
    133  C         74.6970  -12.7670   18.1780 C.2   160  LEU160      0.2260
    134  O         73.9980  -13.0470   19.1490 O.2   160  LEU160     -0.2867
    135  CB        73.5190  -12.7430   15.9800 C.3   160  LEU160      0.0270
    136  CG        73.3530  -13.2320   14.5430 C.3   160  LEU160      0.0019
    137  CD1       72.2050  -12.5030   13.8750 C.3   160  LEU160      0.0001
    138  CD2       74.6400  -13.0360   13.7610 C.3   160  LEU160      0.0001
    139  N         69.9240  -17.3770   15.5090 N.3   170  SER170     -0.1202
    140  CA        69.5600  -17.0070   14.1470 C.3   170  SER170      0.2020
    141  C         69.5630  -18.2140   13.2250 C.2   170  SER170      0.2618
    142  O         69.6980  -19.3480   13.6800 O.2   170  SER170     -0.2717
    143  CB        70.5170  -15.9440   13.6110 C.3   170  SER170      0.2103
    144  OG        71.8200  -16.4760   13.4440 O.3   170  SER170     -0.2182
    145  N         69.4140  -17.9570   11.9280 N.am  171  ASP171     -0.1973
    146  CA        69.4550  -19.0050   10.9110 C.3   171  ASP171      0.1709
    147  C         68.4180  -20.0890   11.1880 C.2   171  ASP171      0.2293
    148  O         68.7490  -21.1620   11.6930 O.2   171  ASP171     -0.2864
    149  CB        70.8580  -19.6160   10.8270 C.3   171  ASP171      0.1436
    150  CG        71.9060  -18.6190   10.3400 C.2   171  ASP171      0.3671
    151  OD1       72.5030  -17.9150   11.1830 O.co2 171  ASP171     -0.2456
    152  OD2       72.1370  -18.5380    9.1140 O.co2 171  ASP171     -0.2456
@<TRIPOS>BOND
     1    28    27    2
     2    27    26    1
     3    59    60    1
     4    12    11    2
     5    13    14    1
     6    65    64    1
     7    26    25    1
     8    26    29    1
     9    30    29    1
    10    30    31    1
    11    11    10    1
    12    16    15    2
    13    15    14    1
    14    14    17    1
    15    60    63    1
    16    60    61    1
    17     1     2    1
    18    31    32    1
    19    64    63    1
    20    64    66    1
    21    62    61    2
    22    10     9    1
    23     9     3   am
    24    32    33    1
    25    17    19    1
    26    17    18    1
    27     2     3    1
    28     2     5    1
    29     3     4    2
    30    34    35    1
    31    38    35    1
    32    38    39    1
    33     5     6    1
    34    22    23    2
    35    22    21    1
    36    41    40   ar
    37     6     8    1
    38     6     7    1
    39    35    36    1
    40    36    37    2
    41    39    40    1
    42    21    20    1
    43    21    24    1
    44    40    42   ar
    45   152   150   ar
    46    67    68    1
    47    72    71    1
    48   150   149    1
    49   150   151   ar
    50    49    48    1
    51    73    71    1
    52    68    71    1
    53    68    69    1
    54   149   146    1
    55   146   147    1
    56   146   145    1
    57    70    69    2
    58   147   148    2
    59    91    89   ar
    60    91    93   ar
    61    47    48    1
    62    47    44    1
    63    48    50    1
    64    43    44    1
    65    89    88   ar
    66    69    74   am
    67   145   141   am
    68    94    93    1
    69    44    45    1
    70    93    92   ar
    71    45    46    2
    72    88    87    1
    73    88    90   ar
    74    87    84    1
    75    74    75    1
    76    58    56    1
    77   141   142    2
    78   141   140    1
    79    92    90   ar
    80    84    83    1
    81    84    85    1
    82    83    76   am
    83   144   143    1
    84    76    77    2
    85    76    75    1
    86   143   140    1
    87   130   129    1
    88    75    78    1
    89   138   136    1
    90   129   126    1
    91   137   136    1
    92    57    55    1
    93   140   139    1
    94    56    55    1
    95   125   126    1
    96   125   123   am
    97    95    85   am
    98    95    96    1
    99   122   123    1
   100   122   121    1
   101    85    86    2
   102   136   135    1
   103    98    97    2
   104   126   127    1
   105    55    52    1
   106   123   124    2
   107    78    79    1
   108   121   111   am
   109   103   102    2
   110    97    96    1
   111    97   100   am
   112    96    99    1
   113    79    80    1
   114    54    53    2
   115    53    52    1
   116   135   132    1
   117   112   111    2
   118   111   110    1
   119   127   128    2
   120    52    51    1
   121   102   101    1
   122   102   109   am
   123   100   101    1
   124   101   104    1
   125   132   131    1
   126   132   133    1
   127   110   109    1
   128   110   113    1
   129    80    82   ar
   130    80    81   ar
   131   104   105    1
   132   105   106    1
   133   133   134    2
   134   113   114    1
   135   106   107    1
   136   114   115   ar
   137   114   116   ar
   138   107   108    1
   139   115   117   ar
   140   116   118   ar
   141   117   119   ar
   142   118   119   ar
   143   119   120    1
