@<TRIPOS>MOLECULE
tmp/5ampA03.pdb
 69 64 0 0 0
SMALL
GASTEIGER

@<TRIPOS>ATOM
      1  N         27.0510   -9.6610   51.0320 N.3   301  GLU301     -0.1245
      2  CA        25.6850   -9.3510   50.6140 C.3   301  GLU301      0.1567
      3  C         24.6890   -9.5270   51.7530 C.2   301  GLU301      0.2260
      4  O         24.7440  -10.5110   52.4910 O.2   301  GLU301     -0.2867
      5  CB        25.2570  -10.2280   49.4360 C.3   301  GLU301      0.0388
      6  CG        23.8980   -9.8520   48.8650 C.3   301  GLU301      0.1160
      7  CD        23.5480  -10.6140   47.6080 C.2   301  GLU301      0.3649
      8  OE1       24.1260  -11.6980   47.3900 O.co2 301  GLU301     -0.2457
      9  OE2       22.6800  -10.1370   46.8450 O.co2 301  GLU301     -0.2457
     10  N         20.9130    3.7950   37.4110 N.3   322  GLY322     -0.1210
     11  CA        22.2550    3.7030   37.9720 C.3   322  GLY322      0.1956
     12  C         22.3570    2.9480   39.2940 C.2   322  GLY322      0.2612
     13  O         23.4610    2.7410   39.7890 O.2   322  GLY322     -0.2717
     14  N         21.2200    2.5570   39.8810 N.am  323  ILE323     -0.1965
     15  CA        21.2100    1.7820   41.1320 C.3   323  ILE323      0.1727
     16  C         20.2230    0.6270   41.0020 C.2   323  ILE323      0.2617
     17  O         19.0220    0.7970   41.2600 O.2   323  ILE323     -0.2715
     18  CB        20.8000    2.6300   42.3650 C.3   323  ILE323      0.0290
     19  CG1       21.4480    4.0200   42.3430 C.3   323  ILE323      0.0022
     20  CG2       21.1440    1.8900   43.6540 C.3   323  ILE323      0.0023
     21  CD1       20.8640    4.9630   43.3800 C.3   323  ILE323      0.0001
     22  N         20.7260   -0.5360   40.5910 N.am  324  SER324     -0.1936
     23  CA        19.8890   -1.7170   40.3690 C.3   324  SER324      0.2055
     24  C         20.0150   -2.7410   41.5040 C.2   324  SER324      0.2643
     25  O         20.8180   -2.5730   42.4210 O.2   324  SER324     -0.2714
     26  CB        20.2580   -2.3660   39.0320 C.3   324  SER324      0.2130
     27  OG        21.6200   -2.7540   39.0250 O.3   324  SER324     -0.2179
     28  N         19.2130   -3.8000   41.4220 N.am  325  GLY325     -0.1954
     29  CA        19.2510   -4.9010   42.3840 C.3   325  GLY325      0.1869
     30  C         18.3350   -4.6610   43.5700 C.2   325  GLY325      0.2309
     31  O         17.7720   -3.5710   43.7230 O.2   325  GLY325     -0.2863
     32  N         19.3250   -5.9070   46.8950 N.3   327  SER327     -0.1217
     33  CA        20.1260   -6.3190   48.0410 C.3   327  SER327      0.1889
     34  C         21.2370   -5.3150   48.2960 C.2   327  SER327      0.2288
     35  O         21.5080   -4.4390   47.4640 O.2   327  SER327     -0.2866
     36  CB        20.7230   -7.7090   47.8030 C.3   327  SER327      0.2089
     37  OG        21.6470   -7.7060   46.7240 O.3   327  SER327     -0.2183
     38  N         25.0510   -4.8050   48.5550 N.3   329  THR329     -0.1218
     39  CA        26.3490   -5.3210   48.1330 C.3   329  THR329      0.1862
     40  C         27.2820   -4.1250   47.9650 C.2   329  THR329      0.2287
     41  O         26.8360   -2.9820   48.0520 O.2   329  THR329     -0.2866
     42  CB        26.2430   -6.0270   46.7700 C.3   329  THR329      0.1770
     43  OG1       25.7030   -5.1140   45.8110 O.3   329  THR329     -0.2211
     44  CG2       25.3440   -7.2550   46.8490 C.3   329  THR329      0.0375
     45  N         28.7370   -3.1950   45.1690 N.3   331  ASP331     -0.1225
     46  CA        28.2970   -2.5460   43.9340 C.3   331  ASP331      0.1805
     47  C         27.1150   -1.5970   44.1630 C.2   331  ASP331      0.2597
     48  O         27.1080   -0.4690   43.6650 O.2   331  ASP331     -0.2718
     49  CB        27.9020   -3.5970   42.8900 C.3   331  ASP331      0.1424
     50  CG        29.1040   -4.3200   42.2930 C.2   331  ASP331      0.3668
     51  OD1       30.2580   -3.9260   42.5610 O.co2 331  ASP331     -0.2456
     52  OD2       28.8910   -5.2900   41.5450 O.co2 331  ASP331     -0.2456
     53  N         26.1180   -2.0600   44.9110 N.am  332  TYR332     -0.1976
     54  CA        24.9530   -1.2260   45.2290 C.3   332  TYR332      0.1639
     55  C         25.3470    0.0110   46.0350 C.2   332  TYR332      0.2290
     56  O         24.9300    1.1220   45.7220 O.2   332  TYR332     -0.2864
     57  CB        23.9100   -2.0330   46.0000 C.3   332  TYR332      0.0560
     58  CG        22.8340   -1.1980   46.6380 C.ar  332  TYR332     -0.0198
     59  CD1       21.7010   -0.8330   45.9280 C.ar  332  TYR332     -0.0009
     60  CD2       22.9480   -0.7800   47.9650 C.ar  332  TYR332     -0.0009
     61  CE1       20.7080   -0.0690   46.5160 C.ar  332  TYR332      0.0417
     62  CE2       21.9570   -0.0200   48.5630 C.ar  332  TYR332      0.0417
     63  CZ        20.8410    0.3370   47.8350 C.ar  332  TYR332      0.1957
     64  OH        19.8540    1.0960   48.4280 O.3   332  TYR332     -0.2866
     65  N         27.3320    2.4590   43.9330 N.3   335  ALA335     -0.1245
     66  CA        26.4370    3.0850   42.9690 C.3   335  ALA335      0.1562
     67  C         25.4620    4.0540   43.6400 C.2   335  ALA335      0.2260
     68  O         25.2480    5.1570   43.1440 O.2   335  ALA335     -0.2867
     69  CB        25.6800    2.0240   42.1900 C.3   335  ALA335      0.0290
@<TRIPOS>BOND
     1    10    11    1
     2    11    12    1
     3    27    26    1
     4    26    23    1
     5    12    13    2
     6    12    14   am
     7    14    15    1
     8    23    22    1
     9    23    24    1
    10    22    16   am
    11    16    15    1
    12    16    17    2
    13    15    18    1
    14    28    24   am
    15    28    29    1
    16    24    25    2
    17    52    50   ar
    18    69    66    1
    19    50    51   ar
    20    50    49    1
    21    19    18    1
    22    19    21    1
    23    18    20    1
    24    29    30    1
    25    49    46    1
    26    66    67    1
    27    66    65    1
    28    68    67    2
    29    30    31    2
    30    48    47    2
    31    46    47    1
    32    46    45    1
    33    47    53   am
    34    53    54    1
    35    54    57    1
    36    54    55    1
    37    56    55    2
    38    43    42    1
    39    59    61   ar
    40    59    58   ar
    41    57    58    1
    42    61    63   ar
    43    58    60   ar
    44    37    36    1
    45    42    44    1
    46    42    39    1
    47     9     7   ar
    48    32    33    1
    49     8     7   ar
    50    35    34    2
    51     7     6    1
    52    36    33    1
    53    63    64    1
    54    63    62   ar
    55    40    41    2
    56    40    39    1
    57    60    62   ar
    58    33    34    1
    59    39    38    1
    60     6     5    1
    61     5     2    1
    62     2     1    1
    63     2     3    1
    64     3     4    2
