@<TRIPOS>MOLECULE
tmp/5amvA00.pdb
 140 131 0 0 0
SMALL
GASTEIGER

@<TRIPOS>ATOM
      1  N         18.8160    1.2010  -13.8080 N.3   173  ASP173     -0.1225
      2  CA        18.0550    0.5040  -12.7770 C.3   173  ASP173      0.1805
      3  C         16.8760   -0.2590  -13.3880 C.2   173  ASP173      0.2598
      4  O         15.9790    0.3360  -13.9750 O.2   173  ASP173     -0.2718
      5  CB        17.5430    1.5350  -11.7700 C.3   173  ASP173      0.1424
      6  CG        16.8870    0.9020  -10.5670 C.2   173  ASP173      0.3668
      7  OD1       15.7810    0.3160  -10.7050 O.co2 173  ASP173     -0.2456
      8  OD2       17.4690    1.0340   -9.4760 O.co2 173  ASP173     -0.2456
      9  N         16.8650   -1.5800  -13.2660 N.am  174  GLY174     -0.1942
     10  CA        15.7510   -2.3470  -13.8240 C.3   174  GLY174      0.2014
     11  C         15.8460   -2.4120  -15.3370 C.2   174  GLY174      0.2639
     12  O         16.8390   -1.9670  -15.9220 O.2   174  GLY174     -0.2714
     13  N         14.7890   -2.9080  -15.9760 N.am  175  SER175     -0.1949
     14  CA        14.8090   -3.1450  -17.4240 C.3   175  SER175      0.1924
     15  C         14.5130   -1.8910  -18.2470 C.2   175  SER175      0.2314
     16  O         14.8620   -1.8290  -19.4340 O.2   175  SER175     -0.2863
     17  CB        13.8550   -4.2840  -17.8150 C.3   175  SER175      0.2116
     18  OG        12.4980   -3.8780  -17.7760 O.3   175  SER175     -0.2180
     19  N         14.7250    3.4910  -13.5770 N.3   178  ASN178     -0.1240
     20  CA        13.8080    3.8790  -12.5140 C.3   178  ASN178      0.1653
     21  C         14.2020    5.2370  -11.9220 C.2   178  ASN178      0.2266
     22  O         15.3420    5.6550  -12.0400 O.2   178  ASN178     -0.2867
     23  CB        13.7210    2.7980  -11.4230 C.3   178  ASN178      0.1155
     24  CG        12.6190    1.7420  -11.7140 C.2   178  ASN178      0.2627
     25  OD1       11.4630    2.0810  -11.9880 O.2   178  ASN178     -0.2716
     26  ND2       13.0100    0.4850  -11.7370 N.am  178  ASN178     -0.0877
     27  N          8.0870    5.8370  -16.3690 N.3   217  ARG217     -0.1245
     28  CA         8.3970    5.2640  -15.0570 C.3   217  ARG217      0.1563
     29  C          7.8640    6.1670  -13.9370 C.2   217  ARG217      0.2260
     30  O          7.9950    7.3920  -13.9950 O.2   217  ARG217     -0.2867
     31  CB         9.9140    5.0250  -14.8730 C.3   217  ARG217      0.0307
     32  CG        10.6300    4.0930  -15.9030 C.3   217  ARG217      0.0489
     33  CD        10.1600    2.6050  -15.8540 C.3   217  ARG217      0.2205
     34  NE        10.5140    1.8790  -14.6260 N.pl3 217  ARG217     -0.0865
     35  CZ         9.9840    0.7020  -14.2810 C.cat 217  ARG217      0.5346
     36  NH1        9.0760    0.1240  -15.0590 N.pl3 217  ARG217      0.1354
     37  NH2       10.3440    0.0920  -13.1590 N.pl3 217  ARG217      0.1354
     38  N          4.9960    1.2800   -1.0070 N.3   246  ASP246     -0.1225
     39  CA         5.4590    0.3670   -2.0460 C.3   246  ASP246      0.1805
     40  C          6.5440   -0.5940   -1.5350 C.2   246  ASP246      0.2597
     41  O          6.2330   -1.7280   -1.2070 O.2   246  ASP246     -0.2718
     42  CB         5.8510    1.2300   -3.2670 C.3   246  ASP246      0.1424
     43  CG         6.2930    0.4080   -4.4820 C.2   246  ASP246      0.3668
     44  OD1        6.4280   -0.8110   -4.4180 O.co2 246  ASP246     -0.2456
     45  OD2        6.5960    1.0750   -5.4960 O.co2 246  ASP246     -0.2456
     46  N          7.7910   -0.1240   -1.3840 N.am  247  LYS247     -0.1979
     47  CA         8.9200   -0.9940   -0.9850 C.3   247  LYS247      0.1596
     48  C          9.1960   -0.9250    0.5100 C.2   247  LYS247      0.2287
     49  O          9.7420    0.0620    1.0220 O.2   247  LYS247     -0.2864
     50  CB        10.1450   -0.5580   -1.7660 C.3   247  LYS247      0.0298
     51  CG         9.9460   -0.8220   -3.2870 C.3   247  LYS247      0.0038
     52  CD        11.1380   -0.3720   -4.1280 C.3   247  LYS247      0.0206
     53  CE        11.0390    1.0480   -4.5930 C.3   247  LYS247      0.1093
     54  NZ        11.7950    1.1630   -5.9100 N.3   247  LYS247     -0.1314
     55  N          5.6270   -4.5820   -2.0460 N.3   278  GLN278     -0.1231
     56  CA         6.7250   -5.5280   -2.2170 C.3   278  GLN278      0.1698
     57  C          7.8100   -5.3430   -1.1660 C.2   278  GLN278      0.2592
     58  O          7.7670   -4.4150   -0.3580 O.2   278  GLN278     -0.2718
     59  CB         7.3070   -5.3320   -3.6250 C.3   278  GLN278      0.0381
     60  CG         7.9080   -3.9350   -3.8400 C.3   278  GLN278      0.0905
     61  CD         8.3890   -3.7430   -5.2640 C.2   278  GLN278      0.2608
     62  OE1        9.0710   -4.6210   -5.8080 O.2   278  GLN278     -0.2717
     63  NE2        8.0710   -2.5970   -5.8690 N.am  278  GLN278     -0.0878
     64  N          8.7810   -6.2740   -1.1640 N.am  279  ARG279     -0.1980
     65  CA         9.9280   -6.2290   -0.2300 C.3   279  ARG279      0.1597
     66  C          9.5080   -6.2800    1.2210 C.2   279  ARG279      0.2287
     67  O          9.6710   -5.3150    1.9610 O.2   279  ARG279     -0.2864
     68  CB        10.8620   -5.0150   -0.4910 C.3   279  ARG279      0.0334
     69  CG        11.2490   -4.9220   -1.9660 C.3   279  ARG279      0.0492
     70  CD        12.1870   -3.7650   -2.2240 C.3   279  ARG279      0.2205
     71  NE        12.6580   -3.7610   -3.6020 N.pl3 279  ARG279     -0.0865
     72  CZ        13.5690   -2.9110   -4.0910 C.cat 279  ARG279      0.5346
     73  NH1       14.1030   -1.9620   -3.3140 N.pl3 279  ARG279      0.1354
     74  NH2       13.9560   -3.0120   -5.3570 N.pl3 279  ARG279      0.1354
     75  N         12.7400   -7.9660    1.2910 N.3   282  ARG282     -0.1245
     76  CA        13.6120   -8.4890    0.2170 C.3   282  ARG282      0.1563
     77  C         14.9980   -8.6580    0.8090 C.2   282  ARG282      0.2260
     78  O         15.5330   -7.6990    1.3620 O.2   282  ARG282     -0.2867
     79  CB        13.7080   -7.4980   -0.9350 C.3   282  ARG282      0.0307
     80  CG        14.4000   -8.0550   -2.1820 C.3   282  ARG282      0.0489
     81  CD        15.1430   -6.9530   -2.9050 C.3   282  ARG282      0.2205
     82  NE        15.5400   -7.3360   -4.2500 N.pl3 282  ARG282     -0.0865
     83  CZ        16.6240   -8.0750   -4.5420 C.cat 282  ARG282      0.5346
     84  NH1       17.4180   -8.5380   -3.5840 N.pl3 282  ARG282      0.1354
     85  NH2       16.9340   -8.3460   -5.8160 N.pl3 282  ARG282      0.1354
     86  N         19.1220  -10.0250    0.6760 N.3   284  ARG284     -0.1245
     87  CA        20.3440  -10.6330    0.1380 C.3   284  ARG284      0.1563
     88  C         21.1700  -11.1060    1.3320 C.2   284  ARG284      0.2260
     89  O         21.2150  -10.4230    2.3500 O.2   284  ARG284     -0.2867
     90  CB        21.1490   -9.6320   -0.6880 C.3   284  ARG284      0.0307
     91  CG        20.4840   -9.1340   -1.9510 C.3   284  ARG284      0.0489
     92  CD        21.3150   -7.9630   -2.4830 C.3   284  ARG284      0.2205
     93  NE        20.8560   -7.5160   -3.7980 N.pl3 284  ARG284     -0.0865
     94  CZ        19.9860   -6.5330   -3.9970 C.cat 284  ARG284      0.5346
     95  NH1       19.4720   -5.8400   -2.9790 N.pl3 284  ARG284      0.1354
     96  NH2       19.6460   -6.2040   -5.2380 N.pl3 284  ARG284      0.1354
     97  N          2.2590   -7.1520   -4.7240 N.3   307  SER307     -0.1202
     98  CA         3.0680   -7.8560   -5.7180 C.3   307  SER307      0.2020
     99  C          3.6420   -9.1480   -5.0990 C.2   307  SER307      0.2618
    100  O          3.3830  -10.2610   -5.5790 O.2   307  SER307     -0.2717
    101  CB         4.1960   -6.9270   -6.2150 C.3   307  SER307      0.2103
    102  OG         4.9110   -7.4660   -7.3060 O.3   307  SER307     -0.2182
    103  N          4.4240   -9.0050   -4.0360 N.am  308  TYR308     -0.1975
    104  CA         4.9510  -10.1750   -3.3390 C.3   308  TYR308      0.1639
    105  C          5.2690   -9.8280   -1.8980 C.2   308  TYR308      0.2290
    106  O          5.4140   -8.6410   -1.5850 O.2   308  TYR308     -0.2864
    107  CB         6.1790  -10.7580   -4.0530 C.3   308  TYR308      0.0560
    108  CG         7.4600   -9.9170   -3.9630 C.ar  308  TYR308     -0.0198
    109  CD1        8.3170  -10.0570   -2.8640 C.ar  308  TYR308     -0.0009
    110  CD2        7.8220   -8.9910   -4.9970 C.ar  308  TYR308     -0.0009
    111  CE1        9.5070   -9.2770   -2.7680 C.ar  308  TYR308      0.0417
    112  CE2        9.0100   -8.2210   -4.9130 C.ar  308  TYR308      0.0417
    113  CZ         9.8510   -8.4190   -3.8100 C.ar  308  TYR308      0.1957
    114  OH        11.0510   -7.7220   -3.7070 O.3   308  TYR308     -0.2866
    115  N          3.1800  -17.0670   -5.9450 N.3   334  LYS334     -0.1245
    116  CA         3.2830  -15.6130   -6.0950 C.3   334  LYS334      0.1561
    117  C          3.3670  -14.8920   -4.7580 C.2   334  LYS334      0.2260
    118  O          3.4900  -13.6480   -4.7190 O.2   334  LYS334     -0.2867
    119  CB         2.1110  -15.0690   -6.9150 C.3   334  LYS334      0.0271
    120  CG         2.1550  -15.4990   -8.4090 C.3   334  LYS334      0.0035
    121  CD         3.4820  -15.2100   -9.0700 C.3   334  LYS334      0.0206
    122  CE         3.6280  -13.7210   -9.4630 C.3   334  LYS334      0.1093
    123  NZ         5.0810  -13.3260   -9.6670 N.3   334  LYS334     -0.1314
    124  N          8.9260  -13.5220   -4.4720 N.3   337  SER337     -0.1217
    125  CA         9.5740  -13.2380   -5.7460 C.3   337  SER337      0.1889
    126  C         11.0240  -13.7170   -5.6160 C.2   337  SER337      0.2288
    127  O         11.7010  -13.4030   -4.6460 O.2   337  SER337     -0.2866
    128  CB         9.5320  -11.7500   -6.0880 C.3   337  SER337      0.2089
    129  OG        10.0590  -11.5110   -7.4060 O.3   337  SER337     -0.2183
    130  N         14.8400  -13.8570   -7.1100 N.3   339  PHE339     -0.1241
    131  CA        15.8020  -13.1010   -7.9280 C.3   339  PHE339      0.1605
    132  C         17.0380  -13.9850   -8.1950 C.2   339  PHE339      0.2264
    133  O         17.2150  -15.0010   -7.5380 O.2   339  PHE339     -0.2867
    134  CB        16.1700  -11.8060   -7.1990 C.3   339  PHE339      0.0534
    135  CG        14.9770  -10.9410   -6.8940 C.ar  339  PHE339     -0.0203
    136  CD1       14.4110  -10.1500   -7.9010 C.ar  339  PHE339     -0.0042
    137  CD2       14.3610  -10.9740   -5.6260 C.ar  339  PHE339     -0.0042
    138  CE1       13.2700   -9.3480   -7.6720 C.ar  339  PHE339     -0.0003
    139  CE2       13.2170  -10.1740   -5.3750 C.ar  339  PHE339     -0.0003
    140  CZ        12.6620   -9.3530   -6.4000 C.ar  339  PHE339     -0.0000
@<TRIPOS>BOND
     1    16    15    2
     2    15    14    1
     3    17    18    1
     4    17    14    1
     5    14    13    1
     6    27    28    1
     7    13    11   am
     8    12    11    2
     9    32    33    1
    10    32    31    1
    11    33    34    1
    12    11    10    1
    13    36    35    1
    14    28    31    1
    15    28    29    1
    16    34    35    2
    17    35    37    1
    18    30    29    2
    19     4     3    2
    20    10     9    1
    21     1     2    1
    22    19    20    1
    23     3     9   am
    24     3     2    1
    25     2     5    1
    26    20    21    1
    27    20    23    1
    28    22    21    2
    29    25    24    2
    30     5     6    1
    31    26    24   am
    32    24    23    1
    33     7     6   ar
    34     6     8   ar
    35   123   122    1
    36   122   121    1
    37   121   120    1
    38   120   119    1
    39   132   131    1
    40   132   133    2
    41   131   134    1
    42   131   130    1
    43   136   138   ar
    44   136   135   ar
    45   138   140   ar
    46   129   128    1
    47   102   101    1
    48   134   135    1
    49   119   116    1
    50   135   137   ar
    51   140   139   ar
    52   101    98    1
    53   116   115    1
    54   116   117    1
    55   128   125    1
    56    54    53    1
    57    63    61   am
    58    85    83    1
    59    62    61    2
    60   125   126    1
    61   125   124    1
    62    98    99    1
    63    98    97    1
    64   137   139   ar
    65   126   127    2
    66   100    99    2
    67    45    43   ar
    68    74    72    1
    69    61    60    1
    70    96    94    1
    71    99   103   am
    72   110   112   ar
    73   110   108   ar
    74   112   113   ar
    75   117   118    2
    76    53    52    1
    77    83    82    2
    78    83    84    1
    79    43    44   ar
    80    43    42    1
    81    82    81    1
    82    52    51    1
    83    72    71    2
    84    72    73    1
    85   107   108    1
    86   107   104    1
    87   103   104    1
    88    94    93    2
    89    94    95    1
    90   108   109   ar
    91    60    59    1
    92   113   114    1
    93   113   111   ar
    94    93    92    1
    95    59    56    1
    96    71    70    1
    97   104   105    1
    98    51    50    1
    99    42    39    1
   100    81    80    1
   101   109   111   ar
   102    92    91    1
   103    70    69    1
   104    56    55    1
   105    56    57    1
   106    80    79    1
   107    39    40    1
   108    39    38    1
   109    69    68    1
   110    91    90    1
   111   105   106    2
   112    50    47    1
   113    40    46   am
   114    40    41    2
   115    46    47    1
   116    57    64   am
   117    57    58    2
   118    64    65    1
   119    47    48    1
   120    79    76    1
   121    90    87    1
   122    68    65    1
   123    65    66    1
   124    87    86    1
   125    87    88    1
   126    76    77    1
   127    76    75    1
   128    48    49    2
   129    77    78    2
   130    66    67    2
   131    88    89    2
