@<TRIPOS>MOLECULE
tmp/5andA00.pdb
 132 126 0 0 0
SMALL
GASTEIGER

@<TRIPOS>ATOM
      1  N          0.6470   12.3100  -32.6260 N.3     9  ILE9       -0.1245
      2  CA        -0.4250   11.9540  -31.7280 C.3     9  ILE9        0.1561
      3  C         -0.2710   12.8410  -30.5280 C.2     9  ILE9        0.2260
      4  O         -1.2320   13.4370  -30.0510 O.2     9  ILE9       -0.2867
      5  CB        -0.3270   10.4970  -31.2450 C.3     9  ILE9        0.0252
      6  CG1       -0.8300    9.5430  -32.3120 C.3     9  ILE9        0.0019
      7  CG2       -1.1070   10.3040  -29.9490 C.3     9  ILE9        0.0019
      8  CD1       -0.3180    8.1300  -32.1060 C.3     9  ILE9        0.0001
      9  N          5.4110   11.0600  -29.7910 N.3    17  VAL17      -0.1245
     10  CA         4.7040    9.8900  -30.3110 C.3    17  VAL17       0.1561
     11  C          4.0390   10.2700  -31.6160 C.2    17  VAL17       0.2260
     12  O          3.3440   11.2500  -31.6630 O.2    17  VAL17      -0.2867
     13  CB         3.5990    9.3870  -29.3680 C.3    17  VAL17       0.0252
     14  CG1        3.2210    7.9410  -29.7190 C.3    17  VAL17       0.0019
     15  CG2        4.0500    9.4400  -27.9260 C.3    17  VAL17       0.0019
     16  N          2.1210    3.1000  -33.1090 N.3    30  ALA30      -0.1245
     17  CA         2.4920    4.3050  -32.4300 C.3    30  ALA30       0.1562
     18  C          4.0130    4.2970  -32.2830 C.2    30  ALA30       0.2260
     19  O          4.6200    3.3620  -31.7410 O.2    30  ALA30      -0.2867
     20  CB         1.8120    4.3840  -31.0640 C.3    30  ALA30       0.0290
     21  N         -0.5980   -2.3180  -23.3880 N.3    54  VAL54      -0.1245
     22  CA        -0.3420   -1.9530  -24.7650 C.3    54  VAL54       0.1561
     23  C          0.9770   -2.5920  -25.1990 C.2    54  VAL54       0.2260
     24  O          2.0370   -2.3490  -24.5950 O.2    54  VAL54      -0.2867
     25  CB        -0.2720   -0.4320  -24.9590 C.3    54  VAL54       0.0252
     26  CG1        0.2060   -0.0910  -26.3640 C.3    54  VAL54       0.0019
     27  CG2       -1.6430    0.1740  -24.6960 C.3    54  VAL54       0.0019
     28  N          4.9000    0.6650  -30.6920 N.3    70  PHE70      -0.1227
     29  CA         3.8250    0.1300  -29.8390 C.3    70  PHE70       0.1736
     30  C          2.6310   -0.1560  -30.7090 C.2    70  PHE70       0.2598
     31  O          2.4810    0.5280  -31.7180 O.2    70  PHE70      -0.2717
     32  CB         3.3820    1.1530  -28.7600 C.3    70  PHE70       0.0547
     33  CG         4.3800    1.3750  -27.6650 C.ar   70  PHE70      -0.0202
     34  CD1        4.4430    0.5340  -26.5540 C.ar   70  PHE70      -0.0042
     35  CD2        5.2190    2.4520  -27.7040 C.ar   70  PHE70      -0.0042
     36  CE1        5.3640    0.7650  -25.5280 C.ar   70  PHE70      -0.0003
     37  CE2        6.1580    2.6750  -26.7070 C.ar   70  PHE70      -0.0003
     38  CZ         6.2320    1.8310  -25.6110 C.ar   70  PHE70      -0.0000
     39  N          1.7720   -1.1070  -30.3130 N.am   71  GLU71      -0.1920
     40  CA         0.4510   -1.1910  -30.9340 C.3    71  GLU71       0.1949
     41  C         -0.2520    0.1300  -30.7550 C.2    71  GLU71       0.2659
     42  O         -0.1440    0.8150  -29.7160 O.2    71  GLU71      -0.2711
     43  CB        -0.4270   -2.3400  -30.4030 C.2    71  GLU71       0.0111
     44  CG        -0.9710   -2.1620  -29.0130 C.2    71  GLU71       0.0838
     45  CD        -1.8870   -3.2900  -28.5060 C.2    71  GLU71       0.3877
     46  OE1       -3.0050   -3.4840  -29.0630 O.co2  71  GLU71      -0.2406
     47  OE2       -1.5370   -3.9350  -27.4730 O.co2  71  GLU71      -0.2406
     48  N         -0.9850    0.4840  -31.7810 N.am   72  PHE72      -0.1957
     49  CA        -1.7700    1.7160  -31.8250 C.3    72  PHE72       0.1771
     50  C         -3.2590    1.4870  -31.4080 C.2    72  PHE72       0.2619
     51  O         -3.8590    0.4640  -31.7400 O.2    72  PHE72      -0.2715
     52  CB        -1.6310    2.3080  -33.2230 C.3    72  PHE72       0.0574
     53  CG        -2.4600    3.4940  -33.4280 C.ar   72  PHE72      -0.0200
     54  CD1       -3.7470    3.3560  -33.8670 C.ar   72  PHE72      -0.0042
     55  CD2       -1.9770    4.7470  -33.1680 C.ar   72  PHE72      -0.0042
     56  CE1       -4.5400    4.4600  -34.0480 C.ar   72  PHE72      -0.0003
     57  CE2       -2.7650    5.8550  -33.3200 C.ar   72  PHE72      -0.0003
     58  CZ        -4.0410    5.7200  -33.7530 C.ar   72  PHE72      -0.0000
     59  N         -3.8050    2.4260  -30.6230 N.am   73  LEU73      -0.1963
     60  CA        -5.1940    2.4650  -30.1980 C.3    73  LEU73       0.1728
     61  C         -5.7270    3.8790  -30.4540 C.2    73  LEU73       0.2616
     62  O         -5.0000    4.8520  -30.3480 O.2    73  LEU73      -0.2715
     63  CB        -5.3200    2.0870  -28.7100 C.3    73  LEU73       0.0311
     64  CG        -5.3100    0.5670  -28.4550 C.3    73  LEU73       0.0022
     65  CD1       -3.8750    0.0910  -28.2830 C.3    73  LEU73       0.0001
     66  CD2       -6.1320    0.1540  -27.2300 C.3    73  LEU73       0.0001
     67  N         -6.9890    4.0190  -30.7980 N.am   74  HIS74      -0.1959
     68  CA        -7.4240    5.3040  -31.3550 C.3    74  HIS74       0.1787
     69  C         -7.8030    6.3290  -30.3130 C.2    74  HIS74       0.2620
     70  O         -7.8630    7.5190  -30.5910 O.2    74  HIS74      -0.2715
     71  CB        -8.6160    5.1020  -32.2670 C.3    74  HIS74       0.0785
     72  CG        -8.2710    4.4270  -33.5540 C.ar   74  HIS74       0.0821
     73  ND1       -8.1180    3.0550  -33.6680 N.ar   74  HIS74      -0.2267
     74  CD2       -8.0420    4.9410  -34.7850 C.ar   74  HIS74       0.1154
     75  CE1       -7.8120    2.7580  -34.9200 C.ar   74  HIS74       0.1986
     76  NE2       -7.7660    3.8830  -35.6170 N.ar   74  HIS74      -0.2212
     77  N         -8.1170    5.8690  -29.1230 N.am   75  GLN75      -0.1963
     78  CA        -8.6140    6.7790  -28.1270 C.3    75  GLN75       0.1733
     79  C         -7.9010    6.5600  -26.8080 C.2    75  GLN75       0.2616
     80  O         -7.3890    5.4650  -26.5300 O.2    75  GLN75      -0.2715
     81  CB       -10.1280    6.6290  -27.9840 C.3    75  GLN75       0.0408
     82  CG       -10.7600    7.8450  -27.2960 C.3    75  GLN75       0.0908
     83  CD       -12.2600    7.9560  -27.4690 C.2    75  GLN75       0.2608
     84  OE1      -12.8650    7.2280  -28.2550 O.2    75  GLN75      -0.2717
     85  NE2      -12.8730    8.8790  -26.7370 N.am   75  GLN75      -0.0878
     86  N         -7.8660    7.6170  -26.0100 N.am   76  ASP76      -0.1971
     87  CA        -7.3950    7.5530  -24.6360 C.3    76  ASP76       0.1709
     88  C         -8.5350    7.9340  -23.6800 C.2    76  ASP76       0.2293
     89  O         -9.4690    8.6350  -24.0790 O.2    76  ASP76      -0.2864
     90  CB        -6.1210    8.4090  -24.4560 C.3    76  ASP76       0.1436
     91  CG        -6.3900    9.9210  -24.3310 C.2    76  ASP76       0.3671
     92  OD1       -7.4740   10.3480  -23.8790 O.co2  76  ASP76      -0.2456
     93  OD2       -5.4650   10.7030  -24.6580 O.co2  76  ASP76      -0.2456
     94  N         -9.4590   11.6870  -23.1750 N.3    79  LYS79      -0.1245
     95  CA       -10.2650   12.2210  -24.2470 C.3    79  LYS79       0.1561
     96  C        -11.7040   11.6720  -24.1340 C.2    79  LYS79       0.2260
     97  O        -12.6580   12.3820  -24.3920 O.2    79  LYS79      -0.2867
     98  CB        -9.6000   11.8980  -25.5800 C.3    79  LYS79       0.0271
     99  CG       -10.0130   12.7970  -26.7310 C.3    79  LYS79       0.0035
    100  CD        -9.9390   12.0560  -28.0700 C.3    79  LYS79       0.0206
    101  CE        -8.5720   11.4210  -28.3350 C.3    79  LYS79       0.1093
    102  NZ        -7.5000   12.4510  -28.4470 N.3    79  LYS79      -0.1314
    103  N         -4.2840    9.8000  -19.5620 N.3   121  GLN121     -0.1245
    104  CA        -3.6600    9.9190  -20.8890 C.3   121  GLN121      0.1566
    105  C         -2.8300    8.6790  -21.2710 C.2   121  GLN121      0.2260
    106  O         -2.6140    8.4500  -22.4290 O.2   121  GLN121     -0.2867
    107  CB        -2.7970   11.1990  -21.0140 C.3   121  GLN121      0.0367
    108  CG        -3.5020   12.5190  -20.6790 C.3   121  GLN121      0.0905
    109  CD        -3.2420   12.9940  -19.2240 C.2   121  GLN121      0.2608
    110  OE1       -3.8290   12.4800  -18.2460 O.2   121  GLN121     -0.2717
    111  NE2       -2.3500   13.9850  -19.0830 N.am  121  GLN121     -0.0878
    112  N         -5.4190    3.5840  -22.7700 N.3   124  LEU124     -0.1245
    113  CA        -5.9410    3.6120  -24.1240 C.3   124  LEU124      0.1561
    114  C         -7.0980    2.6410  -24.3320 C.2   124  LEU124      0.2260
    115  O         -7.1160    1.5360  -23.7790 O.2   124  LEU124     -0.2867
    116  CB        -4.8390    3.3250  -25.1300 C.3   124  LEU124      0.0270
    117  CG        -3.5300    4.1080  -24.9770 C.3   124  LEU124      0.0019
    118  CD1       -2.5530    3.7160  -26.0650 C.3   124  LEU124      0.0001
    119  CD2       -3.7460    5.6030  -24.9570 C.3   124  LEU124      0.0001
    120  N         -0.6240    2.0040  -21.1320 N.3   134  ALA134     -0.1231
    121  CA         0.4540    2.3680  -22.0310 C.3   134  ALA134      0.1694
    122  C          1.5790    2.9710  -21.2130 C.2   134  ALA134      0.2592
    123  O          1.2860    3.4840  -20.1380 O.2   134  ALA134     -0.2718
    124  CB        -0.0550    3.3500  -23.0690 C.3   134  ALA134      0.0304
    125  N          2.8260    2.8930  -21.7280 N.am  135  ASP135     -0.1974
    126  CA         4.1200    3.4300  -21.1210 C.3   135  ASP135      0.1709
    127  C          4.5560    2.7680  -19.8150 C.2   135  ASP135      0.2293
    128  O          5.3190    3.2990  -18.9890 O.2   135  ASP135     -0.2864
    129  CB         4.0810    4.9440  -20.9700 C.3   135  ASP135      0.1436
    130  CG         4.1050    5.6490  -22.3230 C.2   135  ASP135      0.3671
    131  OD1        4.6300    5.0580  -23.2950 O.co2 135  ASP135     -0.2456
    132  OD2        3.5920    6.7860  -22.4310 O.co2 135  ASP135     -0.2456
@<TRIPOS>BOND
     1    76    75   ar
     2    76    74   ar
     3    75    73   ar
     4    74    72   ar
     5    56    54   ar
     6    56    58   ar
     7    54    53   ar
     8    58    57   ar
     9    73    72   ar
    10    72    71    1
    11    53    52    1
    12    53    55   ar
    13    57    55   ar
    14    52    49    1
    15    16    17    1
    16     1     2    1
    17    17    18    1
    18    17    20    1
    19     6     8    1
    20     6     5    1
    21    18    19    2
    22    71    68    1
    23    49    48    1
    24    49    50    1
    25    48    41   am
    26    51    50    2
    27     2     5    1
    28     2     3    1
    29    31    30    2
    30    12    11    2
    31    11    10    1
    32    50    59   am
    33    68    67    1
    34    68    69    1
    35     5     7    1
    36    40    41    1
    37    40    43    1
    38    40    39    1
    39    67    61   am
    40    41    42    2
    41    30    39   am
    42    30    29    1
    43    28    29    1
    44    59    60    1
    45    70    69    2
    46     3     4    2
    47    61    62    2
    48    61    60    1
    49    43    44    2
    50    69    77   am
    51    10     9    1
    52    10    13    1
    53    60    63    1
    54    29    32    1
    55    14    13    1
    56    13    15    1
    57    77    78    1
    58    46    45   ar
    59    44    45    1
    60    32    33    1
    61    63    64    1
    62    45    47   ar
    63    64    65    1
    64    64    66    1
    65   102   101    1
    66   101   100    1
    67    84    83    2
    68    78    81    1
    69    78    79    1
    70   100    99    1
    71    81    82    1
    72    35    33   ar
    73    35    37   ar
    74    33    34   ar
    75    83    82    1
    76    83    85   am
    77    79    80    2
    78    79    86   am
    79    99    98    1
    80    37    38   ar
    81    34    36   ar
    82    26    25    1
    83   118   117    1
    84    86    87    1
    85    38    36   ar
    86    98    95    1
    87    23    22    1
    88    23    24    2
    89   116   117    1
    90   116   113    1
    91   117   119    1
    92    25    22    1
    93    25    27    1
    94    22    21    1
    95    93    91   ar
    96    87    90    1
    97    87    88    1
    98    90    91    1
    99    97    96    2
   100   114   113    1
   101   114   115    2
   102    91    92   ar
   103    95    96    1
   104    95    94    1
   105   113   112    1
   106    89    88    2
   107   131   130   ar
   108   124   121    1
   109   132   130   ar
   110   106   105    2
   111   130   129    1
   112   121   122    1
   113   121   120    1
   114   125   122   am
   115   125   126    1
   116   105   104    1
   117   122   123    2
   118   126   129    1
   119   126   127    1
   120   107   104    1
   121   107   108    1
   122   104   103    1
   123   108   109    1
   124   127   128    2
   125   109   111   am
   126   109   110    2
