@<TRIPOS>MOLECULE
tmp/5aneA00.pdb
 117 109 0 0 0
SMALL
GASTEIGER

@<TRIPOS>ATOM
      1  N         -0.6750  -12.9030  -33.3940 N.3    10  ILE10      -0.1231
      2  CA         0.4470  -12.4320  -32.6120 C.3    10  ILE10       0.1692
      3  C          0.4930  -13.2360  -31.3900 C.2    10  ILE10       0.2592
      4  O          1.5380  -13.6380  -30.9740 O.2    10  ILE10      -0.2718
      5  CB         0.2350  -10.9970  -32.0510 C.3    10  ILE10       0.0266
      6  CG1        0.7190   -9.9580  -32.9970 C.3    10  ILE10       0.0019
      7  CG2        1.0010  -10.8010  -30.7350 C.3    10  ILE10       0.0020
      8  CD1        0.4510   -8.5590  -32.4770 C.3    10  ILE10       0.0001
      9  N         -0.6810  -13.4200  -30.7870 N.am   11  GLY11      -0.1957
     10  CA        -0.7570  -13.8830  -29.4340 C.3    11  GLY11       0.1869
     11  C         -2.1760  -14.3000  -29.1160 C.2    11  GLY11       0.2309
     12  O         -3.0940  -14.0720  -29.9290 O.2    11  GLY11      -0.2863
     13  N         -5.0950  -11.9080  -30.4390 N.3    18  VAL18      -0.1245
     14  CA        -4.4600  -10.6250  -30.7480 C.3    18  VAL18       0.1561
     15  C         -3.7780  -10.7390  -32.1120 C.2    18  VAL18       0.2260
     16  O         -3.0440  -11.6940  -32.3780 O.2    18  VAL18      -0.2867
     17  CB        -3.3440  -10.2640  -29.7570 C.3    18  VAL18       0.0252
     18  CG1       -2.8190   -8.8710  -30.0970 C.3    18  VAL18       0.0019
     19  CG2       -3.8240  -10.2860  -28.3380 C.3    18  VAL18       0.0019
     20  N         -2.0430   -3.2880  -33.3580 N.3    31  ALA31      -0.1245
     21  CA        -2.4490   -4.5060  -32.7310 C.3    31  ALA31       0.1562
     22  C         -3.9280   -4.4660  -32.5860 C.2    31  ALA31       0.2260
     23  O         -4.4850   -3.5000  -32.0670 O.2    31  ALA31      -0.2867
     24  CB        -1.8050   -4.6240  -31.3460 C.3    31  ALA31       0.0290
     25  N         -7.1230   -6.3160  -30.8230 N.3    33  LYS33      -0.1245
     26  CA        -7.4420   -7.2520  -29.7300 C.3    33  LYS33       0.1561
     27  C         -8.9080   -7.5730  -29.6750 C.2    33  LYS33       0.2260
     28  O         -9.7100   -6.7220  -29.3150 O.2    33  LYS33      -0.2867
     29  CB        -6.9610   -6.7350  -28.3750 C.3    33  LYS33       0.0271
     30  CG        -5.4800   -6.5290  -28.3520 C.3    33  LYS33       0.0035
     31  CD        -4.9700   -6.3610  -26.9170 C.3    33  LYS33       0.0206
     32  CE        -3.6080   -6.9230  -26.7290 C.3    33  LYS33       0.1093
     33  NZ        -2.8740   -6.6150  -25.5030 N.3    33  LYS33      -0.1314
     34  N          0.5000    1.9700  -23.5020 N.3    60  VAL60      -0.1245
     35  CA         0.2300    1.5910  -24.9200 C.3    60  VAL60       0.1561
     36  C         -1.0440    2.2950  -25.3730 C.2    60  VAL60       0.2260
     37  O         -2.0820    2.3180  -24.7050 O.2    60  VAL60      -0.2867
     38  CB         0.1330    0.0900  -25.0710 C.3    60  VAL60       0.0252
     39  CG1       -0.3320   -0.2450  -26.5230 C.3    60  VAL60       0.0019
     40  CG2        1.4020   -0.6030  -24.7050 C.3    60  VAL60       0.0019
     41  N         -4.8750   -0.9560  -30.9120 N.3    76  PHE76      -0.1227
     42  CA        -3.7820   -0.4610  -30.0550 C.3    76  PHE76       0.1736
     43  C         -2.5830   -0.1700  -30.8690 C.2    76  PHE76       0.2595
     44  O         -2.3250   -0.8140  -31.9020 O.2    76  PHE76      -0.2718
     45  CB        -3.4090   -1.5360  -29.0020 C.3    76  PHE76       0.0547
     46  CG        -4.3240   -1.5940  -27.8330 C.ar   76  PHE76      -0.0202
     47  CD1       -4.2280   -0.5930  -26.8320 C.ar   76  PHE76      -0.0042
     48  CD2       -5.2890   -2.6030  -27.6570 C.ar   76  PHE76      -0.0042
     49  CE1       -5.0380   -0.6420  -25.7160 C.ar   76  PHE76      -0.0003
     50  CE2       -6.1070   -2.6050  -26.5250 C.ar   76  PHE76      -0.0003
     51  CZ        -5.9970   -1.6440  -25.5740 C.ar   76  PHE76      -0.0000
     52  N         -1.8020    0.7920  -30.3910 N.am   77  GLU77      -0.1965
     53  CA        -0.4200    0.9900  -30.8080 C.3    77  GLU77       0.1733
     54  C          0.3090   -0.3450  -30.7600 C.2    77  GLU77       0.2616
     55  O          0.2160   -1.0830  -29.7560 O.2    77  GLU77      -0.2715
     56  CB         0.2240    1.9230  -29.7970 C.3    77  GLU77       0.0429
     57  CG         1.6920    2.1430  -29.9510 C.3    77  GLU77       0.1163
     58  CD         2.3090    2.9800  -28.8150 C.2    77  GLU77       0.3649
     59  OE1        1.6630    3.1930  -27.8090 O.co2  77  GLU77      -0.2457
     60  OE2        3.5100    3.3100  -28.9550 O.co2  77  GLU77      -0.2457
     61  N          1.0240   -0.6530  -31.8260 N.am   78  PHE78      -0.1960
     62  CA         1.7820   -1.8900  -31.9530 C.3    78  PHE78       0.1771
     63  C          3.1990   -1.7600  -31.4450 C.2    78  PHE78       0.2619
     64  O          3.8810   -0.7900  -31.7530 O.2    78  PHE78      -0.2715
     65  CB         1.8350   -2.3340  -33.4240 C.3    78  PHE78       0.0574
     66  CG         2.6290   -3.6210  -33.6200 C.ar   78  PHE78      -0.0200
     67  CD1        2.0330   -4.8700  -33.4690 C.ar   78  PHE78      -0.0042
     68  CD2        3.9720   -3.5920  -33.9460 C.ar   78  PHE78      -0.0042
     69  CE1        2.7640   -6.0000  -33.6090 C.ar   78  PHE78      -0.0003
     70  CE2        4.7040   -4.7300  -34.1330 C.ar   78  PHE78      -0.0003
     71  CZ         4.1140   -5.9660  -33.9240 C.ar   78  PHE78      -0.0000
     72  N          3.6350   -2.6710  -30.5760 N.am   79  LEU79      -0.1977
     73  CA         5.0680   -2.7510  -30.1700 C.3    79  LEU79       0.1596
     74  C          5.6100   -4.1400  -30.4350 C.2    79  LEU79       0.2287
     75  O          4.8800   -5.1140  -30.3620 O.2    79  LEU79      -0.2864
     76  CB         5.2860   -2.4750  -28.6850 C.3    79  LEU79       0.0297
     77  CG         5.1570   -0.9950  -28.3380 C.3    79  LEU79       0.0022
     78  CD1        3.7390   -0.6190  -28.0300 C.3    79  LEU79       0.0001
     79  CD2        6.0600   -0.6420  -27.1920 C.3    79  LEU79       0.0001
     80  N          7.9020   -7.9690  -26.0100 N.3    82  ASP82      -0.1295
     81  CA         7.4480   -7.7970  -24.6240 C.3    82  ASP82       0.1359
     82  C          8.5660   -8.1760  -23.6410 C.3    82  ASP82       0.2015
     83  O          9.6660   -8.7570  -24.0160 O.3    82  ASP82      -0.2188
     84  CB         6.1620   -8.5520  -24.3460 C.3    82  ASP82       0.1357
     85  CG         6.3270  -10.0470  -24.4270 C.2    82  ASP82       0.3664
     86  OD1        7.2500  -10.6100  -23.8490 O.co2  82  ASP82      -0.2456
     87  OD2        5.5090  -10.6910  -25.0350 O.co2  82  ASP82      -0.2456
     88  N          4.2890  -10.1960  -19.8560 N.3   127  GLN127     -0.1245
     89  CA         3.6600  -10.3260  -21.1710 C.3   127  GLN127      0.1566
     90  C          2.9010   -9.0370  -21.5480 C.2   127  GLN127      0.2260
     91  O          2.6370   -8.8300  -22.7030 O.2   127  GLN127     -0.2867
     92  CB         2.7140  -11.5500  -21.2500 C.3   127  GLN127      0.0367
     93  CG         3.3790  -12.9240  -21.1640 C.3   127  GLN127      0.0905
     94  CD         2.3960  -14.1110  -21.1810 C.2   127  GLN127      0.2608
     95  OE1        1.2010  -13.9790  -20.8420 O.2   127  GLN127     -0.2717
     96  NE2        2.9090  -15.3060  -21.5290 N.am  127  GLN127     -0.0878
     97  N          5.3510   -3.8800  -22.8080 N.3   130  LEU130     -0.1245
     98  CA         5.8930   -3.9720  -24.1560 C.3   130  LEU130      0.1561
     99  C          7.0200   -2.9850  -24.4370 C.2   130  LEU130      0.2260
    100  O          7.0320   -1.8870  -23.8470 O.2   130  LEU130     -0.2867
    101  CB         4.7230   -3.7250  -25.1160 C.3   130  LEU130      0.0270
    102  CG         3.4460   -4.5320  -24.8810 C.3   130  LEU130      0.0019
    103  CD1        2.4620   -4.3250  -26.0180 C.3   130  LEU130      0.0001
    104  CD2        3.8290   -5.9560  -24.8220 C.3   130  LEU130      0.0001
    105  N          0.5460   -2.3280  -21.4100 N.3   140  ALA140     -0.1231
    106  CA        -0.5300   -2.7410  -22.2660 C.3   140  ALA140      0.1694
    107  C         -1.7170   -3.2070  -21.4160 C.2   140  ALA140      0.2592
    108  O         -1.5380   -3.7340  -20.3150 O.2   140  ALA140     -0.2718
    109  CB        -0.1020   -3.8540  -23.1900 C.3   140  ALA140      0.0304
    110  N         -2.9120   -3.0910  -21.9950 N.am  141  ASP141     -0.1974
    111  CA        -4.1650   -3.5270  -21.3790 C.3   141  ASP141      0.1709
    112  C         -4.5470   -2.8250  -20.1100 C.2   141  ASP141      0.2293
    113  O         -5.2990   -3.3730  -19.2550 O.2   141  ASP141     -0.2864
    114  CB        -4.0960   -5.0440  -21.1330 C.3   141  ASP141      0.1436
    115  CG        -4.0240   -5.8410  -22.4220 C.2   141  ASP141      0.3671
    116  OD1       -4.1310   -5.3040  -23.5260 O.co2 141  ASP141     -0.2456
    117  OD2       -3.8450   -7.0960  -22.3260 O.co2 141  ASP141     -0.2456
@<TRIPOS>BOND
     1    70    68   ar
     2    70    71   ar
     3    68    66   ar
     4    71    69   ar
     5    66    67   ar
     6    66    65    1
     7    69    67   ar
     8    65    62    1
     9     1     2    1
    10    20    21    1
    11     6     8    1
    12     6     5    1
    13    21    22    1
    14    21    24    1
    15     2     5    1
    16     2     3    1
    17    22    23    2
    18    16    15    2
    19    15    14    1
    20     5     7    1
    21    62    61    1
    22    62    63    1
    23    44    43    2
    24    61    54   am
    25    64    63    2
    26    63    72   am
    27     3     4    2
    28     3     9   am
    29    41    42    1
    30    43    52   am
    31    43    42    1
    32    25    26    1
    33    53    54    1
    34    53    52    1
    35    53    56    1
    36     9    10    1
    37    54    55    2
    38    14    13    1
    39    14    17    1
    40    72    73    1
    41    74    75    2
    42    74    73    1
    43    73    76    1
    44    18    17    1
    45    42    45    1
    46    57    56    1
    47    57    58    1
    48    12    11    2
    49    17    19    1
    50    26    27    1
    51    26    29    1
    52    27    28    2
    53    10    11    1
    54    45    46    1
    55    60    58   ar
    56    58    59   ar
    57    76    77    1
    58    29    30    1
    59    30    31    1
    60    77    78    1
    61    77    79    1
    62    46    48   ar
    63    46    47   ar
    64    48    50   ar
    65    31    32    1
    66    47    49   ar
    67    32    33    1
    68    50    51   ar
    69    39    38    1
    70   103   102    1
    71    80    81    1
    72    49    51   ar
    73    36    35    1
    74    36    37    2
    75   101   102    1
    76   101    98    1
    77    38    35    1
    78    38    40    1
    79    87    85   ar
    80    35    34    1
    81   102   104    1
    82    81    84    1
    83    81    82    1
    84    99    98    1
    85    99   100    2
    86    85    84    1
    87    85    86   ar
    88    98    97    1
    89    83    82    1
    90   116   115   ar
    91   109   106    1
    92    91    90    2
    93   115   117   ar
    94   115   114    1
    95   106   107    1
    96   106   105    1
    97   110   107   am
    98   110   111    1
    99    90    89    1
   100    96    94   am
   101   107   108    2
   102   111   114    1
   103   111   112    1
   104    92    89    1
   105    92    93    1
   106    94    93    1
   107    94    95    2
   108    89    88    1
   109   112   113    2
