@<TRIPOS>MOLECULE
tmp/5angA00.pdb
 139 131 0 0 0
SMALL
GASTEIGER

@<TRIPOS>ATOM
      1  N         -0.8480  -11.9940  -31.7310 N.3     9  ILE9       -0.1231
      2  CA         0.1550  -11.5890  -30.7450 C.3     9  ILE9        0.1692
      3  C         -0.0640  -12.3800  -29.4530 C.2     9  ILE9        0.2593
      4  O          0.8450  -12.6920  -28.7410 O.2     9  ILE9       -0.2718
      5  CB        -0.0400  -10.1060  -30.3240 C.3     9  ILE9        0.0266
      6  CG1        0.3220   -9.1240  -31.4450 C.3     9  ILE9        0.0019
      7  CG2        0.7670   -9.7990  -29.0590 C.3     9  ILE9        0.0020
      8  CD1        0.1630   -7.6600  -31.0590 C.3     9  ILE9        0.0001
      9  N         -1.2990  -12.6130  -29.0800 N.am   10  GLY10      -0.1942
     10  CA        -1.5250  -13.2830  -27.8130 C.3    10  GLY10       0.2014
     11  C         -2.9880  -13.3630  -27.4920 C.2    10  GLY10       0.2639
     12  O         -3.8240  -12.7440  -28.1340 O.2    10  GLY10      -0.2714
     13  N         -3.3080  -14.1560  -26.4920 N.am   11  GLU11      -0.1963
     14  CA        -4.6930  -14.3060  -26.0970 C.3    11  GLU11       0.1733
     15  C         -4.6750  -13.9120  -24.6270 C.2    11  GLU11       0.2616
     16  O         -4.1860  -14.6530  -23.7960 O.2    11  GLU11      -0.2715
     17  CB        -5.2050  -15.7230  -26.4630 C.3    11  GLU11       0.0429
     18  CG        -4.8660  -16.0260  -27.9400 C.3    11  GLU11       0.1163
     19  CD        -5.3680  -17.3450  -28.5070 C.2    11  GLU11       0.3649
     20  OE1       -5.2630  -18.3860  -27.8220 O.co2  11  GLU11      -0.2457
     21  OE2       -5.8200  -17.3440  -29.6770 O.co2  11  GLU11      -0.2457
     22  N         -5.1040  -12.6760  -24.3480 N.am   12  GLY12      -0.1955
     23  CA        -5.2120  -12.1490  -22.9830 C.3    12  GLY12       0.1869
     24  C         -6.5500  -12.4610  -22.3280 C.2    12  GLY12       0.2309
     25  O         -7.2430  -13.4170  -22.7160 O.2    12  GLY12      -0.2863
     26  N         -5.6570  -10.7780  -29.0920 N.3    15  VAL15      -0.1245
     27  CA        -4.8740   -9.6340  -29.6020 C.3    15  VAL15       0.1561
     28  C         -4.1760   -9.9880  -30.9360 C.2    15  VAL15       0.2260
     29  O         -3.4690  -10.9990  -31.0590 O.2    15  VAL15      -0.2867
     30  CB        -3.8420   -9.1250  -28.5630 C.3    15  VAL15       0.0252
     31  CG1       -3.2280   -7.8050  -29.0390 C.3    15  VAL15       0.0019
     32  CG2       -4.5230   -8.8680  -27.2100 C.3    15  VAL15       0.0019
     33  N         -2.1490   -2.8750  -32.5500 N.3    28  ALA28      -0.1245
     34  CA        -2.5160   -4.0810  -31.8460 C.3    28  ALA28       0.1562
     35  C         -4.0520   -4.0020  -31.6990 C.2    28  ALA28       0.2260
     36  O         -4.5980   -3.1130  -31.0270 O.2    28  ALA28      -0.2867
     37  CB        -1.8290   -4.1300  -30.4930 C.3    28  ALA28       0.0290
     38  N         -7.3180   -5.5970  -30.1610 N.3    30  LYS30      -0.1245
     39  CA        -7.8930   -6.5330  -29.1990 C.3    30  LYS30       0.1561
     40  C         -9.4240   -6.7130  -29.4510 C.2    30  LYS30       0.2260
     41  O        -10.1920   -5.7670  -29.2690 O.2    30  LYS30      -0.2867
     42  CB        -7.6400   -6.0590  -27.7910 C.3    30  LYS30       0.0271
     43  CG        -8.2600   -6.9220  -26.7030 C.3    30  LYS30       0.0035
     44  CD        -7.8830   -6.4010  -25.3390 C.3    30  LYS30       0.0206
     45  CE        -7.2260   -7.4640  -24.4770 C.3    30  LYS30       0.1093
     46  NZ        -6.2870   -6.7430  -23.5500 N.3    30  LYS30      -0.1314
     47  N          0.7170    2.4730  -22.9400 N.3    51  VAL51      -0.1245
     48  CA         0.4030    2.1720  -24.3300 C.3    51  VAL51       0.1561
     49  C         -0.8970    2.9220  -24.7140 C.2    51  VAL51       0.2260
     50  O         -1.9140    2.8130  -24.0310 O.2    51  VAL51      -0.2867
     51  CB         0.2180    0.6640  -24.5260 C.3    51  VAL51       0.0252
     52  CG1       -0.2870    0.2370  -25.9160 C.3    51  VAL51       0.0019
     53  CG2        1.5620    0.0020  -24.2900 C.3    51  VAL51       0.0019
     54  N         -4.9170   -0.4980  -30.1300 N.3    64  PHE64      -0.1227
     55  CA        -3.7820    0.0190  -29.3210 C.3    64  PHE64       0.1736
     56  C         -2.5800    0.3330  -30.2310 C.2    64  PHE64       0.2595
     57  O         -2.4240   -0.2700  -31.3000 O.2    64  PHE64      -0.2718
     58  CB        -3.3910   -1.0260  -28.2500 C.3    64  PHE64       0.0547
     59  CG        -4.3830   -1.1510  -27.1340 C.ar   64  PHE64      -0.0202
     60  CD1       -4.4630   -0.1850  -26.1570 C.ar   64  PHE64      -0.0042
     61  CD2       -5.2250   -2.2600  -27.0420 C.ar   64  PHE64      -0.0042
     62  CE1       -5.3270   -0.3240  -25.0850 C.ar   64  PHE64      -0.0003
     63  CE2       -6.1260   -2.3780  -25.9860 C.ar   64  PHE64      -0.0003
     64  CZ        -6.1870   -1.3900  -25.0350 C.ar   64  PHE64      -0.0000
     65  N         -1.7890    1.2900  -29.8110 N.am   65  GLU65      -0.1965
     66  CA        -0.3920    1.5110  -30.2960 C.3    65  GLU65       0.1733
     67  C          0.3080    0.1590  -30.2900 C.2    65  GLU65       0.2616
     68  O          0.1240   -0.6780  -29.3340 O.2    65  GLU65      -0.2715
     69  CB         0.2600    2.4980  -29.3490 C.3    65  GLU65       0.0429
     70  CG         1.7100    2.8340  -29.5520 C.3    65  GLU65       0.1163
     71  CD         2.3500    3.5120  -28.3450 C.2    65  GLU65       0.3649
     72  OE1        1.7210    3.8690  -27.2570 O.co2  65  GLU65      -0.2457
     73  OE2        3.5710    3.6910  -28.4960 O.co2  65  GLU65      -0.2457
     74  N          1.0250   -0.1290  -31.3700 N.am   66  PHE66      -0.1960
     75  CA         1.7560   -1.3690  -31.5000 C.3    66  PHE66       0.1771
     76  C          3.2010   -1.1920  -31.0140 C.2    66  PHE66       0.2619
     77  O          3.8620   -0.2490  -31.4180 O.2    66  PHE66      -0.2715
     78  CB         1.7570   -1.8800  -32.9570 C.3    66  PHE66       0.0574
     79  CG         2.4440   -3.1410  -33.1330 C.ar   66  PHE66      -0.0200
     80  CD1        1.8580   -4.3200  -32.7270 C.ar   66  PHE66      -0.0042
     81  CD2        3.7180   -3.1850  -33.6400 C.ar   66  PHE66      -0.0042
     82  CE1        2.5170   -5.4970  -32.8230 C.ar   66  PHE66      -0.0003
     83  CE2        4.4020   -4.3690  -33.7180 C.ar   66  PHE66      -0.0003
     84  CZ         3.7920   -5.5340  -33.3390 C.ar   66  PHE66      -0.0000
     85  N          3.6670   -2.1320  -30.1750 N.am   67  LEU67      -0.1977
     86  CA         5.1010   -2.2420  -29.7650 C.3    67  LEU67       0.1596
     87  C          5.5510   -3.6700  -30.0480 C.2    67  LEU67       0.2287
     88  O          4.7890   -4.6070  -29.8700 O.2    67  LEU67      -0.2864
     89  CB         5.3040   -1.8240  -28.3140 C.3    67  LEU67       0.0297
     90  CG         5.3950   -0.3140  -28.0390 C.3    67  LEU67       0.0022
     91  CD1        3.9890    0.2550  -27.8360 C.3    67  LEU67       0.0001
     92  CD2        6.2530   -0.0150  -26.8230 C.3    67  LEU67       0.0001
     93  N          2.3780   -7.6410  -15.2450 N.3   113  LYS113     -0.1245
     94  CA         3.2990   -8.7300  -15.4140 C.3   113  LYS113      0.1561
     95  C          4.2430   -8.4940  -16.5600 C.2   113  LYS113      0.2260
     96  O          3.9800   -7.6560  -17.3890 O.2   113  LYS113     -0.2867
     97  CB         2.5570  -10.0220  -15.6290 C.3   113  LYS113      0.0271
     98  CG         1.6710  -10.0250  -16.8210 C.3   113  LYS113      0.0035
     99  CD         1.0220  -11.3840  -16.9530 C.3   113  LYS113      0.0206
    100  CE        -0.3270  -11.4030  -16.3130 C.3   113  LYS113      0.1093
    101  NZ        -1.3250  -11.4520  -17.4030 N.3   113  LYS113     -0.1314
    102  N          4.7740   -9.8140  -19.3290 N.3   115  GLN115     -0.1231
    103  CA         4.1330   -9.9500  -20.6180 C.3   115  GLN115      0.1698
    104  C          3.3900   -8.6980  -21.0570 C.2   115  GLN115      0.2592
    105  O          3.2040   -8.5120  -22.2210 O.2   115  GLN115     -0.2718
    106  CB         3.0930  -11.0330  -20.5740 C.3   115  GLN115      0.0381
    107  CG         3.5320  -12.4180  -20.8790 C.3   115  GLN115      0.0905
    108  CD         2.3290  -13.2810  -21.2180 C.2   115  GLN115      0.2608
    109  OE1        1.3990  -13.4210  -20.4320 O.2   115  GLN115     -0.2717
    110  NE2        2.3290  -13.8190  -22.4060 N.am  115  GLN115     -0.0878
    111  N          2.9380   -7.8790  -20.1150 N.am  116  ASN116     -0.1974
    112  CA         2.2340   -6.6730  -20.5110 C.3   116  ASN116      0.1688
    113  C          2.9890   -5.3740  -20.3140 C.2   116  ASN116      0.2292
    114  O          2.4180   -4.3250  -20.3430 O.2   116  ASN116     -0.2864
    115  CB         0.7960   -6.6490  -20.0250 C.3   116  ASN116      0.1181
    116  CG         0.6900   -6.7040  -18.5570 C.2   116  ASN116      0.2629
    117  OD1        1.5050   -6.1850  -17.8890 O.2   116  ASN116     -0.2716
    118  ND2       -0.3350   -7.3260  -18.0660 N.am  116  ASN116     -0.0877
    119  N          5.6750   -3.3690  -22.3260 N.3   118  LEU118     -0.1245
    120  CA         6.1030   -3.3450  -23.7300 C.3   118  LEU118      0.1561
    121  C          7.2730   -2.3780  -23.8830 C.2   118  LEU118      0.2260
    122  O          7.2810   -1.2980  -23.3060 O.2   118  LEU118     -0.2867
    123  CB         4.9330   -2.9810  -24.6060 C.3   118  LEU118      0.0270
    124  CG         3.7000   -3.8620  -24.4780 C.3   118  LEU118      0.0019
    125  CD1        2.7140   -3.4800  -25.6030 C.3   118  LEU118      0.0001
    126  CD2        3.9880   -5.3730  -24.5430 C.3   118  LEU118      0.0001
    127  N          0.7710   -1.8790  -20.5000 N.3   128  ALA128     -0.1231
    128  CA        -0.2740   -2.2900  -21.3980 C.3   128  ALA128      0.1694
    129  C         -1.2850   -3.2060  -20.7210 C.2   128  ALA128      0.2592
    130  O         -1.0800   -3.6310  -19.6410 O.2   128  ALA128     -0.2718
    131  CB         0.3090   -2.9530  -22.6210 C.3   128  ALA128      0.0304
    132  N         -2.3700   -3.4860  -21.4060 N.am  129  ASP129     -0.1974
    133  CA        -3.2710   -4.5390  -20.9990 C.3   129  ASP129      0.1709
    134  C         -3.8160   -4.3630  -19.5730 C.2   129  ASP129      0.2293
    135  O         -3.7590   -5.2610  -18.7480 O.2   129  ASP129     -0.2864
    136  CB        -2.5710   -5.8880  -21.1620 C.3   129  ASP129      0.1436
    137  CG        -3.5220   -7.0620  -21.0980 C.2   129  ASP129      0.3671
    138  OD1       -4.6670   -6.9410  -21.4600 O.co2 129  ASP129     -0.2456
    139  OD2       -3.1100   -8.1000  -20.6550 O.co2 129  ASP129     -0.2456
@<TRIPOS>BOND
     1    83    81   ar
     2    83    84   ar
     3    81    79   ar
     4    84    82   ar
     5    79    78    1
     6    79    80   ar
     7    78    75    1
     8    82    80   ar
     9    33    34    1
    10    34    35    1
    11    34    37    1
    12     1     2    1
    13    35    36    2
    14    75    74    1
    15    75    76    1
    16     6     8    1
    17     6     5    1
    18    77    76    2
    19    74    67   am
    20    57    56    2
    21    29    28    2
    22    76    85   am
    23    28    27    1
    24     2     5    1
    25     2     3    1
    26     5     7    1
    27    66    67    1
    28    66    65    1
    29    66    69    1
    30    67    68    2
    31    56    65   am
    32    56    55    1
    33    85    86    1
    34    38    39    1
    35    54    55    1
    36    87    88    2
    37    87    86    1
    38    86    89    1
    39    21    19   ar
    40    27    26    1
    41    27    30    1
    42    70    69    1
    43    70    71    1
    44     3     9   am
    45     3     4    2
    46    40    41    2
    47    40    39    1
    48    55    58    1
    49    39    42    1
    50     9    10    1
    51    31    30    1
    52    30    32    1
    53    19    18    1
    54    19    20   ar
    55    73    71   ar
    56    71    72   ar
    57    89    90    1
    58    58    59    1
    59    12    11    2
    60    90    91    1
    61    90    92    1
    62    18    17    1
    63    10    11    1
    64    42    43    1
    65    11    13   am
    66    59    61   ar
    67    59    60   ar
    68    61    63   ar
    69    43    44    1
    70    13    14    1
    71    17    14    1
    72    60    62   ar
    73    14    15    1
    74    63    64   ar
    75    52    51    1
    76   125   124    1
    77    44    45    1
    78    62    64   ar
    79    49    48    1
    80    49    50    2
    81    15    22   am
    82    15    16    2
    83   123   124    1
    84   123   120    1
    85   126   124    1
    86    51    48    1
    87    51    53    1
    88    45    46    1
    89    22    23    1
    90    48    47    1
    91   121   120    1
    92   121   122    2
    93   120   119    1
    94    23    24    1
    95    25    24    2
    96   131   128    1
    97   110   108   am
    98   105   104    2
    99   138   137   ar
   100   132   133    1
   101   132   129   am
   102   128   129    1
   103   128   127    1
   104   108   107    1
   105   108   109    2
   106   136   137    1
   107   136   133    1
   108   137   139   ar
   109   104   103    1
   110   104   111   am
   111   133   134    1
   112   107   106    1
   113   129   130    2
   114   103   106    1
   115   103   102    1
   116   112   113    1
   117   112   111    1
   118   112   115    1
   119   114   113    2
   120   115   116    1
   121   134   135    2
   122   116   118   am
   123   116   117    2
   124   101   100    1
   125    96    95    2
   126    99    98    1
   127    99   100    1
   128    98    97    1
   129    95    94    1
   130    97    94    1
   131    94    93    1
