@<TRIPOS>MOLECULE
tmp/5aniA00.pdb
 105 98 0 0 0
SMALL
GASTEIGER

@<TRIPOS>ATOM
      1  N         -0.8690  -12.6180  -33.0780 N.3     9  ILE9       -0.1245
      2  CA         0.1410  -12.5070  -32.0740 C.3     9  ILE9        0.1561
      3  C         -0.0670  -13.5650  -31.0120 C.2     9  ILE9        0.2260
      4  O          0.8970  -14.0860  -30.4720 O.2     9  ILE9       -0.2867
      5  CB         0.1740  -11.1180  -31.4260 C.3     9  ILE9        0.0252
      6  CG1        0.6420  -10.0910  -32.4490 C.3     9  ILE9        0.0019
      7  CG2        1.0640  -11.1200  -30.1720 C.3     9  ILE9        0.0019
      8  CD1        0.2940   -8.6670  -32.0270 C.3     9  ILE9        0.0001
      9  N         -5.3100  -11.4640  -29.9700 N.3    17  VAL17      -0.1245
     10  CA        -4.6110  -10.2490  -30.4100 C.3    17  VAL17       0.1561
     11  C         -4.0180  -10.4780  -31.7600 C.2    17  VAL17       0.2260
     12  O         -3.3270  -11.5080  -31.9950 O.2    17  VAL17      -0.2867
     13  CB        -3.5030   -9.8360  -29.4460 C.3    17  VAL17       0.0252
     14  CG1       -3.0690   -8.4060  -29.7570 C.3    17  VAL17       0.0019
     15  CG2       -3.9880   -9.9100  -28.0050 C.3    17  VAL17       0.0019
     16  N         -2.2190   -3.1060  -33.0490 N.3    30  ALA30      -0.1245
     17  CA        -2.6110   -4.3480  -32.3930 C.3    30  ALA30       0.1562
     18  C         -4.0970   -4.2860  -32.2540 C.2    30  ALA30       0.2260
     19  O         -4.6490   -3.3220  -31.7520 O.2    30  ALA30      -0.2867
     20  CB        -1.9440   -4.4800  -31.0230 C.3    30  ALA30       0.0290
     21  N         -7.2890   -6.1980  -30.6190 N.3    32  LYS32      -0.1245
     22  CA        -7.7210   -7.2290  -29.6970 C.3    32  LYS32       0.1561
     23  C         -9.2190   -7.4130  -29.8390 C.2    32  LYS32       0.2260
     24  O         -9.9990   -6.4480  -29.7360 O.2    32  LYS32      -0.2867
     25  CB        -7.3660   -6.8140  -28.2660 C.3    32  LYS32       0.0271
     26  CG        -5.8820   -6.4880  -28.1720 C.3    32  LYS32       0.0035
     27  CD        -5.3490   -6.4210  -26.7480 C.3    32  LYS32       0.0206
     28  CE        -3.8430   -6.2630  -26.7900 C.3    32  LYS32       0.1093
     29  NZ        -3.1920   -6.2990  -25.4650 N.3    32  LYS32      -0.1314
     30  N          0.4900    2.2010  -23.3080 N.3    54  VAL54      -0.1245
     31  CA         0.2600    1.8100  -24.6810 C.3    54  VAL54       0.1561
     32  C         -1.0080    2.5390  -25.1140 C.2    54  VAL54       0.2260
     33  O         -2.0590    2.3990  -24.4850 O.2    54  VAL54      -0.2867
     34  CB         0.0950    0.2900  -24.8190 C.3    54  VAL54       0.0252
     35  CG1       -0.3770   -0.0960  -26.2370 C.3    54  VAL54       0.0019
     36  CG2        1.4140   -0.3970  -24.4950 C.3    54  VAL54       0.0019
     37  N         -4.9380   -0.7510  -30.6140 N.3    70  PHE70      -0.1227
     38  CA        -3.8850   -0.2120  -29.7570 C.3    70  PHE70       0.1736
     39  C         -2.7100    0.0310  -30.6270 C.2    70  PHE70       0.2595
     40  O         -2.5080   -0.6580  -31.6130 O.2    70  PHE70      -0.2718
     41  CB        -3.4310   -1.2380  -28.7000 C.3    70  PHE70       0.0547
     42  CG        -4.3790   -1.4150  -27.5500 C.ar   70  PHE70      -0.0202
     43  CD1       -4.4010   -0.5010  -26.5020 C.ar   70  PHE70      -0.0042
     44  CD2       -5.1940   -2.5220  -27.4680 C.ar   70  PHE70      -0.0042
     45  CE1       -5.2480   -0.6580  -25.4350 C.ar   70  PHE70      -0.0003
     46  CE2       -6.0670   -2.6700  -26.4250 C.ar   70  PHE70      -0.0003
     47  CZ        -6.0570   -1.7510  -25.3810 C.ar   70  PHE70      -0.0000
     48  N         -1.9060    0.9830  -30.2040 N.am   71  GLU71      -0.1965
     49  CA        -0.5060    1.1240  -30.6030 C.3    71  GLU71       0.1733
     50  C          0.2360   -0.2050  -30.5860 C.2    71  GLU71       0.2616
     51  O          0.1480   -0.9790  -29.6060 O.2    71  GLU71      -0.2715
     52  CB         0.1240    2.0880  -29.5640 C.3    71  GLU71       0.0429
     53  CG         1.5980    2.2520  -29.6970 C.3    71  GLU71       0.1163
     54  CD         2.2290    3.1560  -28.6320 C.2    71  GLU71       0.3649
     55  OE1        1.5920    3.5960  -27.6360 O.co2  71  GLU71      -0.2457
     56  OE2        3.4300    3.3910  -28.8080 O.co2  71  GLU71      -0.2457
     57  N          0.9760   -0.4800  -31.6370 N.am   72  PHE72      -0.1960
     58  CA         1.8060   -1.6700  -31.7290 C.3    72  PHE72       0.1771
     59  C          3.2150   -1.4720  -31.2820 C.2    72  PHE72       0.2619
     60  O          3.8230   -0.5240  -31.6950 O.2    72  PHE72      -0.2715
     61  CB         1.8270   -2.1720  -33.1530 C.3    72  PHE72       0.0574
     62  CG         2.5490   -3.4610  -33.3400 C.ar   72  PHE72      -0.0200
     63  CD1        1.8780   -4.6610  -33.2130 C.ar   72  PHE72      -0.0042
     64  CD2        3.8760   -3.4830  -33.6770 C.ar   72  PHE72      -0.0042
     65  CE1        2.5340   -5.8510  -33.3440 C.ar   72  PHE72      -0.0003
     66  CE2        4.5260   -4.6570  -33.8380 C.ar   72  PHE72      -0.0003
     67  CZ         3.8510   -5.8500  -33.6800 C.ar   72  PHE72      -0.0000
     68  N          3.7180   -2.3960  -30.4410 N.am   73  LEU73      -0.1977
     69  CA         5.1420   -2.5040  -30.0830 C.3    73  LEU73       0.1596
     70  C          5.6360   -3.8760  -30.3940 C.2    73  LEU73       0.2287
     71  O          4.9220   -4.8370  -30.2580 O.2    73  LEU73      -0.2864
     72  CB         5.4080   -2.2060  -28.5910 C.3    73  LEU73       0.0297
     73  CG         5.3110   -0.7110  -28.2410 C.3    73  LEU73       0.0022
     74  CD1        3.8780   -0.3630  -27.8950 C.3    73  LEU73       0.0001
     75  CD2        6.2210   -0.2760  -27.0960 C.3    73  LEU73       0.0001
     76  N          4.3390   -9.8960  -19.5210 N.3   121  GLN121     -0.1245
     77  CA         3.7480  -10.0200  -20.8590 C.3   121  GLN121      0.1566
     78  C          2.9640   -8.7720  -21.2610 C.2   121  GLN121      0.2260
     79  O          2.6780   -8.5640  -22.4350 O.2   121  GLN121     -0.2867
     80  CB         2.7970  -11.2170  -20.8730 C.3   121  GLN121      0.0367
     81  CG         3.4690  -12.5780  -21.0210 C.3   121  GLN121      0.0905
     82  CD         2.5510  -13.7200  -20.6140 C.2   121  GLN121      0.2608
     83  OE1        1.6340  -13.5460  -19.8080 O.2   121  GLN121     -0.2717
     84  NE2        2.8030  -14.9080  -21.1720 N.am  121  GLN121     -0.0878
     85  N          5.3930   -3.5710  -22.6790 N.3   124  LEU124     -0.1245
     86  CA         5.8910   -3.7210  -24.0370 C.3   124  LEU124      0.1561
     87  C          7.0180   -2.7320  -24.2860 C.2   124  LEU124      0.2260
     88  O          7.0300   -1.6720  -23.7030 O.2   124  LEU124     -0.2867
     89  CB         4.7320   -3.5200  -24.9860 C.3   124  LEU124      0.0270
     90  CG         3.4640   -4.3910  -24.8430 C.3   124  LEU124      0.0019
     91  CD1        2.4940   -3.9940  -25.9470 C.3   124  LEU124      0.0001
     92  CD2        3.8280   -5.8680  -24.8950 C.3   124  LEU124      0.0001
     93  N          0.5980   -2.1060  -21.0810 N.3   134  ALA134     -0.1231
     94  CA        -0.5110   -2.5060  -22.0060 C.3   134  ALA134      0.1694
     95  C         -1.7100   -3.0140  -21.1880 C.2   134  ALA134      0.2592
     96  O         -1.5420   -3.4660  -20.0680 O.2   134  ALA134     -0.2718
     97  CB        -0.0370   -3.5720  -22.9480 C.3   134  ALA134      0.0304
     98  N         -2.9050   -2.9270  -21.7500 N.am  135  ASP135     -0.1974
     99  CA        -4.1930   -3.4470  -21.1250 C.3   135  ASP135      0.1709
    100  C         -4.6080   -2.7440  -19.8440 C.2   135  ASP135      0.2293
    101  O         -5.3290   -3.2140  -18.9300 O.2   135  ASP135     -0.2864
    102  CB        -4.1270   -4.9310  -20.9730 C.3   135  ASP135      0.1436
    103  CG        -4.0270   -5.6380  -22.3310 C.2   135  ASP135      0.3671
    104  OD1       -4.1430   -4.9990  -23.4430 O.co2 135  ASP135     -0.2456
    105  OD2       -3.8470   -6.8580  -22.2860 O.co2 135  ASP135     -0.2456
@<TRIPOS>BOND
     1    66    67   ar
     2    66    64   ar
     3    67    65   ar
     4    64    62   ar
     5    65    63   ar
     6    62    63   ar
     7    62    61    1
     8    61    58    1
     9     1     2    1
    10    16    17    1
    11     6     8    1
    12     6     5    1
    13    17    18    1
    14    17    20    1
    15    18    19    2
    16     2     5    1
    17     2     3    1
    18    12    11    2
    19    11    10    1
    20    58    57    1
    21    58    59    1
    22    60    59    2
    23    57    50   am
    24    40    39    2
    25     5     7    1
    26    59    68   am
    27     3     4    2
    28    39    48   am
    29    39    38    1
    30    21    22    1
    31    37    38    1
    32    49    50    1
    33    49    48    1
    34    49    52    1
    35    50    51    2
    36    68    69    1
    37    10     9    1
    38    10    13    1
    39    70    71    2
    40    70    69    1
    41    69    72    1
    42    23    24    2
    43    23    22    1
    44    38    41    1
    45    14    13    1
    46    53    52    1
    47    53    54    1
    48    22    25    1
    49    13    15    1
    50    56    54   ar
    51    41    42    1
    52    54    55   ar
    53    72    73    1
    54    25    26    1
    55    73    74    1
    56    73    75    1
    57    26    27    1
    58    42    44   ar
    59    42    43   ar
    60    44    46   ar
    61    28    27    1
    62    28    29    1
    63    43    45   ar
    64    46    47   ar
    65    35    34    1
    66    91    90    1
    67    45    47   ar
    68    32    31    1
    69    32    33    2
    70    89    90    1
    71    89    86    1
    72    92    90    1
    73    34    31    1
    74    34    36    1
    75    31    30    1
    76    87    86    1
    77    87    88    2
    78    86    85    1
    79   104   103   ar
    80    97    94    1
    81    79    78    2
    82   103   105   ar
    83   103   102    1
    84    94    95    1
    85    94    93    1
    86    98    95   am
    87    98    99    1
    88    78    77    1
    89    95    96    2
    90    84    82   am
    91    99   102    1
    92    99   100    1
    93    81    80    1
    94    81    82    1
    95    80    77    1
    96    77    76    1
    97    82    83    2
    98   100   101    2
