@<TRIPOS>MOLECULE
tmp/5anjA00.pdb
 139 130 0 0 0
SMALL
GASTEIGER

@<TRIPOS>ATOM
      1  N         -0.6550  -12.5350  -33.1490 N.3     8  ILE8       -0.1231
      2  CA         0.3280  -12.2480  -32.1290 C.3     8  ILE8        0.1692
      3  C          0.2400  -13.2410  -30.9900 C.2     8  ILE8        0.2593
      4  O          1.2680  -13.6840  -30.4830 O.2     8  ILE8       -0.2718
      5  CB         0.1730  -10.8290  -31.5290 C.3     8  ILE8        0.0266
      6  CG1        0.6940   -9.7590  -32.5210 C.3     8  ILE8        0.0019
      7  CG2        0.9110  -10.6090  -30.2580 C.3     8  ILE8        0.0020
      8  CD1        0.2950   -8.3510  -32.2470 C.3     8  ILE8        0.0001
      9  N         -0.9710  -13.5730  -30.5980 N.am    9  GLY9       -0.1942
     10  CA        -1.2350  -14.4980  -29.4880 C.3     9  GLY9        0.2014
     11  C         -2.7050  -14.4990  -29.0470 C.2     9  GLY9        0.2639
     12  O         -3.5460  -13.8280  -29.5850 O.2     9  GLY9       -0.2714
     13  N         -2.9700  -15.2770  -28.0110 N.am   10  GLU10      -0.1963
     14  CA        -4.2270  -15.2790  -27.3070 C.3    10  GLU10       0.1733
     15  C         -4.0150  -14.3840  -26.0930 C.2    10  GLU10       0.2616
     16  O         -3.2760  -14.7130  -25.1970 O.2    10  GLU10      -0.2715
     17  CB        -4.5980  -16.7050  -26.8470 C.3    10  GLU10       0.0429
     18  CG        -4.1100  -17.8280  -27.7410 C.3    10  GLU10       0.1163
     19  CD        -5.0870  -18.2460  -28.8110 C.2    10  GLU10       0.3649
     20  OE1       -5.9850  -17.4450  -29.1800 O.co2  10  GLU10      -0.2457
     21  OE2       -4.9240  -19.4010  -29.2820 O.co2  10  GLU10      -0.2457
     22  N         -4.6150  -13.1980  -26.1000 N.am   11  GLY11      -0.1955
     23  CA        -4.5880  -12.3120  -24.9780 C.3    11  GLY11       0.1869
     24  C         -5.5590  -12.6530  -23.8670 C.2    11  GLY11       0.2309
     25  O         -6.3510  -13.5650  -24.0090 O.2    11  GLY11      -0.2863
     26  N         -5.3820  -11.7060  -30.4790 N.3    16  VAL16      -0.1301
     27  CA        -4.7400  -10.4190  -30.9060 C.3    16  VAL16       0.1246
     28  C         -3.9450  -10.6500  -32.2010 C.3    16  VAL16       0.2009
     29  O         -3.1390  -11.6660  -32.2750 O.3    16  VAL16      -0.2188
     30  CB        -3.7840   -9.9450  -29.8450 C.3    16  VAL16       0.0202
     31  CG1       -3.1180   -8.6680  -30.2810 C.3    16  VAL16       0.0016
     32  CG2       -4.5410   -9.7530  -28.5110 C.3    16  VAL16       0.0016
     33  N         -1.8270   -3.3960  -33.1460 N.3    29  ALA29      -0.1245
     34  CA        -2.3020   -4.5910  -32.4880 C.3    29  ALA29       0.1562
     35  C         -3.8020   -4.4940  -32.3900 C.2    29  ALA29       0.2260
     36  O         -4.3510   -3.6380  -31.7190 O.2    29  ALA29      -0.2867
     37  CB        -1.7050   -4.7200  -31.1290 C.3    29  ALA29       0.0290
     38  N         -7.2550   -6.2070  -31.1550 N.3    31  LYS31      -0.1245
     39  CA        -7.6690   -7.1070  -30.0530 C.3    31  LYS31       0.1561
     40  C         -9.1430   -7.3270  -30.1460 C.2    31  LYS31       0.2260
     41  O         -9.9060   -6.4010  -30.0200 O.2    31  LYS31      -0.2867
     42  CB        -7.2730   -6.5070  -28.7490 C.3    31  LYS31       0.0271
     43  CG        -5.7950   -6.2890  -28.6630 C.3    31  LYS31       0.0035
     44  CD        -5.2170   -6.2460  -27.3240 C.3    31  LYS31       0.0206
     45  CE        -3.6740   -6.1560  -27.3710 C.3    31  LYS31       0.1093
     46  NZ        -3.0910   -6.2940  -26.0380 N.3    31  LYS31      -0.1314
     47  N          0.7530    2.0200  -23.4810 N.3    62  VAL62      -0.1245
     48  CA         0.4870    1.6570  -24.8810 C.3    62  VAL62       0.1561
     49  C         -0.7930    2.3540  -25.2930 C.2    62  VAL62       0.2260
     50  O         -1.8440    2.2310  -24.6980 O.2    62  VAL62      -0.2867
     51  CB         0.3950    0.1470  -25.0110 C.3    62  VAL62       0.0252
     52  CG1       -0.0270   -0.2650  -26.4320 C.3    62  VAL62       0.0019
     53  CG2        1.6530   -0.5100  -24.5710 C.3    62  VAL62       0.0019
     54  N         -4.7260   -0.9770  -30.7210 N.3    78  PHE78      -0.1227
     55  CA        -3.6320   -0.4460  -29.9090 C.3    78  PHE78       0.1736
     56  C         -2.3980   -0.1930  -30.6910 C.2    78  PHE78       0.2595
     57  O         -2.0720   -0.8660  -31.6900 O.2    78  PHE78      -0.2718
     58  CB        -3.2520   -1.4980  -28.7920 C.3    78  PHE78       0.0547
     59  CG        -4.2320   -1.4760  -27.6590 C.ar   78  PHE78      -0.0202
     60  CD1       -4.1050   -0.5190  -26.6240 C.ar   78  PHE78      -0.0042
     61  CD2       -5.1240   -2.4880  -27.4790 C.ar   78  PHE78      -0.0042
     62  CE1       -4.9650   -0.5180  -25.5590 C.ar   78  PHE78      -0.0003
     63  CE2       -6.0310   -2.4500  -26.4500 C.ar   78  PHE78      -0.0003
     64  CZ        -5.9060   -1.5230  -25.4400 C.ar   78  PHE78      -0.0000
     65  N         -1.5390    0.6990  -30.2200 N.am   79  GLU79      -0.1965
     66  CA        -0.1720    0.8480  -30.7140 C.3    79  GLU79       0.1733
     67  C          0.5880   -0.4510  -30.6820 C.2    79  GLU79       0.2616
     68  O          0.4110   -1.2780  -29.7160 O.2    79  GLU79      -0.2715
     69  CB         0.5350    1.8480  -29.7730 C.3    79  GLU79       0.0429
     70  CG         1.9980    2.1260  -29.9120 C.3    79  GLU79       0.1163
     71  CD         2.5970    2.9750  -28.7280 C.2    79  GLU79       0.3649
     72  OE1        1.9040    3.2650  -27.7540 O.co2  79  GLU79      -0.2457
     73  OE2        3.7810    3.3650  -28.8630 O.co2  79  GLU79      -0.2457
     74  N          1.3130   -0.7520  -31.7400 N.am   80  PHE80      -0.1960
     75  CA         2.1010   -1.9260  -31.8540 C.3    80  PHE80       0.1771
     76  C          3.5350   -1.6940  -31.3840 C.2    80  PHE80       0.2619
     77  O          4.1870   -0.7280  -31.7690 O.2    80  PHE80      -0.2715
     78  CB         2.1410   -2.4110  -33.3130 C.3    80  PHE80       0.0574
     79  CG         2.9000   -3.6570  -33.4990 C.ar   80  PHE80      -0.0200
     80  CD1        2.3010   -4.8950  -33.2970 C.ar   80  PHE80      -0.0042
     81  CD2        4.2750   -3.6020  -33.8320 C.ar   80  PHE80      -0.0042
     82  CE1        3.0300   -6.0450  -33.4200 C.ar   80  PHE80      -0.0003
     83  CE2        4.9890   -4.7630  -33.9460 C.ar   80  PHE80      -0.0003
     84  CZ         4.3970   -5.9800  -33.7420 C.ar   80  PHE80      -0.0000
     85  N          4.0180   -2.5910  -30.5310 N.am   81  LEU81      -0.1977
     86  CA         5.4130   -2.6570  -30.1270 C.3    81  LEU81       0.1596
     87  C          6.0480   -4.0170  -30.4330 C.2    81  LEU81       0.2287
     88  O          5.3690   -5.0360  -30.3040 O.2    81  LEU81      -0.2864
     89  CB         5.6090   -2.3040  -28.6270 C.3    81  LEU81       0.0297
     90  CG         5.3970   -0.8070  -28.2350 C.3    81  LEU81       0.0022
     91  CD1        3.8890   -0.6470  -27.9640 C.3    81  LEU81       0.0001
     92  CD2        6.3370   -0.3900  -27.0690 C.3    81  LEU81       0.0001
     93  N          8.3740   -7.7950  -25.9600 N.3    84  ASP84      -0.1239
     94  CA         7.8310   -7.7110  -24.5920 C.3    84  ASP84       0.1674
     95  C          8.8930   -8.0840  -23.5890 C.2    84  ASP84       0.2266
     96  O          9.9480   -8.6260  -23.9330 O.2    84  ASP84      -0.2867
     97  CB         6.5070   -8.4230  -24.3820 C.3    84  ASP84       0.1410
     98  CG         6.5930   -9.9170  -24.4370 C.2    84  ASP84       0.3668
     99  OD1        7.4040  -10.5250  -23.7810 O.co2  84  ASP84      -0.2456
    100  OD2        5.7890  -10.4640  -25.1740 O.co2  84  ASP84      -0.2456
    101  N          9.7500  -11.9340  -23.1690 N.3    87  LYS87      -0.1245
    102  CA        10.6580  -12.3970  -24.2420 C.3    87  LYS87       0.1561
    103  C         12.0330  -11.8100  -24.0550 C.2    87  LYS87       0.2260
    104  O         13.0350  -12.5230  -24.1840 O.2    87  LYS87      -0.2867
    105  CB        10.0920  -11.9950  -25.6100 C.3    87  LYS87       0.0271
    106  CG         8.9780  -12.8890  -26.0200 C.3    87  LYS87       0.0035
    107  CD         8.6500  -12.5480  -27.4640 C.3    87  LYS87       0.0206
    108  CE         7.3800  -13.2240  -27.8730 C.3    87  LYS87       0.1093
    109  NZ         6.2500  -12.5050  -27.2420 N.3    87  LYS87      -0.1314
    110  N          4.4410  -10.0880  -19.6250 N.3   129  GLN129     -0.1245
    111  CA         3.8560  -10.1500  -20.9720 C.3   129  GLN129      0.1566
    112  C          3.0490   -8.9000  -21.3460 C.2   129  GLN129      0.2260
    113  O          2.6820   -8.7550  -22.5110 O.2   129  GLN129     -0.2867
    114  CB         2.9540  -11.3630  -21.0840 C.3   129  GLN129      0.0367
    115  CG         3.4910  -12.7120  -20.6510 C.3   129  GLN129      0.0905
    116  CD         3.1640  -13.0190  -19.1580 C.2   129  GLN129      0.2608
    117  OE1        3.8000  -12.4850  -18.2650 O.2   129  GLN129     -0.2717
    118  NE2        2.0890  -13.8560  -18.8920 N.am  129  GLN129     -0.0878
    119  N          5.6050   -3.8250  -22.7450 N.3   132  LEU132     -0.1245
    120  CA         6.1360   -3.8680  -24.0890 C.3   132  LEU132      0.1561
    121  C          7.2540   -2.9300  -24.3250 C.2   132  LEU132      0.2260
    122  O          7.2580   -1.8510  -23.7140 O.2   132  LEU132     -0.2867
    123  CB         4.9830   -3.5900  -25.0750 C.3   132  LEU132      0.0270
    124  CG         3.7300   -4.4590  -24.8650 C.3   132  LEU132      0.0019
    125  CD1        2.7160   -4.2020  -25.9760 C.3   132  LEU132      0.0001
    126  CD2        4.0920   -5.9020  -24.8600 C.3   132  LEU132      0.0001
    127  N          0.8260   -2.2480  -21.2390 N.3   142  ALA142     -0.1231
    128  CA        -0.2720   -2.6360  -22.1770 C.3   142  ALA142      0.1694
    129  C         -1.5300   -2.9960  -21.3770 C.2   142  ALA142      0.2592
    130  O         -1.4730   -3.4840  -20.2530 O.2   142  ALA142     -0.2718
    131  CB         0.1170   -3.7650  -23.0400 C.3   142  ALA142      0.0304
    132  N         -2.6570   -2.8690  -22.0490 N.am  143  ASP143     -0.1974
    133  CA        -3.9760   -3.2460  -21.5370 C.3   143  ASP143      0.1709
    134  C         -4.3710   -2.5660  -20.2780 C.2   143  ASP143      0.2293
    135  O         -5.1110   -3.1130  -19.4070 O.2   143  ASP143     -0.2864
    136  CB        -4.0890   -4.7960  -21.3890 C.3   143  ASP143      0.1436
    137  CG        -3.9680   -5.5140  -22.7000 C.2   143  ASP143      0.3671
    138  OD1       -3.9360   -4.9340  -23.7980 O.co2 143  ASP143     -0.2456
    139  OD2       -3.9010   -6.7710  -22.5910 O.co2 143  ASP143     -0.2456
@<TRIPOS>BOND
     1    83    81   ar
     2    83    84   ar
     3    81    79   ar
     4    84    82   ar
     5    79    78    1
     6    79    80   ar
     7    82    80   ar
     8    78    75    1
     9     1     2    1
    10    33    34    1
    11     6     8    1
    12     6     5    1
    13    34    35    1
    14    34    37    1
    15    35    36    2
    16    29    28    1
    17    28    27    1
    18     2     5    1
    19     2     3    1
    20    75    74    1
    21    75    76    1
    22    77    76    2
    23    74    67   am
    24    57    56    2
    25     5     7    1
    26    76    85   am
    27    38    39    1
    28     3     9   am
    29     3     4    2
    30    27    26    1
    31    27    30    1
    32    54    55    1
    33    66    67    1
    34    66    65    1
    35    66    69    1
    36    56    65   am
    37    56    55    1
    38    67    68    2
    39     9    10    1
    40    85    86    1
    41    87    88    2
    42    87    86    1
    43    31    30    1
    44    40    39    1
    45    40    41    2
    46    86    89    1
    47    39    42    1
    48    70    69    1
    49    70    71    1
    50    55    58    1
    51    30    32    1
    52    12    11    2
    53    10    11    1
    54    21    19   ar
    55    20    19   ar
    56    11    13   am
    57    73    71   ar
    58    19    18    1
    59    58    59    1
    60    42    43    1
    61    71    72   ar
    62    43    44    1
    63    89    90    1
    64    90    91    1
    65    90    92    1
    66    13    14    1
    67   108   107    1
    68   108   109    1
    69    18    17    1
    70    59    61   ar
    71    59    60   ar
    72    61    63   ar
    73   107   106    1
    74    45    44    1
    75    45    46    1
    76    14    17    1
    77    14    15    1
    78    60    62   ar
    79    63    64   ar
    80    52    51    1
    81    22    15   am
    82    22    23    1
    83    15    16    2
    84   106   105    1
    85   125   124    1
    86    93    94    1
    87   105   102    1
    88    62    64   ar
    89    49    48    1
    90    49    50    2
    91   100    98   ar
    92   123   124    1
    93   123   120    1
    94    51    48    1
    95    51    53    1
    96    23    24    1
    97    48    47    1
    98   124   126    1
    99    94    97    1
   100    94    95    1
   101    98    97    1
   102    98    99   ar
   103   121   120    1
   104   121   122    2
   105   102   103    1
   106   102   101    1
   107   104   103    2
   108   120   119    1
   109    25    24    2
   110    96    95    2
   111   138   137   ar
   112   131   128    1
   113   137   139   ar
   114   137   136    1
   115   113   112    2
   116   128   129    1
   117   128   127    1
   118   132   133    1
   119   132   129   am
   120   133   136    1
   121   133   134    1
   122   129   130    2
   123   112   111    1
   124   114   111    1
   125   114   115    1
   126   111   110    1
   127   115   116    1
   128   134   135    2
   129   116   118   am
   130   116   117    2
