@<TRIPOS>MOLECULE
tmp/5ankA00.pdb
 154 147 0 0 0
SMALL
GASTEIGER

@<TRIPOS>ATOM
      1  N          4.2710   13.4310  -15.6980 N.3    10  ILE10      -0.1231
      2  CA         4.5690   12.3290  -14.7690 C.3    10  ILE10       0.1692
      3  C          3.5380   12.3260  -13.6680 C.2    10  ILE10       0.2593
      4  O          3.0320   11.2880  -13.2730 O.2    10  ILE10      -0.2718
      5  CB         5.9230   12.4800  -14.0190 C.3    10  ILE10       0.0266
      6  CG1        7.1470   12.3730  -14.9430 C.3    10  ILE10       0.0019
      7  CG2        5.9910   11.4010  -12.9380 C.3    10  ILE10       0.0020
      8  CD1        8.4910   12.6440  -14.2930 C.3    10  ILE10       0.0001
      9  N          3.2910   13.5040  -13.1270 N.am   11  GLY11      -0.1942
     10  CA         2.3920   13.6450  -11.9980 C.3    11  GLY11       0.2014
     11  C          2.5250   15.0220  -11.3890 C.2    11  GLY11       0.2638
     12  O          2.7000   16.0090  -12.1160 O.2    11  GLY11      -0.2714
     13  N          2.4440   15.0790  -10.0570 N.am   12  GLU12      -0.1977
     14  CA         2.3710   16.3420   -9.3250 C.3    12  GLU12       0.1602
     15  C          3.1520   16.2860   -8.0130 C.2    12  GLU12       0.2287
     16  O          3.9150   15.3490   -7.7600 O.2    12  GLU12      -0.2864
     17  CB         0.8990   16.7170   -9.0890 C.3    12  GLU12       0.0415
     18  CG         0.1240   16.9120  -10.3830 C.3    12  GLU12       0.1163
     19  CD        -1.3240   17.2410  -10.1490 C.2    12  GLU12       0.3649
     20  OE1       -1.7130   17.3910   -8.9700 O.co2  12  GLU12      -0.2457
     21  OE2       -2.0690   17.3490  -11.1440 O.co2  12  GLU12      -0.2457
     22  N          4.8120   17.9160  -12.5800 N.3    18  VAL18      -0.1245
     23  CA         6.0720   17.2840  -13.0150 C.3    18  VAL18       0.1561
     24  C          5.8820   16.6450  -14.3820 C.2    18  VAL18       0.2260
     25  O          4.9060   15.8880  -14.6440 O.2    18  VAL18      -0.2867
     26  CB         6.6050   16.2590  -11.9930 C.3    18  VAL18       0.0252
     27  CG1        7.9560   15.7380  -12.4430 C.3    18  VAL18       0.0019
     28  CG2        6.7520   16.9100  -10.6300 C.3    18  VAL18       0.0019
     29  N         13.5210   15.5400  -15.8780 N.3    31  ALA31      -0.1245
     30  CA        12.2780   15.8740  -15.1810 C.3    31  ALA31       0.1562
     31  C         12.1620   17.4020  -15.0300 C.2    31  ALA31       0.2260
     32  O         13.0890   18.0880  -14.5540 O.2    31  ALA31      -0.2867
     33  CB        12.2320   15.1890  -13.8140 C.3    31  ALA31       0.0290
     34  N          9.9760   20.4530  -13.4740 N.3    33  LYS33      -0.1245
     35  CA         9.0830   20.7280  -12.3990 C.3    33  LYS33       0.1561
     36  C          8.7410   22.2080  -12.4900 C.2    33  LYS33       0.2260
     37  O          9.6230   23.0510  -12.2550 O.2    33  LYS33      -0.2867
     38  CB         9.8230   20.4040  -11.1040 C.3    33  LYS33       0.0271
     39  CG         8.9570   20.2890   -9.8730 C.3    33  LYS33       0.0035
     40  CD         9.6270   19.3610   -8.8550 C.3    33  LYS33       0.0206
     41  CE         9.9580   17.9650   -9.4230 C.3    33  LYS33       0.1093
     42  NZ         9.9860   16.8280   -8.4300 N.3    33  LYS33      -0.1314
     43  N         18.9800   13.1540   -6.1900 N.3    55  VAL55      -0.1245
     44  CA        18.5680   13.4710   -7.5620 C.3    55  VAL55       0.1561
     45  C         19.1370   14.8420   -7.9540 C.2    55  VAL55       0.2260
     46  O         18.8670   15.8790   -7.3000 O.2    55  VAL55      -0.2867
     47  CB        17.0260   13.5110   -7.7030 C.3    55  VAL55       0.0252
     48  CG1       16.5790   13.8340   -9.1270 C.3    55  VAL55       0.0019
     49  CG2       16.4280   12.1580   -7.3600 C.3    55  VAL55       0.0019
     50  N         15.5020   18.5670  -13.3760 N.3    67  PHE67      -0.1227
     51  CA        16.1790   17.5800  -12.5710 C.3    67  PHE67       0.1736
     52  C         16.5380   16.4030  -13.4500 C.2    67  PHE67       0.2595
     53  O         15.8880   16.1840  -14.4470 O.2    67  PHE67      -0.2718
     54  CB        15.2270   17.0380  -11.4850 C.3    67  PHE67       0.0547
     55  CG        15.0520   17.9400  -10.3010 C.ar   67  PHE67      -0.0202
     56  CD1       15.9810   17.9540   -9.2670 C.ar   67  PHE67      -0.0042
     57  CD2       13.9210   18.7450  -10.1940 C.ar   67  PHE67      -0.0042
     58  CE1       15.7810   18.7280   -8.1240 C.ar   67  PHE67      -0.0003
     59  CE2       13.7290   19.5420   -9.0530 C.ar   67  PHE67      -0.0003
     60  CZ        14.6660   19.5370   -8.0310 C.ar   67  PHE67      -0.0000
     61  N         17.5510   15.6530  -13.0230 N.am   68  GLU68      -0.1965
     62  CA        17.8480   14.3350  -13.5240 C.3    68  GLU68       0.1733
     63  C         16.5830   13.4800  -13.4870 C.2    68  GLU68       0.2616
     64  O         15.8090   13.5540  -12.5060 O.2    68  GLU68      -0.2715
     65  CB        18.9230   13.7400  -12.5970 C.3    68  GLU68       0.0429
     66  CG        19.0500   12.2360  -12.6360 C.3    68  GLU68       0.1163
     67  CD        20.0610   11.6470  -11.6350 C.2    68  GLU68       0.3649
     68  OE1       20.5150   12.3050  -10.6480 O.co2  68  GLU68      -0.2457
     69  OE2       20.3870   10.4640  -11.8400 O.co2  68  GLU68      -0.2457
     70  N         16.3590   12.6650  -14.5020 N.am   69  PHE69      -0.1960
     71  CA        15.1330   11.8420  -14.5720 C.3    69  PHE69       0.1771
     72  C         15.2840   10.3620  -14.1560 C.2    69  PHE69       0.2619
     73  O         16.2050    9.6620  -14.5710 O.2    69  PHE69      -0.2715
     74  CB        14.5290   11.9410  -15.9910 C.3    69  PHE69       0.0574
     75  CG        13.3560   11.0450  -16.1910 C.ar   69  PHE69      -0.0200
     76  CD1       13.5530    9.7240  -16.6440 C.ar   69  PHE69      -0.0042
     77  CD2       12.0750   11.4810  -15.9170 C.ar   69  PHE69      -0.0042
     78  CE1       12.4950    8.8850  -16.8360 C.ar   69  PHE69      -0.0003
     79  CE2       11.0130   10.6250  -16.0690 C.ar   69  PHE69      -0.0003
     80  CZ        11.2220    9.3050  -16.5030 C.ar   69  PHE69      -0.0000
     81  N         14.3430    9.8870  -13.3230 N.am   70  LEU70      -0.1963
     82  CA        14.2450    8.4940  -12.9340 C.3    70  LEU70       0.1728
     83  C         12.8300    7.9880  -13.1640 C.2    70  LEU70       0.2616
     84  O         11.8450    8.7350  -13.0170 O.2    70  LEU70      -0.2715
     85  CB        14.6870    8.2540  -11.4820 C.3    70  LEU70       0.0311
     86  CG        16.2050    8.3200  -11.2420 C.3    70  LEU70       0.0022
     87  CD1       16.6160    9.7380  -10.9360 C.3    70  LEU70       0.0001
     88  CD2       16.6920    7.4100  -10.1150 C.3    70  LEU70       0.0001
     89  N         12.7490    6.7230  -13.5350 N.am   71  HIS71      -0.1959
     90  CA        11.5230    6.1440  -14.0500 C.3    71  HIS71       0.1787
     91  C         10.5200    5.8080  -12.9530 C.2    71  HIS71       0.2620
     92  O          9.3430    5.9430  -13.1720 O.2    71  HIS71      -0.2715
     93  CB        11.8120    4.8690  -14.8250 C.3    71  HIS71       0.0785
     94  CG        12.2070    5.1220  -16.2410 C.ar   71  HIS71       0.0821
     95  ND1       13.5200    5.2420  -16.6310 N.ar   71  HIS71      -0.2267
     96  CD2       11.4590    5.3210  -17.3520 C.ar   71  HIS71       0.1154
     97  CE1       13.5680    5.5050  -17.9240 C.ar   71  HIS71       0.1986
     98  NE2       12.3290    5.5440  -18.3900 N.ar   71  HIS71      -0.2212
     99  N         10.9780    5.4160  -11.7830 N.am   72  GLN72      -0.1963
    100  CA        10.0420    4.9330  -10.7600 C.3    72  GLN72       0.1733
    101  C         10.3260    5.5750   -9.3970 C.2    72  GLN72       0.2616
    102  O         11.4400    5.9620   -9.1220 O.2    72  GLN72      -0.2715
    103  CB        10.1340    3.4100  -10.6940 C.3    72  GLN72       0.0408
    104  CG         8.9460    2.7510   -9.9810 C.3    72  GLN72       0.0908
    105  CD         8.4360    1.4930  -10.6740 C.2    72  GLN72       0.2608
    106  OE1        8.5740    1.3090  -11.8980 O.2    72  GLN72      -0.2717
    107  NE2        7.8230    0.6150   -9.8840 N.am   72  GLN72      -0.0878
    108  N          9.2950    5.7230   -8.5790 N.am   73  ASP73      -0.1971
    109  CA         9.4790    6.1630   -7.2000 C.3    73  ASP73       0.1709
    110  C          9.1110    5.0170   -6.2490 C.2    73  ASP73       0.2293
    111  O          8.3910    4.0970   -6.6460 O.2    73  ASP73      -0.2864
    112  CB         8.6730    7.4110   -6.8990 C.3    73  ASP73       0.1436
    113  CG         7.1590    7.1960   -6.9810 C.2    73  ASP73       0.3671
    114  OD1        6.5520    6.5890   -6.0610 O.co2  73  ASP73      -0.2456
    115  OD2        6.5580    7.6790   -7.9410 O.co2  73  ASP73      -0.2456
    116  N          5.5150    3.7280   -5.8260 N.3    76  LYS76      -0.1245
    117  CA         4.9900    2.8990   -6.9290 C.3    76  LYS76       0.1561
    118  C          5.4790    1.4980   -6.7350 C.2    76  LYS76       0.2260
    119  O          4.7180    0.5620   -6.8680 O.2    76  LYS76      -0.2867
    120  CB         5.4520    3.4050   -8.3100 C.3    76  LYS76       0.0271
    121  CG         5.0110    4.8090   -8.7310 C.3    76  LYS76       0.0035
    122  CD         5.7330    5.2780  -10.0190 C.3    76  LYS76       0.0206
    123  CE         5.2860    6.6560  -10.5210 C.3    76  LYS76       0.1093
    124  NZ         6.3030    7.3500  -11.3810 N.3    76  LYS76      -0.1314
    125  N          7.1600    8.9600   -2.2030 N.3   118  GLN118     -0.1245
    126  CA         6.9900    9.5110   -3.5720 C.3   118  GLN118      0.1566
    127  C          8.1930   10.3420   -3.9930 C.2   118  GLN118      0.2260
    128  O          8.3740   10.5390   -5.1870 O.2   118  GLN118     -0.2867
    129  CB         5.7610   10.3970   -3.6560 C.3   118  GLN118      0.0367
    130  CG         4.4910    9.7100   -3.2130 C.3   118  GLN118      0.0905
    131  CD         4.1940    9.9590   -1.7160 C.2   118  GLN118      0.2608
    132  OE1        4.6450    9.2270   -0.8040 O.2   118  GLN118     -0.2717
    133  NE2        3.4350   11.0310   -1.4620 N.am  118  GLN118     -0.0878
    134  N         13.3920    8.0780   -5.4370 N.3   121  LEU121     -0.1245
    135  CA        13.3670    7.5620   -6.8300 C.3   121  LEU121      0.1561
    136  C         14.3340    6.4100   -7.0270 C.2   121  LEU121      0.2260
    137  O         15.4650    6.4110   -6.4850 O.2   121  LEU121     -0.2867
    138  CB        13.6540    8.6980   -7.8580 C.3   121  LEU121      0.0270
    139  CG        12.8210   10.0050   -7.7520 C.3   121  LEU121      0.0019
    140  CD1       13.2320   10.9480   -8.8850 C.3   121  LEU121      0.0001
    141  CD2       11.3240    9.7490   -7.7890 C.3   121  LEU121      0.0001
    142  N         14.7750   12.8460   -3.9540 N.3   131  ALA131     -0.1231
    143  CA        14.2360   13.9480   -4.7650 C.3   131  ALA131      0.1694
    144  C         13.7060   15.1390   -3.9400 C.2   131  ALA131      0.2592
    145  O         13.3420   14.9980   -2.7930 O.2   131  ALA131     -0.2718
    146  CB        13.1320   13.4570   -5.7020 C.3   131  ALA131      0.0304
    147  N         13.5920   16.2880   -4.6020 N.am  132  ASP132     -0.1974
    148  CA        13.1570   17.5280   -3.9910 C.3   132  ASP132      0.1709
    149  C         13.9450   17.9800   -2.7430 C.2   132  ASP132      0.2293
    150  O         13.4020   18.6190   -1.8590 O.2   132  ASP132     -0.2864
    151  CB        11.6560   17.3890   -3.6820 C.3   132  ASP132      0.1436
    152  CG        10.8010   17.2700   -4.9600 C.2   132  ASP132      0.3671
    153  OD1       11.3170   17.5040   -6.0910 O.co2 132  ASP132     -0.2456
    154  OD2        9.6000   16.9220   -4.8370 O.co2 132  ASP132     -0.2456
@<TRIPOS>BOND
     1    98    97   ar
     2    98    96   ar
     3    97    95   ar
     4    96    94   ar
     5    78    76   ar
     6    78    80   ar
     7    76    75   ar
     8    95    94   ar
     9    80    79   ar
    10    94    93    1
    11    75    74    1
    12    75    77   ar
    13    79    77   ar
    14    74    71    1
    15    29    30    1
    16     1     2    1
    17    30    31    1
    18    30    33    1
    19    31    32    2
    20     6     8    1
    21     6     5    1
    22    93    90    1
    23     2     5    1
    24     2     3    1
    25    25    24    2
    26    71    70    1
    27    71    72    1
    28    73    72    2
    29    70    63   am
    30    53    52    2
    31    24    23    1
    32    72    81   am
    33    90    89    1
    34    90    91    1
    35     5     7    1
    36     3     4    2
    37     3     9   am
    38    89    83   am
    39    62    63    1
    40    62    61    1
    41    62    65    1
    42    63    64    2
    43    34    35    1
    44    52    61   am
    45    52    51    1
    46    50    51    1
    47    81    82    1
    48    92    91    2
    49    83    84    2
    50    83    82    1
    51     9    10    1
    52    23    22    1
    53    23    26    1
    54    91    99   am
    55    82    85    1
    56    66    65    1
    57    66    67    1
    58    51    54    1
    59    36    35    1
    60    36    37    2
    61    27    26    1
    62    35    38    1
    63    12    11    2
    64    10    11    1
    65    26    28    1
    66   106   105    2
    67    69    67   ar
    68    99   100    1
    69    67    68   ar
    70    54    55    1
    71    85    86    1
    72    11    13   am
    73   124   123    1
    74    86    87    1
    75    86    88    1
    76    21    19   ar
    77    38    39    1
    78   100   103    1
    79   100   101    1
    80   103   104    1
    81   105   104    1
    82   105   107   am
    83   123   122    1
    84    18    19    1
    85    18    17    1
    86    55    57   ar
    87    55    56   ar
    88    57    59   ar
    89    19    20   ar
    90    13    14    1
    91   122   121    1
    92    39    40    1
    93    41    40    1
    94    41    42    1
    95   101   102    2
    96   101   108   am
    97    14    17    1
    98    14    15    1
    99    56    58   ar
   100    48    47    1
   101    59    60   ar
   102   140   139    1
   103   121   120    1
   104   108   109    1
   105   120   117    1
   106    58    60   ar
   107    15    16    2
   108    45    44    1
   109    45    46    2
   110   115   113   ar
   111   138   139    1
   112   138   135    1
   113   141   139    1
   114    47    44    1
   115    47    49    1
   116    44    43    1
   117   109   112    1
   118   109   110    1
   119   136   135    1
   120   136   137    2
   121   113   112    1
   122   113   114   ar
   123   117   118    1
   124   117   116    1
   125   119   118    2
   126   135   134    1
   127   111   110    2
   128   153   152   ar
   129   146   143    1
   130   128   127    2
   131   152   154   ar
   132   152   151    1
   133   143   142    1
   134   143   144    1
   135   147   148    1
   136   147   144   am
   137   127   126    1
   138   148   151    1
   139   148   149    1
   140   144   145    2
   141   129   126    1
   142   129   130    1
   143   126   125    1
   144   130   131    1
   145   149   150    2
   146   131   133   am
   147   131   132    2
