@<TRIPOS>MOLECULE
tmp/5anmE00.pdb
 81 72 0 0 0
SMALL
GASTEIGER

@<TRIPOS>ATOM
      1  N        -91.7470  115.7750   62.1600 N.3     2  SER2       -0.1217
      2  CA       -91.3390  115.3100   63.5070 C.3     2  SER2        0.1889
      3  C        -89.9300  115.4240   64.1670 C.2     2  SER2        0.2288
      4  O        -88.9730  115.8470   63.5350 O.2     2  SER2       -0.2866
      5  CB       -91.7630  113.8350   63.5950 C.3     2  SER2        0.2089
      6  OG       -90.9120  112.9920   62.8400 O.3     2  SER2       -0.2183
      7  N        -87.3170  113.9490   67.9080 N.3     4  TYR4       -0.1241
      8  CA       -87.1360  113.0200   69.0370 C.3     4  TYR4        0.1605
      9  C        -85.8920  113.3180   69.9110 C.2     4  TYR4        0.2264
     10  O        -84.8690  113.7940   69.4000 O.2     4  TYR4       -0.2867
     11  CB       -87.0620  111.5730   68.5540 C.3     4  TYR4        0.0534
     12  CG       -87.8200  111.2640   67.2590 C.ar    4  TYR4       -0.0201
     13  CD1      -87.3200  111.6870   66.0010 C.ar    4  TYR4       -0.0009
     14  CD2      -89.0190  110.5250   67.2830 C.ar    4  TYR4       -0.0009
     15  CE1      -88.0100  111.4190   64.8380 C.ar    4  TYR4        0.0417
     16  CE2      -89.6950  110.2370   66.1130 C.ar    4  TYR4        0.0417
     17  CZ       -89.1880  110.6930   64.8980 C.ar    4  TYR4        0.1957
     18  OH       -89.8760  110.4190   63.7340 O.3     4  TYR4       -0.2866
     19  N        -83.1610  114.7590   67.5240 N.3    24  LEU24      -0.1245
     20  CA       -83.2050  114.3870   66.1190 C.3    24  LEU24       0.1561
     21  C        -84.4400  114.9630   65.5050 C.2    24  LEU24       0.2260
     22  O        -85.5560  114.7710   65.9670 O.2    24  LEU24      -0.2867
     23  CB       -83.2230  112.8650   65.9570 C.3    24  LEU24       0.0270
     24  CG       -83.3350  112.2700   64.5540 C.3    24  LEU24       0.0019
     25  CD1      -82.3500  112.9070   63.5980 C.3    24  LEU24       0.0001
     26  CD2      -83.1150  110.7710   64.6310 C.3    24  LEU24       0.0001
     27  N        -86.5750  115.2560   61.9040 N.3    26  VAL26      -0.1245
     28  CA       -86.8130  114.6730   60.5960 C.3    26  VAL26       0.1561
     29  C        -87.8560  115.4980   59.8190 C.2    26  VAL26       0.2260
     30  O        -89.0700  115.3120   59.9660 O.2    26  VAL26      -0.2867
     31  CB       -87.2500  113.1910   60.6840 C.3    26  VAL26       0.0252
     32  CG1      -87.2460  112.5560   59.2950 C.3    26  VAL26       0.0019
     33  CG2      -86.3420  112.3940   61.5990 C.3    26  VAL26       0.0019
     34  N        -89.6930  116.5940   56.3510 N.3    28  LEU28      -0.1245
     35  CA       -90.0360  116.1050   55.0020 C.3    28  LEU28       0.1561
     36  C        -90.4020  117.2800   54.0660 C.2    28  LEU28       0.2260
     37  O        -90.7790  117.0950   52.9270 O.2    28  LEU28      -0.2867
     38  CB       -91.1990  115.0980   55.1030 C.3    28  LEU28       0.0270
     39  CG       -90.9940  113.7070   55.7450 C.3    28  LEU28       0.0019
     40  CD1      -89.9400  113.6740   56.8240 C.3    28  LEU28       0.0001
     41  CD2      -92.2600  113.0980   56.3220 C.3    28  LEU28       0.0001
     42  N        -77.9860  117.0910   57.4040 N.3    55  GLU55      -0.1245
     43  CA       -77.7510  116.0700   56.3890 C.3    55  GLU55       0.1567
     44  C        -78.8570  116.1510   55.3790 C.2    55  GLU55       0.2260
     45  O        -80.0180  116.2710   55.7500 O.2    55  GLU55      -0.2867
     46  CB       -77.7250  114.6830   57.0210 C.3    55  GLU55       0.0388
     47  CG       -76.5900  113.8050   56.5310 C.3    55  GLU55       0.1160
     48  CD       -76.2440  112.6960   57.5110 C.2    55  GLU55       0.3649
     49  OE1      -77.0430  111.7290   57.6430 O.co2  55  GLU55      -0.2457
     50  OE2      -75.1760  112.8040   58.1610 O.co2  55  GLU55      -0.2457
     51  N        -80.9290  114.2080   52.6740 N.3    57  GLN57      -0.1245
     52  CA       -81.2660  112.8340   52.3140 C.3    57  GLN57       0.1566
     53  C        -81.6360  112.8010   50.8500 C.2    57  GLN57       0.2260
     54  O        -82.2090  113.7570   50.3330 O.2    57  GLN57      -0.2867
     55  CB       -82.4840  112.4120   53.1170 C.3    57  GLN57       0.0367
     56  CG       -82.2910  111.5380   54.3450 C.3    57  GLN57       0.0905
     57  CD       -80.9750  111.7170   55.0580 C.2    57  GLN57       0.2608
     58  OE1      -80.6040  112.8200   55.4680 O.2    57  GLN57      -0.2717
     59  NE2      -80.2720  110.6090   55.2490 N.am   57  GLN57      -0.0878
     60  N        -83.9650  111.3210   49.4500 N.3    59  ASN59      -0.1240
     61  CA       -85.3910  111.3010   49.2160 C.3    59  ASN59       0.1653
     62  C        -86.0410  112.6490   49.4280 C.2    59  ASN59       0.2266
     63  O        -87.2500  112.7710   49.2820 O.2    59  ASN59      -0.2867
     64  CB       -86.0510  110.2330   50.0870 C.3    59  ASN59       0.1155
     65  CG       -85.8870  110.4960   51.5540 C.2    59  ASN59       0.2627
     66  OD1      -85.1910  111.4060   51.9460 O.2    59  ASN59      -0.2716
     67  ND2      -86.5490  109.7050   52.3650 N.am   59  ASN59      -0.0877
     68  N        -86.0370  114.5730   52.3260 N.3    61  THR61      -0.1218
     69  CA       -85.9950  114.8750   53.7300 C.3    61  THR61       0.1862
     70  C        -84.7120  115.5850   54.1420 C.2    61  THR61       0.2287
     71  O        -83.6680  115.3940   53.5170 O.2    61  THR61      -0.2866
     72  CB       -86.1740  113.5680   54.4920 C.3    61  THR61       0.1770
     73  OG1      -87.4910  113.0950   54.2210 O.3    61  THR61      -0.2211
     74  CG2      -85.9860  113.7070   55.9570 C.3    61  THR61       0.0375
     75  N        -82.3410  116.3100   57.6980 N.3    63  THR63      -0.1218
     76  CA       -82.1330  115.6210   58.9780 C.3    63  THR63       0.1862
     77  C        -81.1520  116.3700   59.8510 C.2    63  THR63       0.2287
     78  O        -79.9590  116.4370   59.5530 O.2    63  THR63      -0.2866
     79  CB       -81.6550  114.1490   58.7950 C.3    63  THR63       0.1770
     80  OG1      -82.7420  113.3530   58.3200 O.3    63  THR63      -0.2211
     81  CG2      -81.1890  113.5290   60.1280 C.3    63  THR63       0.0375
@<TRIPOS>BOND
     1    61    62    1
     2    61    60    1
     3    61    64    1
     4    63    62    2
     5    64    65    1
     6    54    53    2
     7    53    52    1
     8    65    66    2
     9    65    67   am
    10    52    51    1
    11    52    55    1
    12    68    69    1
    13    37    36    2
    14    55    56    1
    15    71    70    2
    16    69    70    1
    17    69    72    1
    18    36    35    1
    19    73    72    1
    20    56    57    1
    21    72    74    1
    22    35    38    1
    23    35    34    1
    24    57    59   am
    25    57    58    2
    26    38    39    1
    27    44    45    2
    28    44    43    1
    29    39    41    1
    30    39    40    1
    31    43    46    1
    32    43    42    1
    33    47    46    1
    34    47    48    1
    35    48    49   ar
    36    48    50   ar
    37    75    76    1
    38    80    79    1
    39    79    76    1
    40    79    81    1
    41    76    77    1
    42    32    31    1
    43    78    77    2
    44    29    30    2
    45    29    28    1
    46    28    31    1
    47    28    27    1
    48    31    33    1
    49     1     2    1
    50     6     5    1
    51     2     5    1
    52     2     3    1
    53     4     3    2
    54    25    24    1
    55    18    17    1
    56    24    26    1
    57    24    23    1
    58    15    17   ar
    59    15    13   ar
    60    17    16   ar
    61    21    22    2
    62    21    20    1
    63    23    20    1
    64    13    12   ar
    65    16    14   ar
    66    20    19    1
    67    12    14   ar
    68    12    11    1
    69     7     8    1
    70    11     8    1
    71     8     9    1
    72    10     9    2
