@<TRIPOS>MOLECULE
tmp/5anqB00.pdb
 180 171 0 0 0
SMALL
GASTEIGER

@<TRIPOS>ATOM
      1  N        155.5430   56.2760   30.4510 N.3   123  TYR123     -0.1241
      2  CA       154.2120   56.5730   29.9570 C.3   123  TYR123      0.1605
      3  C        154.0910   58.0730   29.8200 C.2   123  TYR123      0.2264
      4  O        154.3500   58.8000   30.7710 O.2   123  TYR123     -0.2867
      5  CB       153.1260   56.0390   30.9460 C.3   123  TYR123      0.0534
      6  CG       151.7270   55.8470   30.3960 C.ar  123  TYR123     -0.0201
      7  CD1      151.4860   55.8030   29.0600 C.ar  123  TYR123     -0.0009
      8  CD2      150.6240   55.6450   31.2470 C.ar  123  TYR123     -0.0009
      9  CE1      150.2120   55.6050   28.5410 C.ar  123  TYR123      0.0417
     10  CE2      149.3370   55.4430   30.7330 C.ar  123  TYR123      0.0417
     11  CZ       149.1440   55.4180   29.3650 C.ar  123  TYR123      0.1957
     12  OH       147.9150   55.1840   28.7560 O.3   123  TYR123     -0.2866
     13  N        148.6730   62.0980   30.8450 N.3   126  ASP126     -0.1239
     14  CA       148.0400   63.3080   31.3540 C.3   126  ASP126      0.1674
     15  C        148.5180   64.5960   30.6600 C.2   126  ASP126      0.2266
     16  O        148.7260   65.6130   31.3090 O.2   126  ASP126     -0.2867
     17  CB       148.2610   63.3930   32.8850 C.3   126  ASP126      0.1410
     18  CG       147.6710   62.1870   33.6490 C.2   126  ASP126      0.3668
     19  OD1      146.9590   61.3610   33.0460 O.co2 126  ASP126     -0.2456
     20  OD2      147.9530   62.0600   34.8610 O.co2 126  ASP126     -0.2456
     21  N        141.2260   69.4910   34.9820 N.3   160  GLU160     -0.1231
     22  CA       142.0110   69.0060   33.8490 C.3   160  GLU160      0.1699
     23  C        141.8950   67.4910   33.6890 C.2   160  GLU160      0.2593
     24  O        141.9390   66.7510   34.6730 O.2   160  GLU160     -0.2718
     25  CB       143.4560   69.4530   33.9480 C.3   160  GLU160      0.0402
     26  CG       143.5930   70.9570   33.7450 C.3   160  GLU160      0.1161
     27  CD       145.0400   71.3980   33.6170 C.2   160  GLU160      0.3649
     28  OE1      145.9430   70.6250   34.0380 O.co2 160  GLU160     -0.2457
     29  OE2      145.2620   72.5080   33.0780 O.co2 160  GLU160     -0.2457
     30  N        141.6590   67.0700   32.4500 N.am  161  GLY161     -0.1942
     31  CA       141.3620   65.6810   32.1190 C.3   161  GLY161      0.2014
     32  C        139.9610   65.1660   32.4750 C.2   161  GLY161      0.2638
     33  O        139.5880   64.0890   32.0040 O.2   161  GLY161     -0.2714
     34  N        139.1930   65.9110   33.2940 N.am  162  VAL162     -0.1977
     35  CA       137.7880   65.5820   33.6180 C.3   162  VAL162      0.1596
     36  C        136.7930   66.2710   32.7040 C.2   162  VAL162      0.2287
     37  O        136.0850   65.5850   31.9730 O.2   162  VAL162     -0.2864
     38  CB       137.4660   65.8540   35.0970 C.3   162  VAL162      0.0276
     39  CG1      136.0000   65.5560   35.3890 C.3   162  VAL162      0.0022
     40  CG2      138.3580   64.9870   35.9840 C.3   162  VAL162      0.0022
     41  N        142.7200   64.9910   27.8050 N.3   166  TYR166     -0.1241
     42  CA       144.0700   64.5530   28.0820 C.3   166  TYR166      0.1605
     43  C        144.5580   63.7010   26.9190 C.2   166  TYR166      0.2264
     44  O        143.7910   63.0020   26.2970 O.2   166  TYR166     -0.2867
     45  CB       144.1230   63.7150   29.3660 C.3   166  TYR166      0.0534
     46  CG       144.4240   64.4080   30.6940 C.ar  166  TYR166     -0.0201
     47  CD1      144.7140   65.7840   30.7840 C.ar  166  TYR166     -0.0009
     48  CD2      144.4740   63.6440   31.8910 C.ar  166  TYR166     -0.0009
     49  CE1      145.0190   66.3710   32.0050 C.ar  166  TYR166      0.0417
     50  CE2      144.7850   64.2370   33.1210 C.ar  166  TYR166      0.0417
     51  CZ       145.0570   65.6010   33.1600 C.ar  166  TYR166      0.1957
     52  OH       145.3650   66.2170   34.3370 O.3   166  TYR166     -0.2866
     53  N        147.4830   60.6670   26.0250 N.3   168  TYR168     -0.1241
     54  CA       148.2660   59.6080   26.6040 C.3   168  TYR168      0.1605
     55  C        149.0750   58.9900   25.4900 C.2   168  TYR168      0.2264
     56  O        148.4990   58.3750   24.5730 O.2   168  TYR168     -0.2867
     57  CB       147.3410   58.5270   27.1830 C.3   168  TYR168      0.0534
     58  CG       146.6210   58.9400   28.4490 C.ar  168  TYR168     -0.0201
     59  CD1      145.4180   59.6460   28.4000 C.ar  168  TYR168     -0.0009
     60  CD2      147.1330   58.6070   29.7030 C.ar  168  TYR168     -0.0009
     61  CE1      144.7570   60.0290   29.5840 C.ar  168  TYR168      0.0417
     62  CE2      146.4820   58.9920   30.8840 C.ar  168  TYR168      0.0417
     63  CZ       145.3090   59.7050   30.8220 C.ar  168  TYR168      0.1957
     64  OH       144.6810   60.0680   32.0090 O.3   168  TYR168     -0.2866
     65  N        147.3960   50.9600   32.9420 N.3   176  PHE176     -0.1241
     66  CA       146.4590   51.6890   33.7920 C.3   176  PHE176      0.1605
     67  C        145.8680   50.6960   34.8100 C.2   176  PHE176      0.2264
     68  O        145.3670   49.6060   34.4720 O.2   176  PHE176     -0.2867
     69  CB       145.4190   52.5290   33.0280 C.3   176  PHE176      0.0534
     70  CG       144.6390   51.7900   31.9710 C.ar  176  PHE176     -0.0203
     71  CD1      145.2280   51.4320   30.7720 C.ar  176  PHE176     -0.0042
     72  CD2      143.2870   51.4860   32.1740 C.ar  176  PHE176     -0.0042
     73  CE1      144.4950   50.7860   29.7900 C.ar  176  PHE176     -0.0003
     74  CE2      142.5530   50.8360   31.2030 C.ar  176  PHE176     -0.0003
     75  CZ       143.1510   50.4930   30.0080 C.ar  176  PHE176     -0.0000
     76  N        140.5170   50.9240   38.4060 N.3   179  HIS179     -0.1241
     77  CA       139.8360   52.0900   38.9490 C.3   179  HIS179      0.1621
     78  C        138.5060   52.2940   38.2710 C.2   179  HIS179      0.2264
     79  O        138.3070   51.8460   37.1650 O.2   179  HIS179     -0.2867
     80  CB       140.7040   53.3680   38.7340 C.3   179  HIS179      0.0745
     81  CG       140.8900   53.7390   37.2810 C.ar  179  HIS179      0.0817
     82  ND1      141.7280   53.0530   36.4230 N.ar  179  HIS179     -0.2268
     83  CD2      140.3090   54.7110   36.5320 C.ar  179  HIS179      0.1154
     84  CE1      141.6360   53.5730   35.2080 C.ar  179  HIS179      0.1986
     85  NE2      140.7860   54.5870   35.2500 N.ar  179  HIS179     -0.2212
     86  N        136.1870   55.9390   37.2880 N.3   181  GLU181     -0.1231
     87  CA       136.4530   57.3510   37.0590 C.3   181  GLU181      0.1699
     88  C        136.1980   58.1480   38.3260 C.2   181  GLU181      0.2592
     89  O        135.4080   57.7350   39.1900 O.2   181  GLU181     -0.2718
     90  CB       135.5630   57.8340   35.9310 C.3   181  GLU181      0.0402
     91  CG       135.8190   57.1580   34.5980 C.3   181  GLU181      0.1161
     92  CD       137.2980   57.2660   34.2390 C.2   181  GLU181      0.3649
     93  OE1      137.8250   58.3690   33.9350 O.co2 181  GLU181     -0.2457
     94  OE2      137.9680   56.2480   34.3680 O.co2 181  GLU181     -0.2457
     95  N        136.8550   59.3030   38.4590 N.am  182  ASP182     -0.1974
     96  CA       136.5210   60.2070   39.5650 C.3   182  ASP182      0.1709
     97  C        135.0330   60.5550   39.5530 C.2   182  ASP182      0.2293
     98  O        134.4420   60.7030   38.4980 O.2   182  ASP182     -0.2864
     99  CB       137.3580   61.4800   39.4970 C.3   182  ASP182      0.1436
    100  CG       138.8500   61.2120   39.7380 C.2   182  ASP182      0.3671
    101  OD1      139.2180   60.2180   40.4070 O.co2 182  ASP182     -0.2456
    102  OD2      139.6530   61.9970   39.2230 O.co2 182  ASP182     -0.2456
    103  N        137.3990   57.3420   25.4630 N.3   189  ASN189     -0.1240
    104  CA       138.8320   57.1240   25.1010 C.3   189  ASN189      0.1653
    105  C        138.8590   56.8120   23.6230 C.2   189  ASN189      0.2266
    106  O        138.2190   55.8520   23.1850 O.2   189  ASN189     -0.2867
    107  CB       139.4990   55.9470   25.8850 C.3   189  ASN189      0.1155
    108  CG       141.0520   55.7700   25.6040 C.2   189  ASN189      0.2627
    109  OD1      141.4990   55.4320   24.4770 O.2   189  ASN189     -0.2716
    110  ND2      141.8740   55.9480   26.6700 N.am  189  ASN189     -0.0877
    111  N        145.4970   49.0580   22.5820 N.3   197  LYS197     -0.1245
    112  CA       145.3590   49.1710   24.0310 C.3   197  LYS197      0.1561
    113  C        144.3890   48.0500   24.4530 C.2   197  LYS197      0.2260
    114  O        143.2780   47.9770   23.9410 O.2   197  LYS197     -0.2867
    115  CB       144.8160   50.5810   24.3970 C.3   197  LYS197      0.0271
    116  CG       144.6580   50.8130   25.9000 C.3   197  LYS197      0.0035
    117  CD       143.9860   52.1290   26.2780 C.3   197  LYS197      0.0206
    118  CE       144.6410   53.3800   25.6560 C.3   197  LYS197      0.1093
    119  NZ       145.9650   53.6410   26.2520 N.3   197  LYS197     -0.1314
    120  N        142.0960   46.1230   27.4520 N.3   199  TRP199     -0.1241
    121  CA       141.2930   46.5480   28.5830 C.3   199  TRP199      0.1605
    122  C        140.6960   45.3100   29.2830 C.2   199  TRP199      0.2264
    123  O        140.3240   44.3330   28.6230 O.2   199  TRP199     -0.2867
    124  CB       140.0870   47.3800   28.0890 C.3   199  TRP199      0.0550
    125  CG       140.3760   48.6860   27.4170 C.ar  199  TRP199      0.0003
    126  CD1      140.9180   48.8740   26.1590 C.ar  199  TRP199      0.0946
    127  CD2      140.1030   50.0040   27.9370 C.ar  199  TRP199      0.0152
    128  NE1      141.0140   50.2060   25.8930 N.ar  199  TRP199     -0.2442
    129  CE2      140.5170   50.9290   26.9450 C.ar  199  TRP199      0.0810
    130  CE3      139.5330   50.4890   29.1340 C.ar  199  TRP199      0.0012
    131  CZ2      140.4090   52.3000   27.1100 C.ar  199  TRP199      0.0191
    132  CZ3      139.4490   51.8580   29.3200 C.ar  199  TRP199      0.0001
    133  CH2      139.8760   52.7600   28.2970 C.ar  199  TRP199      0.0015
    134  N        145.0320   54.7040   41.8730 N.3   232  LYS232     -0.1245
    135  CA       145.4150   54.2060   40.5460 C.3   232  LYS232      0.1561
    136  C        146.8000   53.5790   40.5610 C.2   232  LYS232      0.2260
    137  O        147.5670   53.7400   39.6340 O.2   232  LYS232     -0.2867
    138  CB       145.2430   55.3070   39.4600 C.3   232  LYS232      0.0271
    139  CG       143.7660   55.5610   39.1330 C.3   232  LYS232      0.0035
    140  CD       143.3820   57.0280   38.9840 C.3   232  LYS232      0.0206
    141  CE       141.8700   57.2410   39.1310 C.3   232  LYS232      0.1093
    142  NZ       141.4850   58.2990   40.1230 N.3   232  LYS232     -0.1314
    143  N        133.6350   54.0200   29.0240 N.3   261  THR261     -0.1218
    144  CA       133.4560   53.4360   30.3330 C.3   261  THR261      0.1862
    145  C        132.2780   54.0770   31.0450 C.2   261  THR261      0.2287
    146  O        132.0210   55.2900   30.9120 O.2   261  THR261     -0.2866
    147  CB       134.7270   53.5160   31.2170 C.3   261  THR261      0.1770
    148  OG1      134.7830   54.7710   31.9040 O.3   261  THR261     -0.2211
    149  CG2      135.9990   53.2860   30.4060 C.3   261  THR261      0.0375
    150  N        137.9150   49.3750   35.5950 N.3   267  HIS267     -0.1241
    151  CA       138.6700   49.0380   34.3780 C.3   267  HIS267      0.1621
    152  C        140.1560   49.1060   34.6430 C.2   267  HIS267      0.2264
    153  O        140.6000   49.7900   35.5470 O.2   267  HIS267     -0.2867
    154  CB       138.2840   49.8810   33.1230 C.3   267  HIS267      0.0745
    155  CG       138.3100   51.3630   33.3300 C.ar  267  HIS267      0.0817
    156  ND1      137.3420   52.0310   34.0500 N.ar  267  HIS267     -0.2268
    157  CD2      139.1970   52.3140   32.9210 C.ar  267  HIS267      0.1154
    158  CE1      137.6380   53.3260   34.0890 C.ar  267  HIS267      0.1986
    159  NE2      138.7480   53.5360   33.3920 N.ar  267  HIS267     -0.2212
    160  N        141.3670   61.2780   25.9360 N.3   279  SER279     -0.1217
    161  CA       140.2030   60.9750   26.7700 C.3   279  SER279      0.1889
    162  C        139.7400   62.1400   27.6100 C.2   279  SER279      0.2288
    163  O        140.4560   63.1280   27.7690 O.2   279  SER279     -0.2866
    164  CB       140.5270   59.7910   27.6960 C.3   279  SER279      0.2089
    165  OG       141.6330   60.0970   28.5120 O.3   279  SER279     -0.2183
    166  N        136.1220   62.9110   30.7230 N.3   281  ASN281     -0.1240
    167  CA       134.9140   62.4190   31.3210 C.3   281  ASN281      0.1653
    168  C        133.6850   63.0700   30.7280 C.2   281  ASN281      0.2266
    169  O        133.7790   64.0760   30.0480 O.2   281  ASN281     -0.2867
    170  CB       134.9550   62.6390   32.8050 C.3   281  ASN281      0.1155
    171  CG       136.0510   61.8480   33.4680 C.2   281  ASN281      0.2627
    172  OD1      136.9770   62.4080   34.0330 O.2   281  ASN281     -0.2716
    173  ND2      135.9480   60.5200   33.4080 N.am  281  ASN281     -0.0877
    174  N        139.8830   64.8900   42.8680 N.3   304  VAL304     -0.1245
    175  CA       138.7730   65.4660   42.1220 C.3   304  VAL304      0.1561
    176  C        137.4770   65.2770   42.8870 C.2   304  VAL304      0.2260
    177  O        137.0220   64.1440   43.0890 O.2   304  VAL304     -0.2867
    178  CB       138.6470   64.8760   40.7080 C.3   304  VAL304      0.0252
    179  CG1      137.3820   65.3900   40.0200 C.3   304  VAL304      0.0019
    180  CG2      139.8950   65.2120   39.8960 C.3   304  VAL304      0.0019
@<TRIPOS>BOND
     1   111   112    1
     2   106   105    2
     3   105   104    1
     4   114   113    2
     5   112   115    1
     6   112   113    1
     7   115   116    1
     8   109   108    2
     9    56    55    2
    10   104   103    1
    11   104   107    1
    12    55    54    1
    13   108   107    1
    14   108   110   am
    15   118   119    1
    16   118   117    1
    17   128   126   ar
    18   128   129   ar
    19   116   117    1
    20   160   161    1
    21    53    54    1
    22   126   125   ar
    23    44    43    2
    24    54    57    1
    25   161   162    1
    26   161   164    1
    27    43    42    1
    28   129   131   ar
    29   129   127   ar
    30   131   133   ar
    31    57    58    1
    32   125   127   ar
    33   125   124    1
    34   120   121    1
    35   162   163    2
    36   164   165    1
    37    41    42    1
    38   127   130   ar
    39    42    45    1
    40   124   121    1
    41   133   132   ar
    42    59    58   ar
    43    59    61   ar
    44    58    60   ar
    45     9     7   ar
    46     9    11   ar
    47   121   122    1
    48   123   122    2
    49    12    11    1
    50   143   144    1
    51     7     6   ar
    52   130   132   ar
    53    11    10   ar
    54    45    46    1
    55    61    63   ar
    56    60    62   ar
    57    73    75   ar
    58    73    71   ar
    59     3     2    1
    60     3     4    2
    61     2     1    1
    62     2     5    1
    63    75    74   ar
    64   169   168    2
    65   144   145    1
    66   144   147    1
    67     6     5    1
    68     6     8   ar
    69   149   147    1
    70    15    16    2
    71    15    14    1
    72    46    47   ar
    73    46    48   ar
    74   166   167    1
    75   168   167    1
    76    10     8   ar
    77    71    70   ar
    78    47    49   ar
    79    63    62   ar
    80    63    64    1
    81    13    14    1
    82   146   145    2
    83    74    72   ar
    84   147   148    1
    85   167   170    1
    86    14    17    1
    87    48    50   ar
    88    70    72   ar
    89    70    69    1
    90    37    36    2
    91    33    32    2
    92    49    51   ar
    93    31    30    1
    94    31    32    1
    95    30    23   am
    96    32    34   am
    97    36    35    1
    98   170   171    1
    99    17    18    1
   100   157   155   ar
   101   157   159   ar
   102    65    66    1
   103    69    66    1
   104    19    18   ar
   105    29    27   ar
   106    50    51   ar
   107   154   155    1
   108   154   151    1
   109    51    52    1
   110    34    35    1
   111   155   156   ar
   112   159   158   ar
   113   173   171   am
   114   171   172    2
   115    27    26    1
   116    27    28   ar
   117    35    38    1
   118    18    20   ar
   119    23    22    1
   120    23    24    2
   121    26    25    1
   122    66    67    1
   123    22    25    1
   124    22    21    1
   125    93    92   ar
   126   156   158   ar
   127    92    94   ar
   128    92    91    1
   129   151   152    1
   130   151   150    1
   131    68    67    2
   132    91    90    1
   133   152   153    2
   134    38    39    1
   135    38    40    1
   136    84    85   ar
   137    84    82   ar
   138    85    83   ar
   139    90    87    1
   140    82    81   ar
   141    83    81   ar
   142    87    86    1
   143    87    88    1
   144    79    78    2
   145    81    80    1
   146    78    77    1
   147    88    95   am
   148    88    89    2
   149    76    77    1
   150    95    96    1
   151    98    97    2
   152    80    77    1
   153   140   141    1
   154   140   139    1
   155   141   142    1
   156   139   138    1
   157   102   100   ar
   158   138   135    1
   159    99    96    1
   160    99   100    1
   161    97    96    1
   162   137   136    2
   163   100   101   ar
   164   180   178    1
   165   179   178    1
   166   135   136    1
   167   135   134    1
   168   178   175    1
   169   175   174    1
   170   175   176    1
   171   176   177    2
