@<TRIPOS>MOLECULE
tmp/5ansA00.pdb
 165 159 0 0 0
SMALL
GASTEIGER

@<TRIPOS>ATOM
      1  N        -31.7880    2.8950   -6.2770 N.3     6  TYR6       -0.1227
      2  CA       -30.6610    2.2030   -5.6470 C.3     6  TYR6        0.1736
      3  C        -29.3460    2.8180   -6.1240 C.2     6  TYR6        0.2596
      4  O        -29.3140    3.5290   -7.1300 O.2     6  TYR6       -0.2718
      5  CB       -30.6660    0.7190   -6.0210 C.3     6  TYR6        0.0548
      6  CG       -31.8840   -0.0470   -5.5740 C.ar    6  TYR6       -0.0200
      7  CD1      -33.0680    0.0150   -6.3000 C.ar    6  TYR6       -0.0009
      8  CD2      -31.8470   -0.8510   -4.4320 C.ar    6  TYR6       -0.0009
      9  CE1      -34.1900   -0.6950   -5.9040 C.ar    6  TYR6        0.0417
     10  CE2      -32.9650   -1.5710   -4.0280 C.ar    6  TYR6        0.0417
     11  CZ       -34.1340   -1.4800   -4.7660 C.ar    6  TYR6        0.1957
     12  OH       -35.2430   -2.1890   -4.3750 O.3     6  TYR6       -0.2866
     13  N        -28.2650    2.5230   -5.4030 N.am    7  THR7       -0.1939
     14  CA       -26.9250    2.9550   -5.7830 C.3     7  THR7        0.2028
     15  C        -25.9900    1.7640   -5.9460 C.2     7  THR7        0.2642
     16  O        -26.2320    0.6890   -5.3950 O.2     7  THR7       -0.2714
     17  CB       -26.3140    3.8720   -4.7210 C.3     7  THR7        0.1808
     18  OG1      -26.3120    3.1880   -3.4590 O.3     7  THR7       -0.2208
     19  CG2      -27.1120    5.1630   -4.6200 C.3     7  THR7        0.0379
     20  N        -24.9250    1.9760   -6.7130 N.am    8  LEU8       -0.1977
     21  CA       -23.8410    1.0090   -6.8390 C.3     8  LEU8        0.1596
     22  C        -22.5560    1.7860   -7.0710 C.2     8  LEU8        0.2287
     23  O        -22.4920    2.6500   -7.9550 O.2     8  LEU8       -0.2864
     24  CB       -24.1120    0.0300   -7.9870 C.3     8  LEU8        0.0297
     25  CG       -23.0390   -1.0190   -8.3030 C.3     8  LEU8        0.0022
     26  CD1      -22.6790   -1.8660   -7.0830 C.3     8  LEU8        0.0001
     27  CD2      -23.5530   -1.8880   -9.4280 C.3     8  LEU8        0.0001
     28  N        -20.2960  -10.4630   -0.0900 N.3    22  LYS22      -0.1245
     29  CA       -21.4840  -10.5250    0.7540 C.3    22  LYS22       0.1561
     30  C        -21.3090  -11.6130    1.8100 C.2    22  LYS22       0.2260
     31  O        -21.0820  -12.7760    1.4860 O.2    22  LYS22      -0.2867
     32  CB       -22.7230  -10.8040   -0.0930 C.3    22  LYS22       0.0271
     33  CG       -24.0310  -10.5580    0.6350 C.3    22  LYS22       0.0035
     34  CD       -24.6240   -9.1980    0.2800 C.3    22  LYS22       0.0206
     35  CE       -24.1370   -8.0930    1.2010 C.3    22  LYS22       0.1093
     36  NZ       -25.1870   -7.0510    1.3730 N.3    22  LYS22      -0.1314
     37  N        -19.0860   -7.9940   -5.1520 N.3    32  ASN32      -0.1225
     38  CA       -19.6810   -6.8690   -5.8750 C.3    32  ASN32       0.1785
     39  C        -19.2190   -5.5140   -5.3790 C.2    32  ASN32       0.2597
     40  O        -18.4490   -5.4190   -4.4270 O.2    32  ASN32      -0.2718
     41  CB       -21.2110   -6.9460   -5.8340 C.3    32  ASN32       0.1169
     42  CG       -21.7350   -7.3870   -4.4850 C.2    32  ASN32       0.2627
     43  OD1      -22.2840   -8.4810   -4.3520 O.2    32  ASN32      -0.2716
     44  ND2      -21.5550   -6.5490   -3.4760 N.am   32  ASN32      -0.0877
     45  N        -19.6950   -4.4660   -6.0460 N.am   33  GLY33      -0.1957
     46  CA       -19.4650   -3.1060   -5.5930 C.3    33  GLY33       0.1869
     47  C        -20.2940   -2.8290   -4.3570 C.2    33  GLY33       0.2309
     48  O        -20.9090   -3.7320   -3.7830 O.2    33  GLY33      -0.2863
     49  N        -23.2940   -0.6320   -2.3000 N.3    35  GLY35      -0.1210
     50  CA       -24.5320    0.1030   -2.5510 C.3    35  GLY35       0.1956
     51  C        -25.7530   -0.4570   -1.8560 C.2    35  GLY35       0.2612
     52  O        -25.6830   -1.4580   -1.1490 O.2    35  GLY35      -0.2717
     53  N        -26.8860    0.2000   -2.0690 N.am   36  GLY36      -0.1956
     54  CA       -28.1400   -0.2170   -1.4570 C.3    36  GLY36       0.1869
     55  C        -29.2590    0.6980   -1.8910 C.2    36  GLY36       0.2309
     56  O        -29.1120    1.4600   -2.8450 O.2    36  GLY36      -0.2863
     57  N        -20.3620   -0.0550    4.4270 N.3    55  GLU55      -0.1245
     58  CA       -19.9420   -1.3780    3.9520 C.3    55  GLU55       0.1567
     59  C        -18.4260   -1.5920    3.9130 C.2    55  GLU55       0.2260
     60  O        -17.9620   -2.7250    4.0360 O.2    55  GLU55      -0.2867
     61  CB       -20.5330   -1.6550    2.5670 C.3    55  GLU55       0.0388
     62  CG       -22.0510   -1.8020    2.5400 C.3    55  GLU55       0.1160
     63  CD       -22.5900   -1.9800    1.1340 C.2    55  GLU55       0.3649
     64  OE1      -21.8080   -2.3480    0.2380 O.co2  55  GLU55      -0.2457
     65  OE2      -23.7980   -1.7530    0.9220 O.co2  55  GLU55      -0.2457
     66  N        -32.9830   -2.8760  -13.5470 N.3    71  PHE71      -0.1241
     67  CA       -33.0810   -4.3310  -13.3880 C.3    71  PHE71       0.1605
     68  C        -34.5280   -4.7810  -13.2620 C.2    71  PHE71       0.2264
     69  O        -35.3110   -4.1990  -12.5070 O.2    71  PHE71      -0.2867
     70  CB       -32.2890   -4.8280  -12.1770 C.3    71  PHE71       0.0534
     71  CG       -30.8040   -4.6160  -12.2840 C.ar   71  PHE71      -0.0203
     72  CD1      -30.0390   -5.3610  -13.1850 C.ar   71  PHE71      -0.0042
     73  CD2      -30.1670   -3.7010  -11.4620 C.ar   71  PHE71      -0.0042
     74  CE1      -28.6590   -5.1740  -13.2730 C.ar   71  PHE71      -0.0003
     75  CE2      -28.7810   -3.5050  -11.5430 C.ar   71  PHE71      -0.0003
     76  CZ       -28.0310   -4.2430  -12.4550 C.ar   71  PHE71      -0.0000
     77  N        -36.8560   -8.4970  -12.8600 N.3    73  PHE73      -0.1241
     78  CA       -36.7960   -9.9180  -12.5370 C.3    73  PHE73       0.1605
     79  C        -38.0700  -10.6150  -12.9940 C.2    73  PHE73       0.2264
     80  O        -39.1650  -10.0720  -12.8470 O.2    73  PHE73      -0.2867
     81  CB       -36.6030  -10.1250  -11.0310 C.3    73  PHE73       0.0534
     82  CG       -35.3040   -9.5740  -10.5060 C.ar   73  PHE73      -0.0203
     83  CD1      -35.1950   -8.2310  -10.1550 C.ar   73  PHE73      -0.0042
     84  CD2      -34.1870  -10.3950  -10.3750 C.ar   73  PHE73      -0.0042
     85  CE1      -33.9890   -7.7120   -9.6810 C.ar   73  PHE73      -0.0003
     86  CE2      -32.9760   -9.8870   -9.8940 C.ar   73  PHE73      -0.0003
     87  CZ       -32.8820   -8.5420   -9.5500 C.ar   73  PHE73      -0.0000
     88  N        -35.8500   -2.1040  -10.4270 N.3    80  MET80      -0.1245
     89  CA       -34.7810   -1.4190   -9.7160 C.3    80  MET80       0.1570
     90  C        -34.1590   -0.3850  -10.6380 C.2    80  MET80       0.2261
     91  O        -33.7510   -0.7130  -11.7550 O.2    80  MET80      -0.2867
     92  CB       -33.7130   -2.4060   -9.2610 C.3    80  MET80       0.0387
     93  CG       -34.2060   -3.4410   -8.2700 C.3    80  MET80       0.0595
     94  SD       -32.9190   -4.6420   -7.8950 S.3    80  MET80      -0.1393
     95  CE       -31.7690   -3.6460   -6.9380 C.3    80  MET80       0.0692
     96  N        -31.0400    1.7060  -10.7740 N.3    82  VAL82      -0.1245
     97  CA       -29.7230    1.7470  -10.1290 C.3    82  VAL82       0.1561
     98  C        -28.7900    2.8010  -10.7200 C.2    82  VAL82       0.2260
     99  O        -28.4790    2.7790  -11.9170 O.2    82  VAL82      -0.2867
    100  CB       -29.0330    0.3540  -10.1580 C.3    82  VAL82       0.0252
    101  CG1      -27.7170    0.3800   -9.3900 C.3    82  VAL82       0.0019
    102  CG2      -29.9470   -0.7020   -9.5710 C.3    82  VAL82       0.0019
    103  N        -20.2210   -6.7600    4.4900 N.3   100  MET100     -0.1245
    104  CA       -19.3060   -6.8950    3.3560 C.3   100  MET100      0.1570
    105  C        -17.8630   -7.0720    3.7850 C.2   100  MET100      0.2261
    106  O        -17.4180   -6.4750    4.7640 O.2   100  MET100     -0.2867
    107  CB       -19.4190   -5.6670    2.4530 C.3   100  MET100      0.0387
    108  CG       -20.7280   -5.5870    1.6950 C.3   100  MET100      0.0595
    109  SD       -20.7140   -6.6030    0.2080 S.3   100  MET100     -0.1393
    110  CE       -20.1060   -5.4030   -0.9640 C.3   100  MET100      0.0692
    111  N        -22.3010  -10.7770   -9.6910 N.3   116  TRP116     -0.1241
    112  CA       -23.5920  -10.7040  -10.3750 C.3   116  TRP116      0.1605
    113  C        -23.3580  -10.8570  -11.8790 C.2   116  TRP116      0.2264
    114  O        -22.3950  -10.2950  -12.4170 O.2   116  TRP116     -0.2867
    115  CB       -24.2620   -9.3610  -10.1020 C.3   116  TRP116      0.0550
    116  CG       -24.9210   -9.2590   -8.7580 C.ar  116  TRP116      0.0003
    117  CD1      -24.3560   -8.8050   -7.5960 C.ar  116  TRP116      0.0946
    118  CD2      -26.2780   -9.5880   -8.4460 C.ar  116  TRP116      0.0152
    119  NE1      -25.2800   -8.8490   -6.5740 N.ar  116  TRP116     -0.2442
    120  CE2      -26.4670   -9.3200   -7.0700 C.ar  116  TRP116      0.0810
    121  CE3      -27.3550  -10.0840   -9.1930 C.ar  116  TRP116      0.0012
    122  CZ2      -27.6900   -9.5380   -6.4260 C.ar  116  TRP116      0.0191
    123  CZ3      -28.5750  -10.3020   -8.5460 C.ar  116  TRP116      0.0001
    124  CH2      -28.7280  -10.0280   -7.1800 C.ar  116  TRP116      0.0015
    125  N        -24.6880   -9.6040  -14.5200 N.3   118  ASP118     -0.1225
    126  CA       -24.7210   -8.3700  -15.3140 C.3   118  ASP118      0.1805
    127  C        -23.3540   -7.6890  -15.3940 C.2   118  ASP118      0.2597
    128  O        -23.0590   -7.0080  -16.3750 O.2   118  ASP118     -0.2718
    129  CB       -25.7760   -7.3970  -14.7670 C.3   118  ASP118      0.1424
    130  CG       -25.6230   -7.1420  -13.2790 C.2   118  ASP118      0.3668
    131  OD1      -25.8360   -8.0870  -12.4910 O.co2 118  ASP118     -0.2456
    132  OD2      -25.2910   -6.0000  -12.9100 O.co2 118  ASP118     -0.2456
    133  N        -22.5170   -7.8830  -14.3750 N.am  119  ASP119     -0.1974
    134  CA       -21.2080   -7.2130  -14.3280 C.3   119  ASP119      0.1709
    135  C        -20.3300   -7.5860  -15.5140 C.2   119  ASP119      0.2293
    136  O        -19.5210   -6.7760  -15.9740 O.2   119  ASP119     -0.2864
    137  CB       -20.4570   -7.5650  -13.0450 C.3   119  ASP119      0.1436
    138  CG       -21.1540   -7.0770  -11.8040 C.2   119  ASP119      0.3671
    139  OD1      -22.3940   -6.9210  -11.8320 O.co2 119  ASP119     -0.2456
    140  OD2      -20.4540   -6.8660  -10.7910 O.co2 119  ASP119     -0.2456
    141  N        -21.4490   -4.9030  -18.3280 N.3   122  TRP122     -0.1241
    142  CA       -21.2130   -3.4610  -18.1980 C.3   122  TRP122      0.1605
    143  C        -19.8720   -3.0810  -17.5650 C.2   122  TRP122      0.2264
    144  O        -19.3560   -1.9930  -17.8320 O.2   122  TRP122     -0.2867
    145  CB       -22.3760   -2.7490  -17.4830 C.3   122  TRP122      0.0550
    146  CG       -22.6360   -3.2320  -16.0830 C.ar  122  TRP122      0.0003
    147  CD1      -23.6040   -4.1060  -15.6930 C.ar  122  TRP122      0.0946
    148  CD2      -21.9330   -2.8510  -14.8850 C.ar  122  TRP122      0.0152
    149  NE1      -23.5470   -4.3110  -14.3380 N.ar  122  TRP122     -0.2442
    150  CE2      -22.5320   -3.5530  -13.8150 C.ar  122  TRP122      0.0810
    151  CE3      -20.8580   -1.9900  -14.6140 C.ar  122  TRP122      0.0012
    152  CZ2      -22.0940   -3.4260  -12.4910 C.ar  122  TRP122      0.0191
    153  CZ3      -20.4220   -1.8660  -13.2900 C.ar  122  TRP122      0.0001
    154  CH2      -21.0430   -2.5800  -12.2480 C.ar  122  TRP122      0.0015
    155  N        -33.5700  -10.5680  -15.3970 N.3   138  PHE138     -0.1241
    156  CA       -33.0210  -11.7060  -14.6750 C.3   138  PHE138      0.1605
    157  C        -34.0540  -12.7980  -14.4800 C.2   138  PHE138      0.2264
    158  O        -35.2300  -12.5140  -14.2430 O.2   138  PHE138     -0.2867
    159  CB       -32.6020  -11.2690  -13.2690 C.3   138  PHE138      0.0534
    160  CG       -31.2060  -10.7340  -13.1710 C.ar  138  PHE138     -0.0203
    161  CD1      -30.9080   -9.4440  -13.5920 C.ar  138  PHE138     -0.0042
    162  CD2      -30.2030  -11.5020  -12.6000 C.ar  138  PHE138     -0.0042
    163  CE1      -29.6150   -8.9380  -13.4840 C.ar  138  PHE138     -0.0003
    164  CE2      -28.9160  -11.0070  -12.4810 C.ar  138  PHE138     -0.0003
    165  CZ       -28.6210   -9.7240  -12.9270 C.ar  138  PHE138     -0.0000
@<TRIPOS>BOND
     1   141   142    1
     2   142   143    1
     3   142   145    1
     4   144   143    2
     5   145   146    1
     6   128   127    2
     7   146   147   ar
     8   146   148   ar
     9   136   135    2
    10   147   149   ar
    11   135   134    1
    12   155   156    1
    13   127   126    1
    14   127   133   am
    15   126   129    1
    16   126   125    1
    17   148   151   ar
    18   148   150   ar
    19   129   130    1
    20   156   157    1
    21   156   159    1
    22   151   153   ar
    23   157   158    2
    24   133   134    1
    25   149   150   ar
    26   134   137    1
    27   150   152   ar
    28   161   163   ar
    29   161   160   ar
    30    66    67    1
    31   163   165   ar
    32    67    68    1
    33    67    70    1
    34   153   154   ar
    35   130   132   ar
    36   130   131   ar
    37    74    72   ar
    38    74    76   ar
    39   159   160    1
    40    68    69    2
    41    72    71   ar
    42   160   162   ar
    43   137   138    1
    44    79    80    2
    45    79    78    1
    46   165   164   ar
    47    77    78    1
    48   162   164   ar
    49    78    81    1
    50   152   154   ar
    51    76    75   ar
    52   114   113    2
    53    71    70    1
    54    71    73   ar
    55    99    98    2
    56   113   112    1
    57   139   138   ar
    58   138   140   ar
    59    91    90    2
    60    75    73   ar
    61    81    82    1
    62    96    97    1
    63    98    97    1
    64    90    89    1
    65    82    84   ar
    66    82    83   ar
    67    88    89    1
    68   112   115    1
    69   112   111    1
    70    84    86   ar
    71   100    97    1
    72   100   102    1
    73   100   101    1
    74    83    85   ar
    75   115   116    1
    76    86    87   ar
    77    89    92    1
    78    85    87   ar
    79    27    25    1
    80    92    93    1
    81   121   123   ar
    82   121   118   ar
    83   116   118   ar
    84   116   117   ar
    85   123   124   ar
    86   118   120   ar
    87    25    24    1
    88    25    26    1
    89    93    94    1
    90    24    21    1
    91    23    22    2
    92    94    95    1
    93   117   119   ar
    94   124   122   ar
    95     4     3    2
    96    22    21    1
    97   120   119   ar
    98   120   122   ar
    99    21    20    1
   100    20    15   am
   101     7     9   ar
   102     7     6   ar
   103     1     2    1
   104     3     2    1
   105     3    13   am
   106    45    46    1
   107    45    39   am
   108     5     2    1
   109     5     6    1
   110    15    14    1
   111    15    16    2
   112     9    11   ar
   113    38    41    1
   114    38    39    1
   115    38    37    1
   116    41    42    1
   117    14    13    1
   118    14    17    1
   119    46    47    1
   120     6     8   ar
   121    39    40    2
   122    11    12    1
   123    11    10   ar
   124    17    19    1
   125    17    18    1
   126    42    43    2
   127    42    44   am
   128     8    10   ar
   129    47    48    2
   130    56    55    2
   131    50    49    1
   132    50    51    1
   133    53    51   am
   134    53    54    1
   135    55    54    1
   136    51    52    2
   137   110   109    1
   138    32    33    1
   139    32    29    1
   140    28    29    1
   141   109   108    1
   142    64    63   ar
   143    34    33    1
   144    34    35    1
   145    29    30    1
   146    65    63   ar
   147    63    62    1
   148    35    36    1
   149    31    30    2
   150   108   107    1
   151   107   104    1
   152    62    61    1
   153    61    58    1
   154   104   105    1
   155   104   103    1
   156   105   106    2
   157    59    58    1
   158    59    60    2
   159    58    57    1
