@<TRIPOS>MOLECULE
tmp/5antC00.pdb
 197 194 0 0 0
SMALL
GASTEIGER

@<TRIPOS>ATOM
      1  N         27.7280    9.5990   14.3640 N.3     4  TYR4       -0.1227
      2  CA        27.0070   10.8420   14.0980 C.3     4  TYR4        0.1736
      3  C         25.7370   10.8660   14.9240 C.2     4  TYR4        0.2596
      4  O         25.2330    9.8180   15.3430 O.2     4  TYR4       -0.2718
      5  CB        26.6260   10.9600   12.6190 C.3     4  TYR4        0.0548
      6  CG        27.7200   11.4210   11.6850 C.ar    4  TYR4       -0.0200
      7  CD1       28.6580   10.5200   11.1740 C.ar    4  TYR4       -0.0009
      8  CD2       27.7960   12.7520   11.2780 C.ar    4  TYR4       -0.0009
      9  CE1       29.6620   10.9380   10.3040 C.ar    4  TYR4        0.0417
     10  CE2       28.7960   13.1810   10.4070 C.ar    4  TYR4        0.0417
     11  CZ        29.7220   12.2680    9.9250 C.ar    4  TYR4        0.1957
     12  OH        30.7090   12.6890    9.0650 O.3     4  TYR4       -0.2866
     13  N         25.2260   12.0720   15.1580 N.am    5  THR5       -0.1939
     14  CA        23.9210   12.2610   15.7730 C.3     5  THR5        0.2028
     15  C         23.0090   13.0010   14.8010 C.2     5  THR5        0.2642
     16  O         23.4770   13.7430   13.9420 O.2     5  THR5       -0.2714
     17  CB        24.0030   13.0590   17.0990 C.3     5  THR5        0.1808
     18  OG1       24.6410   14.3200   16.8660 O.3     5  THR5       -0.2208
     19  CG2       24.7860   12.2830   18.1480 C.3     5  THR5        0.0379
     20  N         21.7070   12.7880   14.9410 N.am    6  LEU6       -0.1977
     21  CA        20.7270   13.5470   14.1870 C.3     6  LEU6        0.1596
     22  C         19.5400   13.7500   15.0960 C.2     6  LEU6        0.2287
     23  O         18.9970   12.7840   15.6170 O.2     6  LEU6       -0.2864
     24  CB        20.3220   12.7900   12.9110 C.3     6  LEU6        0.0297
     25  CG        19.1350   13.3110   12.0990 C.3     6  LEU6        0.0022
     26  CD1       19.3820   14.7450   11.7080 C.3     6  LEU6        0.0001
     27  CD2       18.8970   12.4450   10.8630 C.3     6  LEU6        0.0001
     28  N         15.6900   15.3700   15.8380 N.3     8  LEU8       -0.1245
     29  CA        14.4270   15.8900   15.3480 C.3     8  LEU8        0.1561
     30  C         13.5540   16.3060   16.5170 C.2     8  LEU8        0.2260
     31  O         13.3030   15.5070   17.4200 O.2     8  LEU8       -0.2867
     32  CB        13.6980   14.8310   14.5070 C.3     8  LEU8        0.0270
     33  CG        14.2360   14.4510   13.1120 C.3     8  LEU8        0.0019
     34  CD1       14.4600   15.6770   12.2320 C.3     8  LEU8        0.0001
     35  CD2       15.4960   13.6060   13.2020 C.3     8  LEU8        0.0001
     36  N         12.6590   21.7210   11.3870 N.3    17  LEU17      -0.1245
     37  CA        13.7970   21.4410   10.5220 C.3    17  LEU17       0.1561
     38  C         14.6050   22.7230   10.3400 C.2    17  LEU17       0.2260
     39  O         14.1480   23.8080   10.6800 O.2    17  LEU17      -0.2867
     40  CB        13.3320   20.8650    9.1750 C.3    17  LEU17       0.0270
     41  CG        12.5500   19.5250    9.1860 C.3    17  LEU17       0.0019
     42  CD1       11.9550   19.2210    7.8120 C.3    17  LEU17       0.0001
     43  CD2       13.4150   18.3670    9.6570 C.3    17  LEU17       0.0001
     44  N         19.9060   24.1790    5.6130 N.3    20  LYS20      -0.1245
     45  CA        21.3560   24.2800    5.5910 C.3    20  LYS20       0.1561
     46  C         21.8010   25.3230    4.5540 C.2    20  LYS20       0.2260
     47  O         21.5300   25.1810    3.3570 O.2    20  LYS20      -0.2867
     48  CB        21.9470   22.9110    5.2680 C.3    20  LYS20       0.0271
     49  CG        23.4590   22.7910    5.4220 C.3    20  LYS20       0.0035
     50  CD        23.8760   22.5770    6.8900 C.3    20  LYS20       0.0206
     51  CE        23.6340   21.1430    7.3540 C.3    20  LYS20       0.1093
     52  NZ        23.7990   21.0190    8.8360 N.3    20  LYS20      -0.1314
     53  N         27.5960   20.5620    3.5980 N.3    24  PHE24      -0.1241
     54  CA        27.1340   19.2710    3.0770 C.3    24  PHE24       0.1605
     55  C         25.6280   19.1500    3.2960 C.2    24  PHE24       0.2264
     56  O         25.1500   19.0700    4.4350 O.2    24  PHE24      -0.2867
     57  CB        27.8940   18.1490    3.8080 C.3    24  PHE24       0.0534
     58  CG        27.5170   16.7480    3.3900 C.ar   24  PHE24      -0.0203
     59  CD1       27.8520   16.2620    2.1280 C.ar   24  PHE24      -0.0042
     60  CD2       26.8830   15.8960    4.2910 C.ar   24  PHE24      -0.0042
     61  CE1       27.5250   14.9510    1.7540 C.ar   24  PHE24      -0.0003
     62  CE2       26.5520   14.5910    3.9370 C.ar   24  PHE24      -0.0003
     63  CZ        26.8800   14.1110    2.6630 C.ar   24  PHE24      -0.0000
     64  N         16.2860   20.9730    3.7950 N.3    29  TRP29      -0.1227
     65  CA        15.7730   21.0230    5.1500 C.3    29  TRP29       0.1737
     66  C         16.3050   19.8160    5.9060 C.2    29  TRP29       0.2595
     67  O         16.0200   18.6700    5.5340 O.2    29  TRP29      -0.2718
     68  CB        14.2390   21.0590    5.1350 C.3    29  TRP29       0.0564
     69  CG        13.7220   22.3460    4.5430 C.ar   29  TRP29       0.0003
     70  CD1       13.2280   22.5380    3.2800 C.ar   29  TRP29       0.0946
     71  CD2       13.6500   23.6120    5.1980 C.ar   29  TRP29       0.0152
     72  NE1       12.8710   23.8550    3.1100 N.ar   29  TRP29      -0.2442
     73  CE2       13.1080   24.5320    4.2780 C.ar   29  TRP29       0.0810
     74  CE3       14.0000   24.0610    6.4770 C.ar   29  TRP29       0.0012
     75  CZ2       12.9140   25.8840    4.5940 C.ar   29  TRP29       0.0191
     76  CZ3       13.8050   25.4010    6.7910 C.ar   29  TRP29       0.0001
     77  CH2       13.2620   26.2920    5.8570 C.ar   29  TRP29       0.0015
     78  N         17.1110   20.0810    6.9390 N.am   30  ASN30      -0.1960
     79  CA        17.7830   19.0470    7.7450 C.3    30  ASN30       0.1819
     80  C         17.3140   19.0460    9.2010 C.2    30  ASN30       0.2621
     81  O         16.7330   20.0150    9.6960 O.2    30  ASN30      -0.2715
     82  CB        19.3200   19.2680    7.7830 C.3    30  ASN30       0.1195
     83  CG        20.0130   19.0270    6.4550 C.2    30  ASN30       0.2630
     84  OD1       19.8050   19.7520    5.4760 O.2    30  ASN30      -0.2716
     85  ND2       20.9090   18.0430    6.4350 N.am   30  ASN30      -0.0877
     86  N         17.5950   17.9490    9.8950 N.am   31  GLY31      -0.1954
     87  CA        17.5320   17.9250   11.3500 C.3    31  GLY31       0.1869
     88  C         18.8210   18.5340   11.8800 C.2    31  GLY31       0.2309
     89  O         19.6390   19.0540   11.1140 O.2    31  GLY31      -0.2863
     90  N         22.4460   18.0090   13.9820 N.3    33  GLY33      -0.1210
     91  CA        23.4220   17.0320   14.4590 C.3    33  GLY33       0.1956
     92  C         24.8160   17.1940   13.8760 C.2    33  GLY33       0.2612
     93  O         25.1090   18.1850   13.2010 O.2    33  GLY33      -0.2717
     94  N         25.6690   16.2020   14.1360 N.am   34  GLY34      -0.1956
     95  CA        27.0430   16.1740   13.6290 C.3    34  GLY34       0.1869
     96  C         27.8460   15.0190   14.2070 C.2    34  GLY34       0.2309
     97  O         27.2780   14.1030   14.8110 O.2    34  GLY34      -0.2863
     98  N         25.1960    5.5100    6.0910 N.3    69  PHE69      -0.1241
     99  CA        25.2460    6.0400    4.7360 C.3    69  PHE69       0.1605
    100  C         26.5640    5.7140    4.0380 C.2    69  PHE69       0.2264
    101  O         27.6380    6.1760    4.4530 O.2    69  PHE69      -0.2867
    102  CB        25.0200    7.5530    4.7410 C.3    69  PHE69       0.0534
    103  CG        23.6430    7.9640    5.1810 C.ar   69  PHE69      -0.0203
    104  CD1       23.3360    8.0900    6.5320 C.ar   69  PHE69      -0.0042
    105  CD2       22.6530    8.2370    4.2460 C.ar   69  PHE69      -0.0042
    106  CE1       22.0610    8.4770    6.9450 C.ar   69  PHE69      -0.0003
    107  CE2       21.3770    8.6210    4.6510 C.ar   69  PHE69      -0.0003
    108  CZ        21.0790    8.7390    5.9990 C.ar   69  PHE69      -0.0000
    109  N         28.3770    6.4680    0.6530 N.3    71  PHE71      -0.1241
    110  CA        28.4490    7.2220   -0.5820 C.3    71  PHE71       0.1605
    111  C         29.5340    6.5760   -1.4250 C.2    71  PHE71       0.2264
    112  O         30.6500    6.3710   -0.9520 O.2    71  PHE71      -0.2867
    113  CB        28.7500    8.6980   -0.3000 C.3    71  PHE71       0.0534
    114  CG        27.6440    9.4140    0.4270 C.ar   71  PHE71      -0.0203
    115  CD1       27.5070    9.3020    1.8060 C.ar   71  PHE71      -0.0042
    116  CD2       26.7310   10.1950   -0.2730 C.ar   71  PHE71      -0.0042
    117  CE1       26.4760    9.9560    2.4770 C.ar   71  PHE71      -0.0003
    118  CE2       25.6950   10.8520    0.3890 C.ar   71  PHE71      -0.0003
    119  CZ        25.5680   10.7340    1.7660 C.ar   71  PHE71      -0.0000
    120  N         29.3580    6.9080    7.0150 N.3    78  MET78      -0.1245
    121  CA        28.7280    7.7520    8.0310 C.3    78  MET78       0.1570
    122  C         27.6930    6.9990    8.8580 C.2    78  MET78       0.2261
    123  O         26.5740    6.7600    8.4090 O.2    78  MET78      -0.2867
    124  CB        28.1000    8.9880    7.3780 C.3    78  MET78       0.0387
    125  CG        29.0240    9.6980    6.3960 C.3    78  MET78       0.0595
    126  SD        28.2270   10.9960    5.4370 S.3    78  MET78      -0.1393
    127  CE        28.2410   12.3530    6.6060 C.3    78  MET78       0.0692
    128  N         25.0850    6.9910   11.6970 N.3    80  VAL80      -0.1245
    129  CA        24.2290    8.0600   12.2200 C.3    80  VAL80       0.1561
    130  C         23.2540    7.5300   13.2560 C.2    80  VAL80       0.2260
    131  O         22.4850    6.6100   12.9830 O.2    80  VAL80      -0.2867
    132  CB        23.4250    8.7580   11.0870 C.3    80  VAL80       0.0252
    133  CG1       22.7510   10.0350   11.5890 C.3    80  VAL80       0.0019
    134  CG2       24.3240    9.0660    9.9240 C.3    80  VAL80       0.0019
    135  N         14.2880   17.7610    1.0070 N.3   113  MET113     -0.1230
    136  CA        15.0230   17.0780    2.0450 C.3   113  MET113      0.1702
    137  C         15.9100   16.0140    1.3940 C.2   113  MET113      0.2592
    138  O         15.7590   15.7240    0.2040 O.2   113  MET113     -0.2718
    139  CB        14.0360   16.4470    3.0280 C.3   113  MET113      0.0401
    140  CG        13.2810   17.4840    3.8840 C.3   113  MET113      0.0596
    141  SD        11.7940   16.8590    4.6660 S.3   113  MET113     -0.1393
    142  CE        12.4660   15.8480    5.9690 C.3   113  MET113      0.0692
    143  N         16.8540   15.4520    2.1450 N.am  114  TRP114     -0.1976
    144  CA        17.5940   14.2660    1.6710 C.3   114  TRP114      0.1640
    145  C         16.6120   13.1500    1.2650 C.2   114  TRP114      0.2290
    146  O         15.6070   12.9370    1.9550 O.2   114  TRP114     -0.2864
    147  CB        18.5290   13.7610    2.7620 C.3   114  TRP114      0.0576
    148  CG        19.7360   14.6220    2.9490 C.ar  114  TRP114      0.0006
    149  CD1       19.8380   15.7350    3.7310 C.ar  114  TRP114      0.0946
    150  CD2       21.0190   14.4370    2.3400 C.ar  114  TRP114      0.0152
    151  NE1       21.1070   16.2670    3.6400 N.ar  114  TRP114     -0.2442
    152  CE2       21.8520   15.4900    2.7910 C.ar  114  TRP114      0.0810
    153  CE3       21.5470   13.4840    1.4590 C.ar  114  TRP114      0.0012
    154  CZ2       23.1870   15.6090    2.3950 C.ar  114  TRP114      0.0191
    155  CZ3       22.8660   13.6150    1.0460 C.ar  114  TRP114      0.0001
    156  CH2       23.6750   14.6670    1.5210 C.ar  114  TRP114      0.0015
    157  N         16.5070    9.9570    1.4320 N.3   116  ASP116     -0.1225
    158  CA        16.2500    8.8560    2.3630 C.3   116  ASP116      0.1805
    159  C         15.1420    9.1510    3.3700 C.2   116  ASP116      0.2597
    160  O         14.4960    8.2320    3.8670 O.2   116  ASP116     -0.2718
    161  CB        17.5340    8.4200    3.0770 C.3   116  ASP116      0.1424
    162  CG        18.1750    9.5480    3.8570 C.2   116  ASP116      0.3668
    163  OD1       18.6720   10.4820    3.2130 O.co2 116  ASP116     -0.2456
    164  OD2       18.1850    9.4900    5.1040 O.co2 116  ASP116     -0.2456
    165  N         14.9020   10.4340    3.6460 N.am  117  ASP117     -0.1974
    166  CA        13.9600   10.8310    4.7020 C.3   117  ASP117      0.1709
    167  C         12.5360   10.3630    4.4430 C.2   117  ASP117      0.2293
    168  O         11.8090   10.0420    5.3870 O.2   117  ASP117     -0.2864
    169  CB        13.9560   12.3470    4.8950 C.3   117  ASP117      0.1436
    170  CG        15.2730   12.8780    5.4110 C.2   117  ASP117      0.3671
    171  OD1       16.2680   12.1330    5.4390 O.co2 117  ASP117     -0.2456
    172  OD2       15.3110   14.0630    5.7760 O.co2 117  ASP117     -0.2456
    173  N         12.2720    6.6800    6.0800 N.3   120  TRP120     -0.1227
    174  CA        12.2850    6.4900    7.5400 C.3   120  TRP120      0.1737
    175  C         11.4740    7.4820    8.3710 C.2   120  TRP120      0.2595
    176  O         11.1320    7.1880    9.5190 O.2   120  TRP120     -0.2718
    177  CB        13.7150    6.3920    8.0840 C.3   120  TRP120      0.0564
    178  CG        14.6160    7.5800    7.8590 C.ar  120  TRP120      0.0003
    179  CD1       15.5280    7.7230    6.8580 C.ar  120  TRP120      0.0946
    180  CD2       14.7490    8.7550    8.6890 C.ar  120  TRP120      0.0152
    181  NE1       16.2010    8.9170    6.9890 N.ar  120  TRP120     -0.2442
    182  CE2       15.7430    9.5690    8.1030 C.ar  120  TRP120      0.0810
    183  CE3       14.1200    9.1980    9.8620 C.ar  120  TRP120      0.0012
    184  CZ2       16.1300   10.8030    8.6520 C.ar  120  TRP120      0.0191
    185  CZ3       14.5050   10.4360   10.4070 C.ar  120  TRP120      0.0001
    186  CH2       15.4980   11.2170    9.7970 C.ar  120  TRP120      0.0015
    187  N         11.1610    8.6490    7.8080 N.am  121  PHE121     -0.1976
    188  CA        10.2960    9.6120    8.5040 C.3   121  PHE121      0.1639
    189  C          8.9480    9.0490    8.9550 C.2   121  PHE121      0.2290
    190  O          8.4880    9.3850   10.0490 O.2   121  PHE121     -0.2864
    191  CB        10.0820   10.8830    7.6820 C.3   121  PHE121      0.0560
    192  CG        10.7220   12.1040    8.2750 C.ar  121  PHE121     -0.0200
    193  CD1       12.1030   12.2370    8.3050 C.ar  121  PHE121     -0.0042
    194  CD2        9.9360   13.1270    8.7930 C.ar  121  PHE121     -0.0042
    195  CE1       12.6970   13.3830    8.8480 C.ar  121  PHE121     -0.0003
    196  CE2       10.5220   14.2760    9.3460 C.ar  121  PHE121     -0.0003
    197  CZ        11.9040   14.3950    9.3680 C.ar  121  PHE121     -0.0000
@<TRIPOS>BOND
     1   111   112    2
     2   111   110    1
     3   110   113    1
     4   110   109    1
     5   113   114    1
     6   116   118   ar
     7   116   114   ar
     8   138   137    2
     9   118   119   ar
    10   114   115   ar
    11   135   136    1
    12   155   153   ar
    13   155   156   ar
    14   145   144    1
    15   145   146    2
    16   137   136    1
    17   137   143   am
    18   157   158    1
    19   153   150   ar
    20   156   154   ar
    21   144   143    1
    22   144   147    1
    23    61    59   ar
    24    61    63   ar
    25   119   117   ar
    26   115   117   ar
    27   136   139    1
    28    59    58   ar
    29   150   152   ar
    30   150   148   ar
    31   158   161    1
    32   158   159    1
    33   154   152   ar
    34    63    62   ar
    35   147   148    1
    36   152   151   ar
    37   148   149   ar
    38   139   140    1
    39    54    55    1
    40    54    53    1
    41    54    57    1
    42   161   162    1
    43    72    70   ar
    44    72    73   ar
    45   163   162   ar
    46    70    69   ar
    47    55    56    2
    48    47    46    2
    49   159   165   am
    50   159   160    2
    51    58    57    1
    52    58    60   ar
    53   151   149   ar
    54   165   166    1
    55    64    65    1
    56   162   164   ar
    57   140   141    1
    58    62    60   ar
    59   100   101    2
    60   100    99    1
    61   105   107   ar
    62   105   103   ar
    63    73    75   ar
    64    73    71   ar
    65   167   166    1
    66   167   168    2
    67    69    68    1
    68    69    71   ar
    69    46    45    1
    70    75    77   ar
    71   107   108   ar
    72   141   142    1
    73   166   169    1
    74    99   102    1
    75    99    98    1
    76   102   103    1
    77   169   170    1
    78    68    65    1
    79    65    66    1
    80   103   104   ar
    81    71    74   ar
    82    48    49    1
    83    48    45    1
    84   170   171   ar
    85   170   172   ar
    86    49    50    1
    87   126   125    1
    88   126   127    1
    89    84    83    2
    90    67    66    2
    91    45    44    1
    92    77    76   ar
    93    66    78   am
    94   108   106   ar
    95   173   174    1
    96   125   124    1
    97    85    83   am
    98    83    82    1
    99    74    76   ar
   100   104   106   ar
   101   179   181   ar
   102   179   178   ar
   103    50    51    1
   104    78    79    1
   105   181   182   ar
   106   120   121    1
   107    51    52    1
   108   124   121    1
   109   174   177    1
   110   174   175    1
   111   191   192    1
   112   191   188    1
   113    79    82    1
   114    79    80    1
   115   187   175   am
   116   187   188    1
   117    42    41    1
   118   178   177    1
   119   178   180   ar
   120   121   122    1
   121   182   184   ar
   122   182   180   ar
   123   192   193   ar
   124   192   194   ar
   125   193   195   ar
   126   175   176    2
   127   123   122    2
   128   188   189    1
   129   184   186   ar
   130   180   183   ar
   131   194   196   ar
   132   195   197   ar
   133   189   190    2
   134    12    11    1
   135    40    41    1
   136    40    37    1
   137    41    43    1
   138    80    81    2
   139    80    86   am
   140   196   197   ar
   141   186   185   ar
   142   183   185   ar
   143    86    87    1
   144   134   132    1
   145    11     9   ar
   146    11    10   ar
   147     9     7   ar
   148    38    37    1
   149    38    39    2
   150    10     8   ar
   151    37    36    1
   152    27    25    1
   153   132   133    1
   154   132   129    1
   155    89    88    2
   156     7     6   ar
   157     8     6   ar
   158    87    88    1
   159     6     5    1
   160   128   129    1
   161    26    25    1
   162    25    24    1
   163   129   130    1
   164    34    33    1
   165     5     2    1
   166    24    21    1
   167   131   130    2
   168    33    35    1
   169    33    32    1
   170    93    92    2
   171    95    94    1
   172    95    96    1
   173    92    94   am
   174    92    91    1
   175    16    15    2
   176    90    91    1
   177     2     1    1
   178     2     3    1
   179    21    20    1
   180    21    22    1
   181    96    97    2
   182    32    29    1
   183    15    20   am
   184    15    14    1
   185     3    13   am
   186     3     4    2
   187    22    23    2
   188    13    14    1
   189    29    28    1
   190    29    30    1
   191    14    17    1
   192    30    31    2
   193    18    17    1
   194    17    19    1
