@<TRIPOS>MOLECULE
tmp/5anvA00.pdb
 162 157 0 0 0
SMALL
GASTEIGER

@<TRIPOS>ATOM
      1  N         10.5500   22.7290   10.3810 N.3     7  LEU7       -0.1245
      2  CA        11.1620   21.4290   10.2110 C.3     7  LEU7        0.1561
      3  C         11.1990   20.7790   11.5770 C.2     7  LEU7        0.2260
      4  O         11.7190   21.3870   12.5230 O.2     7  LEU7       -0.2867
      5  CB        12.5760   21.5810    9.6640 C.3     7  LEU7        0.0270
      6  CG        13.2980   20.2950    9.2920 C.3     7  LEU7        0.0019
      7  CD1       12.6080   19.5540    8.1510 C.3     7  LEU7        0.0001
      8  CD2       14.7270   20.5730    8.9150 C.3     7  LEU7        0.0001
      9  N         12.2810   17.4230   13.9130 N.3     9  LEU9       -0.1245
     10  CA        13.0700   16.2090   14.1060 C.3     9  LEU9        0.1561
     11  C         12.5610   15.4500   15.3060 C.2     9  LEU9        0.2260
     12  O         12.5320   15.9830   16.4170 O.2     9  LEU9       -0.2867
     13  CB        14.5580   16.5470   14.2790 C.3     9  LEU9        0.0270
     14  CG        15.3390   16.8590   12.9910 C.3     9  LEU9        0.0019
     15  CD1       15.2580   15.6870   11.9710 C.3     9  LEU9        0.0001
     16  CD2       14.8650   18.1550   12.3280 C.3     9  LEU9        0.0001
     17  N         13.3860    9.8690   10.2890 N.3    18  LEU18      -0.1245
     18  CA        13.4800   10.6810    9.0940 C.3    18  LEU18       0.1561
     19  C         12.5180   10.1130    8.0580 C.2    18  LEU18       0.2260
     20  O         12.1030    8.9670    8.1480 O.2    18  LEU18      -0.2867
     21  CB        14.9000   10.6970    8.5240 C.3    18  LEU18       0.0270
     22  CG        15.9860   11.2630    9.4470 C.3    18  LEU18       0.0019
     23  CD1       17.3730   10.9110    8.9230 C.3    18  LEU18       0.0001
     24  CD2       15.8550   12.7880    9.5960 C.3    18  LEU18       0.0001
     25  N          9.9330   19.0150   -4.2970 N.3    25  PHE25      -0.1241
     26  CA        11.2740   19.4940   -4.0220 C.3    25  PHE25       0.1605
     27  C         11.8950   18.8140   -2.7980 C.2    25  PHE25       0.2264
     28  O         11.3750   18.9080   -1.6870 O.2    25  PHE25      -0.2867
     29  CB        11.3050   21.0180   -3.9400 C.3    25  PHE25       0.0534
     30  CG        12.6750   21.5920   -4.2000 C.ar   25  PHE25      -0.0203
     31  CD1       13.2200   21.5840   -5.4790 C.ar   25  PHE25      -0.0042
     32  CD2       13.4160   22.1470   -3.1690 C.ar   25  PHE25      -0.0042
     33  CE1       14.4910   22.1140   -5.7160 C.ar   25  PHE25      -0.0003
     34  CE2       14.6800   22.6910   -3.4100 C.ar   25  PHE25      -0.0003
     35  CZ        15.2080   22.6720   -4.6810 C.ar   25  PHE25      -0.0000
     36  N         14.6160   13.4420    5.1690 N.3    31  ASN31      -0.1225
     37  CA        14.3640   14.7710    5.7100 C.3    31  ASN31       0.1785
     38  C         13.6650   14.6350    7.0230 C.2    31  ASN31       0.2597
     39  O         13.0000   13.6270    7.2820 O.2    31  ASN31      -0.2718
     40  CB        13.3060   15.4840    4.7610 C.3    31  ASN31       0.1169
     41  CG        13.7410   15.9430    3.3810 C.2    31  ASN31       0.2627
     42  OD1       13.9710   17.1350    3.1400 O.2    31  ASN31      -0.2716
     43  ND2       13.6220   15.0740    2.3900 N.am   31  ASN31      -0.0877
     44  N         13.6970   15.7110    7.8050 N.am   32  GLY32      -0.1957
     45  CA        12.7520   15.9050    8.8760 C.3    32  GLY32       0.1869
     46  C         11.4030   16.2290    8.2490 C.2    32  GLY32       0.2309
     47  O         11.2490   16.2130    7.0290 O.2    32  GLY32      -0.2863
     48  N          8.2810   18.7980    7.6290 N.3    34  GLY34      -0.1225
     49  CA         8.0290   20.2310    7.6820 C.3    34  GLY34       0.1811
     50  C          7.3740   20.7630    6.4430 C.2    34  GLY34       0.2280
     51  O          7.0380   20.0090    5.5120 O.2    34  GLY34      -0.2866
     52  N         17.9510   29.2900    4.1300 N.3    70  PHE70      -0.1241
     53  CA        18.4820   28.7160    2.9070 C.3    70  PHE70       0.1605
     54  C         18.2910   29.6820    1.7560 C.2    70  PHE70       0.2264
     55  O         17.1820   30.2200    1.5320 O.2    70  PHE70      -0.2867
     56  CB        17.7700   27.4010    2.5750 C.3    70  PHE70       0.0534
     57  CG        18.0020   26.3160    3.5810 C.ar   70  PHE70      -0.0203
     58  CD1       19.2830   25.8200    3.7980 C.ar   70  PHE70      -0.0042
     59  CD2       16.9420   25.7250    4.2550 C.ar   70  PHE70      -0.0042
     60  CE1       19.5110   24.7910    4.7140 C.ar   70  PHE70      -0.0003
     61  CE2       17.1720   24.6890    5.1750 C.ar   70  PHE70      -0.0003
     62  CZ        18.4620   24.2660    5.4250 C.ar   70  PHE70      -0.0000
     63  N         18.9820   29.8490   -2.4260 N.3    72  PHE72      -0.1241
     64  CA        19.3400   29.1780   -3.6720 C.3    72  PHE72       0.1605
     65  C         19.7280   30.2830   -4.6220 C.2    72  PHE72       0.2264
     66  O         18.9150   31.1730   -4.9010 O.2    72  PHE72      -0.2867
     67  CB        18.1900   28.3820   -4.2530 C.3    72  PHE72       0.0534
     68  CG        17.8830   27.1490   -3.4620 C.ar   72  PHE72      -0.0203
     69  CD1       18.6150   25.9790   -3.6530 C.ar   72  PHE72      -0.0042
     70  CD2       16.8670   27.1510   -2.5220 C.ar   72  PHE72      -0.0042
     71  CE1       18.3110   24.8270   -2.9420 C.ar   72  PHE72      -0.0003
     72  CE2       16.5450   25.9830   -1.8280 C.ar   72  PHE72      -0.0003
     73  CZ        17.2570   24.8310   -2.0660 C.ar   72  PHE72      -0.0000
     74  N         14.4060   30.7140    2.2580 N.3    79  MET79      -0.1245
     75  CA        13.6090   29.8740    3.1450 C.3    79  MET79       0.1570
     76  C         14.0670   30.1460    4.5500 C.2    79  MET79       0.2261
     77  O         15.2490   29.9200    4.8660 O.2    79  MET79      -0.2867
     78  CB        13.8360   28.3970    2.8460 C.3    79  MET79       0.0387
     79  CG        13.4220   27.9750    1.4610 C.3    79  MET79       0.0595
     80  SD        13.8480   26.2420    1.1520 S.3    79  MET79      -0.1393
     81  CE        12.8530   25.3690    2.4020 C.3    79  MET79       0.0692
     82  N         13.7480   28.7550    7.8940 N.3    81  VAL81      -0.1245
     83  CA        13.3130   27.4850    8.4790 C.3    81  VAL81       0.1561
     84  C         13.4810   27.4570    9.9810 C.2    81  VAL81       0.2260
     85  O         14.6180   27.5520   10.4820 O.2    81  VAL81      -0.2867
     86  CB        14.0480   26.2880    7.8160 C.3    81  VAL81       0.0252
     87  CG1       13.5100   24.9590    8.3460 C.3    81  VAL81       0.0019
     88  CG2       13.9560   26.3360    6.2810 C.3    81  VAL81       0.0019
     89  N         20.9870   12.7370    2.3690 N.3   113  MET113     -0.1230
     90  CA        20.3150   13.8580    3.0150 C.3   113  MET113      0.1702
     91  C         20.8100   15.1140    2.3620 C.2   113  MET113      0.2592
     92  O         21.8450   15.0940    1.6720 O.2   113  MET113     -0.2718
     93  CB        20.6540   13.8730    4.4910 C.3   113  MET113      0.0401
     94  CG        19.9540   12.7800    5.2400 C.3   113  MET113      0.0596
     95  SD        20.6070   12.3910    6.8610 S.3   113  MET113     -0.1393
     96  CE        19.8310   13.6570    7.8400 C.3   113  MET113      0.0692
     97  N         20.1370   16.2300    2.6150 N.am  114  TRP114     -0.1976
     98  CA        20.6060   17.5160    2.1370 C.3   114  TRP114      0.1640
     99  C         22.0020   17.7590    2.7180 C.2   114  TRP114      0.2290
    100  O         22.2670   17.4280    3.8830 O.2   114  TRP114     -0.2864
    101  CB        19.6480   18.6070    2.5850 C.3   114  TRP114      0.0576
    102  CG        18.4010   18.6950    1.7730 C.ar  114  TRP114      0.0006
    103  CD1       17.2000   18.0950    2.0290 C.ar  114  TRP114      0.0946
    104  CD2       18.2120   19.4900    0.6080 C.ar  114  TRP114      0.0152
    105  NE1       16.2830   18.4510    1.0680 N.ar  114  TRP114     -0.2442
    106  CE2       16.8730   19.3230    0.1930 C.ar  114  TRP114      0.0810
    107  CE3       19.0340   20.3860   -0.1060 C.ar  114  TRP114      0.0012
    108  CZ2       16.3600   19.9500   -0.9370 C.ar  114  TRP114      0.0191
    109  CZ3       18.5100   21.0300   -1.2060 C.ar  114  TRP114      0.0001
    110  CH2       17.1990   20.7880   -1.6330 C.ar  114  TRP114      0.0015
    111  N         23.5790   20.2760    3.9200 N.3   116  ASP116     -0.1225
    112  CA        23.7090   21.1060    5.1240 C.3   116  ASP116      0.1805
    113  C         23.5660   20.3000    6.4000 C.2   116  ASP116      0.2597
    114  O         24.0860   20.7060    7.4430 O.2   116  ASP116     -0.2718
    115  CB        22.7000   22.2480    5.1150 C.3   116  ASP116      0.1424
    116  CG        21.2840   21.7420    4.9720 C.2   116  ASP116      0.3668
    117  OD1       20.9300   21.2920    3.8600 O.co2 116  ASP116     -0.2456
    118  OD2       20.5280   21.8160    5.9460 O.co2 116  ASP116     -0.2456
    119  N         22.8530   19.1610    6.3390 N.am  117  ASP117     -0.1974
    120  CA        22.6240   18.3920    7.5610 C.3   117  ASP117      0.1709
    121  C         23.8860   17.9460    8.2300 C.2   117  ASP117      0.2293
    122  O         23.9220   17.8530    9.4540 O.2   117  ASP117     -0.2864
    123  CB        21.7750   17.1690    7.2620 C.3   117  ASP117      0.1436
    124  CG        20.3750   17.4740    6.8600 C.2   117  ASP117      0.3671
    125  OD1       19.8850   18.5560    7.1970 O.co2 117  ASP117     -0.2456
    126  OD2       19.6910   16.5560    6.3930 O.co2 117  ASP117     -0.2456
    127  N         24.8300   20.8560   10.7900 N.3   120  TRP120     -0.1227
    128  CA        24.0520   21.1820   11.9750 C.3   120  TRP120      0.1737
    129  C         23.5240   19.9710   12.7290 C.2   120  TRP120      0.2595
    130  O         23.2180   20.1190   13.9140 O.2   120  TRP120     -0.2718
    131  CB        22.9680   22.1900   11.6860 C.3   120  TRP120      0.0564
    132  CG        21.9830   21.7480   10.6610 C.ar  120  TRP120      0.0003
    133  CD1       21.9950   22.0520    9.3360 C.ar  120  TRP120      0.0946
    134  CD2       20.7600   21.0650   10.9040 C.ar  120  TRP120      0.0152
    135  NE1       20.8800   21.5450    8.7260 N.ar  120  TRP120     -0.2442
    136  CE2       20.0890   20.9540    9.6680 C.ar  120  TRP120      0.0810
    137  CE3       20.1220   20.5850   12.0610 C.ar  120  TRP120      0.0012
    138  CZ2       18.8170   20.3730    9.5520 C.ar  120  TRP120      0.0191
    139  CZ3       18.8710   19.9970   11.9380 C.ar  120  TRP120      0.0001
    140  CH2       18.2280   19.9100   10.6980 C.ar  120  TRP120      0.0015
    141  N         23.4850   18.7430   12.1240 N.am  121  PHE121     -0.1976
    142  CA        23.1110   17.5470   12.9420 C.3   121  PHE121      0.1639
    143  C         24.0600   17.3110   14.1120 C.2   121  PHE121      0.2290
    144  O         23.5230   16.9660   15.1870 O.2   121  PHE121     -0.2864
    145  CB        23.0630   16.2620   12.1210 C.3   121  PHE121      0.0560
    146  CG        21.6640   15.9290   11.7090 C.ar  121  PHE121     -0.0200
    147  CD1       20.9070   16.8360   10.9830 C.ar  121  PHE121     -0.0042
    148  CD2       21.1070   14.6990   12.0330 C.ar  121  PHE121     -0.0042
    149  CE1       19.5970   16.5350   10.6210 C.ar  121  PHE121     -0.0003
    150  CE2       19.8280   14.3600   11.5890 C.ar  121  PHE121     -0.0003
    151  CZ        19.0640   15.2940   10.9190 C.ar  121  PHE121     -0.0000
    152  N         23.1680   27.7720   -1.4370 N.3   136  PHE136     -0.1241
    153  CA        23.2560   26.6610   -2.3520 C.3   136  PHE136      0.1605
    154  C         23.3030   27.0930   -3.7910 C.2   136  PHE136      0.2264
    155  O         22.6430   28.0680   -4.2090 O.2   136  PHE136     -0.2867
    156  CB        21.9880   25.8010   -2.2100 C.3   136  PHE136      0.0534
    157  CG        22.0320   24.7590   -1.1220 C.ar  136  PHE136     -0.0203
    158  CD1       21.9170   25.1160    0.2150 C.ar  136  PHE136     -0.0042
    159  CD2       22.2170   23.4180   -1.4350 C.ar  136  PHE136     -0.0042
    160  CE1       21.9520   24.1370    1.2230 C.ar  136  PHE136     -0.0003
    161  CE2       22.2520   22.4480   -0.4300 C.ar  136  PHE136     -0.0003
    162  CZ        22.1190   22.8140    0.8900 C.ar  136  PHE136     -0.0000
@<TRIPOS>BOND
     1    33    31   ar
     2    33    35   ar
     3    31    30   ar
     4    66    65    2
     5    35    34   ar
     6    65    64    1
     7    25    26    1
     8    67    64    1
     9    67    68    1
    10   155   154    2
    11    30    29    1
    12    30    32   ar
    13    26    29    1
    14    26    27    1
    15   154   153    1
    16    64    63    1
    17    69    68   ar
    18    69    71   ar
    19    68    70   ar
    20    34    32   ar
    21    71    73   ar
    22    27    28    2
    23    70    72   ar
    24   153   156    1
    25   153   152    1
    26   156   157    1
    27    73    72   ar
    28   110   109   ar
    29   110   108   ar
    30   159   157   ar
    31   159   161   ar
    32   109   107   ar
    33   157   158   ar
    34   108   106   ar
    35   161   162   ar
    36   107   104   ar
    37   106   104   ar
    38   106   105   ar
    39   158   160   ar
    40   104   102   ar
    41   162   160   ar
    42   105   103   ar
    43    80    79    1
    44    80    81    1
    45    79    78    1
    46    55    54    2
    47    92    91    2
    48    54    53    1
    49   102   103   ar
    50   102   101    1
    51    98   101    1
    52    98    97    1
    53    98    99    1
    54    74    75    1
    55    91    97   am
    56    91    90    1
    57    89    90    1
    58    43    41   am
    59    56    53    1
    60    56    57    1
    61    99   100    2
    62    78    75    1
    63    53    52    1
    64    90    93    1
    65    42    41    2
    66    75    76    1
    67    41    40    1
    68    57    58   ar
    69    57    59   ar
    70    58    60   ar
    71   117   116   ar
    72   111   112    1
    73    59    61   ar
    74    93    94    1
    75    76    77    2
    76    60    62   ar
    77    40    37    1
    78   116   115    1
    79   116   118   ar
    80   115   112    1
    81   112   113    1
    82    36    37    1
    83    61    62   ar
    84    94    95    1
    85    51    50    2
    86    37    38    1
    87    88    86    1
    88   119   113   am
    89   119   120    1
    90   126   124   ar
    91   113   114    2
    92    50    49    1
    93   124   125   ar
    94   124   123    1
    95    95    96    1
    96    38    39    2
    97    38    44   am
    98    47    46    2
    99   123   120    1
   100   120   121    1
   101    48    49    1
   102    44    45    1
   103    86    87    1
   104    86    83    1
   105    82    83    1
   106    19    20    2
   107    19    18    1
   108     7     6    1
   109   121   122    2
   110    46    45    1
   111    83    84    1
   112    21    18    1
   113    21    22    1
   114   135   133   ar
   115   135   136   ar
   116     8     6    1
   117    23    22    1
   118    18    17    1
   119     6     5    1
   120   133   132   ar
   121    22    24    1
   122   138   136   ar
   123   138   140   ar
   124     5     2    1
   125   136   134   ar
   126    84    85    2
   127     2     1    1
   128     2     3    1
   129   149   151   ar
   130   149   147   ar
   131   132   134   ar
   132   132   131    1
   133   140   139   ar
   134   127   128    1
   135   134   137   ar
   136   151   150   ar
   137   147   146   ar
   138     3     4    2
   139   150   148   ar
   140   131   128    1
   141   146   148   ar
   142   146   145    1
   143   139   137   ar
   144    15    14    1
   145   128   129    1
   146   145   142    1
   147   141   129   am
   148   141   142    1
   149    16    14    1
   150   129   130    2
   151   142   143    1
   152    14    13    1
   153     9    10    1
   154    10    13    1
   155    10    11    1
   156   143   144    2
   157    11    12    2
