@<TRIPOS>MOLECULE
tmp/5anwA00.pdb
 191 187 0 0 0
SMALL
GASTEIGER

@<TRIPOS>ATOM
      1  N          9.2480   28.3070    6.6480 N.3     5  TYR5       -0.1227
      2  CA         9.1290   26.8590    6.5610 C.3     5  TYR5        0.1736
      3  C          9.4410   26.2990    7.9240 C.2     5  TYR5        0.2596
      4  O         10.1580   26.9150    8.7060 O.2     5  TYR5       -0.2718
      5  CB        10.1020   26.2540    5.5250 C.3     5  TYR5        0.0548
      6  CG         9.8150   26.7040    4.1140 C.ar    5  TYR5       -0.0200
      7  CD1       10.3570   27.8840    3.6190 C.ar    5  TYR5       -0.0009
      8  CD2        9.0120   25.9490    3.2700 C.ar    5  TYR5       -0.0009
      9  CE1       10.0900   28.3140    2.3220 C.ar    5  TYR5        0.0417
     10  CE2        8.7410   26.3670    1.9650 C.ar    5  TYR5        0.0417
     11  CZ         9.2690   27.5600    1.5030 C.ar    5  TYR5        0.1957
     12  OH         9.0200   27.9670    0.2080 O.3     5  TYR5       -0.2866
     13  N          8.9170   25.1180    8.2130 N.am    6  THR6       -0.1939
     14  CA         9.1860   24.4120    9.4500 C.3     6  THR6        0.2028
     15  C          9.9660   23.1190    9.1580 C.2     6  THR6        0.2642
     16  O          9.8960   22.5280    8.0570 O.2     6  THR6       -0.2714
     17  CB         7.9160   24.0750   10.1850 C.3     6  THR6        0.1808
     18  OG1        7.0690   23.2960    9.3240 O.3     6  THR6       -0.2208
     19  CG2        7.2140   25.3310   10.6740 C.3     6  THR6        0.0379
     20  N         10.6980   22.6480   10.1780 N.am    7  LEU7       -0.1977
     21  CA        11.4530   21.4190   10.1220 C.3     7  LEU7        0.1596
     22  C         11.4450   20.8070   11.4820 C.2     7  LEU7        0.2287
     23  O         11.9140   21.4280   12.4320 O.2     7  LEU7       -0.2864
     24  CB        12.8830   21.6870    9.6290 C.3     7  LEU7        0.0297
     25  CG        13.7740   20.4700    9.4620 C.3     7  LEU7        0.0022
     26  CD1       13.2130   19.5260    8.4270 C.3     7  LEU7        0.0001
     27  CD2       15.1850   20.8880    9.1060 C.3     7  LEU7        0.0001
     28  N         11.0830   11.8640    1.2800 N.3    21  LYS21      -0.1245
     29  CA        10.0460   12.5510    0.5160 C.3    21  LYS21       0.1561
     30  C          9.9260   11.9480   -0.8830 C.2    21  LYS21       0.2260
     31  O         10.9320   11.7430   -1.5550 O.2    21  LYS21      -0.2867
     32  CB        10.3260   14.0600    0.4880 C.3    21  LYS21       0.0271
     33  CG         9.1730   14.8670   -0.0970 C.3    21  LYS21       0.0035
     34  CD         9.1780   16.3160    0.4000 C.3    21  LYS21       0.0206
     35  CE         8.2320   17.2100   -0.3900 C.3    21  LYS21       0.1093
     36  NZ         6.8260   16.7090   -0.4150 N.3    21  LYS21      -0.1314
     37  N          9.5740   19.2290   -4.0390 N.3    25  PHE25      -0.1227
     38  CA        10.8120   19.7960   -3.5480 C.3    25  PHE25       0.1736
     39  C         11.4360   18.9090   -2.4670 C.2    25  PHE25       0.2596
     40  O         10.7890   18.5980   -1.4750 O.2    25  PHE25      -0.2718
     41  CB        10.5500   21.2160   -3.0450 C.3    25  PHE25       0.0547
     42  CG        11.8030   21.9210   -2.5960 C.ar   25  PHE25      -0.0202
     43  CD1       12.6770   22.4770   -3.5220 C.ar   25  PHE25      -0.0042
     44  CD2       12.1160   22.0240   -1.2430 C.ar   25  PHE25      -0.0042
     45  CE1       13.8420   23.1170   -3.1040 C.ar   25  PHE25      -0.0003
     46  CE2       13.2790   22.6750   -0.8290 C.ar   25  PHE25      -0.0003
     47  CZ        14.1310   23.2140   -1.7610 C.ar   25  PHE25      -0.0000
     48  N         12.6870   18.5210   -2.6760 N.am   26  GLY26      -0.1957
     49  CA        13.4210   17.6680   -1.7500 C.3    26  GLY26       0.1869
     50  C         13.1740   16.1830   -1.9450 C.2    26  GLY26       0.2309
     51  O         13.6240   15.3690   -1.1350 O.2    26  GLY26      -0.2863
     52  N         14.7370   13.7870    5.4150 N.3    31  ASN31      -0.1225
     53  CA        14.7050   15.0300    6.1710 C.3    31  ASN31       0.1785
     54  C         13.7160   14.8820    7.3060 C.2    31  ASN31       0.2598
     55  O         12.9930   13.8800    7.4090 O.2    31  ASN31      -0.2718
     56  CB        14.2910   16.2090    5.2540 C.3    31  ASN31       0.1169
     57  CG        14.7880   17.5480    5.7170 C.2    31  ASN31       0.2627
     58  OD1       15.4310   17.6910    6.7580 O.2    31  ASN31      -0.2716
     59  ND2       14.5180   18.5640    4.9230 N.am   31  ASN31      -0.0877
     60  N         13.6600   15.9040    8.1520 N.am   32  GLY32      -0.1942
     61  CA        12.6120   15.9960    9.1450 C.3    32  GLY32       0.2014
     62  C         11.3090   16.3510    8.4410 C.2    32  GLY32       0.2639
     63  O         11.2240   16.3990    7.2000 O.2    32  GLY32      -0.2714
     64  N         10.2740   16.5980    9.2270 N.am   33  PHE33      -0.1959
     65  CA         8.9490   16.8530    8.6950 C.3    33  PHE33       0.1771
     66  C          8.5970   18.3110    8.7770 C.2    33  PHE33       0.2620
     67  O          9.0240   18.9890    9.7120 O.2    33  PHE33      -0.2715
     68  CB         7.9340   16.0110    9.4720 C.3    33  PHE33       0.0574
     69  CG         8.2820   14.5480    9.4110 C.ar   33  PHE33      -0.0200
     70  CD1        7.9050   13.7730    8.3240 C.ar   33  PHE33      -0.0042
     71  CD2        9.0240   13.9550   10.4210 C.ar   33  PHE33      -0.0042
     72  CE1        8.2430   12.4170    8.2590 C.ar   33  PHE33      -0.0003
     73  CE2        9.3820   12.6070   10.3520 C.ar   33  PHE33      -0.0003
     74  CZ         9.0110   11.8490    9.2590 C.ar   33  PHE33      -0.0000
     75  N          7.8180   18.8030    7.8370 N.am   34  GLY34      -0.1940
     76  CA         7.4610   20.2140    7.8930 C.3    34  GLY34       0.2014
     77  C          6.9670   20.7390    6.5700 C.2    34  GLY34       0.2639
     78  O          6.6870   19.9810    5.6490 O.2    34  GLY34      -0.2714
     79  N          6.8600   22.0460    6.4730 N.am   35  GLY35      -0.1954
     80  CA         6.3580   22.6560    5.2600 C.3    35  GLY35       0.1869
     81  C          6.1100   24.1220    5.4640 C.2    35  GLY35       0.2309
     82  O          6.6880   24.7410    6.3610 O.2    35  GLY35      -0.2863
     83  N          2.4680   14.5330    7.7110 N.3    54  GLU54      -0.1245
     84  CA         3.5230   13.7960    7.0140 C.3    54  GLU54       0.1567
     85  C          4.0200   12.5390    7.6910 C.2    54  GLU54       0.2260
     86  O          4.5210   11.6450    6.9940 O.2    54  GLU54      -0.2867
     87  CB         4.7050   14.7170    6.7490 C.3    54  GLU54       0.0388
     88  CG         4.3500   15.8980    5.8770 C.3    54  GLU54       0.1160
     89  CD         5.4240   16.9530    5.7890 C.2    54  GLU54       0.3649
     90  OE1        6.5350   16.7490    6.3300 O.co2  54  GLU54      -0.2457
     91  OE2        5.1530   17.9800    5.1300 O.co2  54  GLU54      -0.2457
     92  N         18.1450   29.5270    4.0100 N.3    70  PHE70      -0.1241
     93  CA        18.6910   28.9530    2.7870 C.3    70  PHE70       0.1605
     94  C         18.5070   29.8890    1.6320 C.2    70  PHE70       0.2264
     95  O         17.4050   30.3880    1.3820 O.2    70  PHE70      -0.2867
     96  CB        18.0330   27.6080    2.4600 C.3    70  PHE70       0.0534
     97  CG        18.3190   26.5790    3.5110 C.ar   70  PHE70      -0.0203
     98  CD1       19.5730   25.9940    3.6080 C.ar   70  PHE70      -0.0042
     99  CD2       17.3160   26.1490    4.3830 C.ar   70  PHE70      -0.0042
    100  CE1       19.8310   25.0100    4.5660 C.ar   70  PHE70      -0.0003
    101  CE2       17.5790   25.1680    5.3480 C.ar   70  PHE70      -0.0003
    102  CZ        18.8300   24.5980    5.4190 C.ar   70  PHE70      -0.0000
    103  N         19.2250   30.0350   -2.5710 N.3    72  PHE72      -0.1241
    104  CA        19.6220   29.3770   -3.7970 C.3    72  PHE72       0.1605
    105  C         20.0360   30.5230   -4.7120 C.2    72  PHE72       0.2264
    106  O         19.2210   31.4080   -4.9980 O.2    72  PHE72      -0.2867
    107  CB        18.4490   28.6130   -4.4170 C.3    72  PHE72       0.0534
    108  CG        18.1460   27.3320   -3.6860 C.ar   72  PHE72      -0.0203
    109  CD1       18.9610   26.2170   -3.8430 C.ar   72  PHE72      -0.0042
    110  CD2       17.0680   27.2490   -2.8180 C.ar   72  PHE72      -0.0042
    111  CE1       18.7020   25.0420   -3.1440 C.ar   72  PHE72      -0.0003
    112  CE2       16.8000   26.0600   -2.1240 C.ar   72  PHE72      -0.0003
    113  CZ        17.6230   24.9650   -2.2940 C.ar   72  PHE72      -0.0000
    114  N         14.6490   30.8590    2.0440 N.3    79  MET79      -0.1245
    115  CA        13.8300   29.9500    2.8630 C.3    79  MET79       0.1570
    116  C         14.2260   30.1690    4.3030 C.2    79  MET79       0.2261
    117  O         15.3810   29.9490    4.6580 O.2    79  MET79      -0.2867
    118  CB        14.0630   28.4840    2.4650 C.3    79  MET79       0.0387
    119  CG        13.5500   28.1380    1.0800 C.3    79  MET79       0.0595
    120  SD        13.8100   26.3720    0.6930 S.3    79  MET79      -0.1393
    121  CE        12.6010   25.5630    1.8300 C.3    79  MET79       0.0692
    122  N         13.9040   28.7490    7.6170 N.3    81  VAL81      -0.1245
    123  CA        13.4900   27.4820    8.2220 C.3    81  VAL81       0.1561
    124  C         13.5950   27.4820    9.7210 C.2    81  VAL81       0.2260
    125  O         14.6830   27.7010   10.2640 O.2    81  VAL81      -0.2867
    126  CB        14.2730   26.3070    7.5970 C.3    81  VAL81       0.0252
    127  CG1       13.8910   24.9870    8.2450 C.3    81  VAL81       0.0019
    128  CG2       14.0500   26.2450    6.0790 C.3    81  VAL81       0.0019
    129  N          5.3530   10.3160    1.7120 N.3    99  MET99      -0.1245
    130  CA         6.4400   10.2530    2.6680 C.3    99  MET99       0.1570
    131  C          6.6570    8.8400    3.1950 C.2    99  MET99       0.2261
    132  O          5.7010    8.1440    3.5460 O.2    99  MET99      -0.2867
    133  CB         6.0640   11.2030    3.8420 C.3    99  MET99       0.0387
    134  CG         7.2030   11.5370    4.7920 C.3    99  MET99       0.0595
    135  SD         8.5880   12.4960    4.1080 S.3    99  MET99      -0.1393
    136  CE         7.8680   14.1200    3.9930 C.3    99  MET99       0.0692
    137  N         20.0040   16.4870    2.6140 N.3   115  TRP115     -0.1241
    138  CA        20.5130   17.7450    2.0640 C.3   115  TRP115      0.1605
    139  C         21.9430   17.9190    2.6610 C.2   115  TRP115      0.2264
    140  O         22.2150   17.5010    3.7910 O.2   115  TRP115     -0.2867
    141  CB        19.6310   18.9170    2.4950 C.3   115  TRP115      0.0550
    142  CG        18.2980   19.0130    1.8080 C.ar  115  TRP115      0.0003
    143  CD1       17.1070   18.5300    2.2670 C.ar  115  TRP115      0.0946
    144  CD2       18.0030   19.7240    0.5980 C.ar  115  TRP115      0.0152
    145  NE1       16.0940   18.8650    1.4020 N.ar  115  TRP115     -0.2442
    146  CE2       16.6170   19.5840    0.3590 C.ar  115  TRP115      0.0810
    147  CE3       18.7910   20.4180   -0.3480 C.ar  115  TRP115      0.0012
    148  CZ2       15.9870   20.1580   -0.7540 C.ar  115  TRP115      0.0191
    149  CZ3       18.1690   20.9770   -1.4540 C.ar  115  TRP115      0.0001
    150  CH2       16.7850   20.8340   -1.6550 C.ar  115  TRP115      0.0015
    151  N         23.6810   20.3820    3.8850 N.3   117  ASP117     -0.1225
    152  CA        23.9070   21.1960    5.0770 C.3   117  ASP117      0.1805
    153  C         23.7020   20.4000    6.3760 C.2   117  ASP117      0.2597
    154  O         24.2330   20.7910    7.4130 O.2   117  ASP117     -0.2718
    155  CB        22.9500   22.3850    5.0910 C.3   117  ASP117      0.1424
    156  CG        21.5210   21.9380    4.9650 C.2   117  ASP117      0.3668
    157  OD1       21.1360   21.5350    3.8690 O.co2 117  ASP117     -0.2456
    158  OD2       20.7920   21.9980    5.9630 O.co2 117  ASP117     -0.2456
    159  N         22.9450   19.3090    6.3350 N.am  118  ASP118     -0.1974
    160  CA        22.6490   18.5440    7.5450 C.3   118  ASP118      0.1709
    161  C         23.8760   18.0600    8.2680 C.2   118  ASP118      0.2293
    162  O         23.8650   18.0340    9.4900 O.2   118  ASP118     -0.2864
    163  CB        21.7220   17.3680    7.2250 C.3   118  ASP118      0.1436
    164  CG        20.3810   17.8060    6.6850 C.2   118  ASP118      0.3671
    165  OD1       20.3300   18.8390    5.9810 O.co2 118  ASP118     -0.2456
    166  OD2       19.4030   17.0770    6.8790 O.co2 118  ASP118     -0.2456
    167  N         24.9490   20.9680   10.8760 N.3   121  TRP121     -0.1241
    168  CA        24.1750   21.2890   12.0720 C.3   121  TRP121      0.1605
    169  C         23.5590   20.1030   12.7890 C.2   121  TRP121      0.2264
    170  O         23.2390   20.2370   13.9780 O.2   121  TRP121     -0.2867
    171  CB        23.1000   22.3340   11.7560 C.3   121  TRP121      0.0550
    172  CG        22.1520   21.9140   10.6880 C.ar  121  TRP121      0.0003
    173  CD1       22.2090   22.2490    9.3640 C.ar  121  TRP121      0.0946
    174  CD2       20.9500   21.1510   10.8590 C.ar  121  TRP121      0.0152
    175  NE1       21.1560   21.6860    8.6920 N.ar  121  TRP121     -0.2442
    176  CE2       20.3570   21.0220    9.5860 C.ar  121  TRP121      0.0810
    177  CE3       20.3350   20.5310   11.9600 C.ar  121  TRP121      0.0012
    178  CZ2       19.1790   20.2960    9.3790 C.ar  121  TRP121      0.0191
    179  CZ3       19.1620   19.8260   11.7600 C.ar  121  TRP121      0.0001
    180  CH2       18.5950   19.7130   10.4790 C.ar  121  TRP121      0.0015
    181  N         23.4120   27.9800   -1.5090 N.3   137  PHE137     -0.1241
    182  CA        23.4780   26.8750   -2.4360 C.3   137  PHE137      0.1605
    183  C         23.5480   27.3100   -3.8910 C.2   137  PHE137      0.2264
    184  O         22.9220   28.3130   -4.2680 O.2   137  PHE137     -0.2867
    185  CB        22.2060   26.0240   -2.2800 C.3   137  PHE137      0.0534
    186  CG        22.2330   24.9890   -1.1890 C.ar  137  PHE137     -0.0203
    187  CD1       22.0830   25.3530    0.1490 C.ar  137  PHE137     -0.0042
    188  CD2       22.3400   23.6380   -1.4960 C.ar  137  PHE137     -0.0042
    189  CE1       22.1030   24.3750    1.1690 C.ar  137  PHE137     -0.0003
    190  CE2       22.3680   22.6680   -0.4840 C.ar  137  PHE137     -0.0003
    191  CZ        22.2340   23.0410    0.8390 C.ar  137  PHE137     -0.0000
@<TRIPOS>BOND
     1   106   105    2
     2   105   104    1
     3   107   104    1
     4   107   108    1
     5   184   183    2
     6    37    38    1
     7   183   182    1
     8   109   108   ar
     9   109   111   ar
    10   104   103    1
    11   108   110   ar
    12    38    41    1
    13    38    39    1
    14    43    45   ar
    15    43    42   ar
    16   111   113   ar
    17    45    47   ar
    18    41    42    1
    19   110   112   ar
    20    48    39   am
    21    48    49    1
    22    42    44   ar
    23    39    40    2
    24   182   185    1
    25   182   181    1
    26   113   112   ar
    27   185   186    1
    28    50    49    1
    29    50    51    2
    30    47    46   ar
    31   150   149   ar
    32   150   148   ar
    33    31    30    2
    34   188   186   ar
    35   188   190   ar
    36   149   147   ar
    37    44    46   ar
    38   186   187   ar
    39    30    29    1
    40   148   146   ar
    41   190   191   ar
    42    36    35    1
    43    35    34    1
    44   147   144   ar
    45    33    34    1
    46    33    32    1
    47   187   189   ar
    48    12    11    1
    49   146   144   ar
    50   146   145   ar
    51    32    29    1
    52    29    28    1
    53   144   142   ar
    54   120   119    1
    55   120   121    1
    56   191   189   ar
    57   119   118    1
    58    95    94    2
    59   145   143   ar
    60    11    10   ar
    61    11     9   ar
    62    94    93    1
    63   129   130    1
    64   142   143   ar
    65   142   141    1
    66    10     8   ar
    67   114   115    1
    68   138   141    1
    69   138   137    1
    70   138   139    1
    71     9     7   ar
    72    96    93    1
    73    96    97    1
    74   118   115    1
    75   139   140    2
    76   130   131    1
    77   130   133    1
    78    93    92    1
    79   115   116    1
    80   131   132    2
    81     8     6   ar
    82    97    98   ar
    83    97    99   ar
    84    98   100   ar
    85     7     6   ar
    86   133   134    1
    87   157   156   ar
    88   151   152    1
    89   136   135    1
    90   135   134    1
    91     6     5    1
    92   116   117    2
    93    99   101   ar
    94   100   102   ar
    95    59    57   am
    96   156   155    1
    97   156   158   ar
    98   152   155    1
    99   152   153    1
   100    91    89   ar
   101    56    57    1
   102    56    53    1
   103    80    81    1
   104    80    79    1
   105   101   102   ar
   106    52    53    1
   107    81    82    2
   108     5     2    1
   109    78    77    2
   110    57    58    2
   111    89    88    1
   112    89    90   ar
   113    88    87    1
   114   165   164   ar
   115   128   126    1
   116    53    54    1
   117   159   153   am
   118   159   160    1
   119   153   154    2
   120    79    77   am
   121     2     1    1
   122     2     3    1
   123    77    76    1
   124   164   166   ar
   125   164   163    1
   126    87    84    1
   127    86    85    2
   128    84    85    1
   129    84    83    1
   130    63    62    2
   131   163   160    1
   132    54    55    2
   133    54    60   am
   134   160   161    1
   135   126   123    1
   136   126   127    1
   137   122   123    1
   138    75    76    1
   139    75    66   am
   140     3    13   am
   141     3     4    2
   142    16    15    2
   143    60    61    1
   144    13    14    1
   145   123   124    1
   146    72    70   ar
   147    72    74   ar
   148   161   162    2
   149    70    69   ar
   150    26    25    1
   151    62    61    1
   152    62    64   am
   153   175   173   ar
   154   175   176   ar
   155    65    66    1
   156    65    64    1
   157    65    68    1
   158    66    67    2
   159    27    25    1
   160    15    14    1
   161    15    20   am
   162    74    73   ar
   163    18    17    1
   164   173   172   ar
   165   178   176   ar
   166   178   180   ar
   167    69    68    1
   168    69    71   ar
   169    14    17    1
   170    25    24    1
   171   176   174   ar
   172    24    21    1
   173   124   125    2
   174    21    20    1
   175    21    22    1
   176    17    19    1
   177    73    71   ar
   178   180   179   ar
   179   172   174   ar
   180   172   171    1
   181   174   177   ar
   182   167   168    1
   183    22    23    2
   184   171   168    1
   185   179   177   ar
   186   168   169    1
   187   169   170    2
