@<TRIPOS>MOLECULE
tmp/5anzA00.pdb
 88 84 0 0 0
SMALL
GASTEIGER

@<TRIPOS>ATOM
      1  N         30.3360   -8.3210    2.4800 N.3    50  ARG50      -0.1245
      2  CA        29.6280   -9.4080    3.1420 C.3    50  ARG50       0.1563
      3  C         28.2940   -8.9270    3.7110 C.2    50  ARG50       0.2260
      4  O         28.1760   -7.7790    4.1400 O.2    50  ARG50      -0.2867
      5  CB        30.5020  -10.0140    4.2430 C.3    50  ARG50       0.0307
      6  CG        31.2940   -8.9890    5.0430 C.3    50  ARG50       0.0489
      7  CD        32.7000   -9.4920    5.3420 C.3    50  ARG50       0.2205
      8  NE        32.7090  -10.6150    6.2750 N.pl3  50  ARG50      -0.0865
      9  CZ        33.0760  -10.5200    7.5490 C.cat  50  ARG50       0.5346
     10  NH1       33.4710   -9.3510    8.0380 N.pl3  50  ARG50       0.1354
     11  NH2       33.0550  -11.5900    8.3320 N.pl3  50  ARG50       0.1354
     12  N         28.9590  -10.2380    8.8550 N.3    55  TYR55      -0.1241
     13  CA        29.7410   -9.2700    9.6130 C.3    55  TYR55       0.1605
     14  C         29.5380   -9.4510   11.1130 C.2    55  TYR55       0.2264
     15  O         30.5000   -9.5170   11.8840 O.2    55  TYR55      -0.2867
     16  CB        29.3650   -7.8540    9.2110 C.3    55  TYR55       0.0534
     17  CG        30.0440   -6.7910   10.0400 C.ar   55  TYR55      -0.0201
     18  CD1       31.3720   -6.4530    9.8180 C.ar   55  TYR55      -0.0009
     19  CD2       29.3560   -6.1130   11.0440 C.ar   55  TYR55      -0.0009
     20  CE1       31.9960   -5.4740   10.5680 C.ar   55  TYR55       0.0417
     21  CE2       29.9730   -5.1270   11.7970 C.ar   55  TYR55       0.0417
     22  CZ        31.2890   -4.8120   11.5540 C.ar   55  TYR55       0.1957
     23  OH        31.9140   -3.8400   12.3050 O.3    55  TYR55      -0.2866
     24  N         31.0660  -12.5920   12.6330 N.3    58  GLY58      -0.1210
     25  CA        32.4800  -12.3820   12.9000 C.3    58  GLY58       0.1956
     26  C         32.7270  -11.5040   14.1210 C.2    58  GLY58       0.2611
     27  O         33.5670  -11.8180   14.9720 O.2    58  GLY58      -0.2717
     28  N         32.0020  -10.3920   14.2100 N.am   59  ALA59      -0.1979
     29  CA        32.1520   -9.4660   15.3370 C.3    59  ALA59       0.1597
     30  C         31.8190  -10.1200   16.6820 C.2    59  ALA59       0.2287
     31  O         32.4720   -9.8530   17.7000 O.2    59  ALA59      -0.2864
     32  CB        31.2640   -8.2300   15.1230 C.3    59  ALA59       0.0319
     33  N         35.8110  -13.6800   20.6890 N.3    64  ARG64      -0.1245
     34  CA        35.8950  -12.2620   21.0510 C.3    64  ARG64       0.1563
     35  C         35.0620  -11.9820   22.2980 C.2    64  ARG64       0.2260
     36  O         35.4370  -11.1650   23.1380 O.2    64  ARG64      -0.2867
     37  CB        35.4470  -11.3460   19.9070 C.3    64  ARG64       0.0307
     38  CG        35.5730   -9.8450   20.2680 C.3    64  ARG64       0.0489
     39  CD        35.4940   -8.8980   19.0510 C.3    64  ARG64       0.2205
     40  NE        36.6450   -9.0650   18.1590 N.pl3  64  ARG64      -0.0865
     41  CZ        36.6310   -9.7660   17.0290 C.cat  64  ARG64       0.5346
     42  NH1       35.5140  -10.3580   16.6250 N.pl3  64  ARG64       0.1354
     43  NH2       37.7360   -9.8770   16.2990 N.pl3  64  ARG64       0.1354
     44  N         37.1990   -4.0640   21.9450 N.3    98  GLY98      -0.1210
     45  CA        37.1940   -5.2970   21.1650 C.3    98  GLY98       0.1956
     46  C         36.9990   -5.0540   19.6750 C.2    98  GLY98       0.2612
     47  O         37.6850   -5.6530   18.8450 O.2    98  GLY98      -0.2717
     48  N         36.0470   -4.1880   19.3290 N.am   99  MET99      -0.1965
     49  CA        35.7520   -3.9220   17.9260 C.3    99  MET99       0.1736
     50  C         36.8540   -3.1150   17.2410 C.2    99  MET99       0.2616
     51  O         37.0900   -3.2870   16.0470 O.2    99  MET99      -0.2715
     52  CB        34.4030   -3.1900   17.7840 C.3    99  MET99       0.0427
     53  CG        33.1950   -4.0750   18.0680 C.3    99  MET99       0.0599
     54  SD        33.0500   -5.4680   16.9460 S.3    99  MET99      -0.1393
     55  CE        32.7070   -4.5780   15.4190 C.3    99  MET99       0.0692
     56  N         37.5240   -2.2450   17.9940 N.am  100  GLU100     -0.1963
     57  CA        38.5130   -1.3560   17.3800 C.3   100  GLU100      0.1733
     58  C         39.8590   -2.0200   17.1750 C.2   100  GLU100      0.2617
     59  O         40.4690   -1.8400   16.1140 O.2   100  GLU100     -0.2715
     60  CB        38.6850   -0.0810   18.2150 C.3   100  GLU100      0.0429
     61  CG        37.4720    0.8250   18.1160 C.3   100  GLU100      0.1163
     62  CD        37.2810    1.3670   16.7120 C.2   100  GLU100      0.3649
     63  OE1       38.3040    1.5920   16.0290 O.co2 100  GLU100     -0.2457
     64  OE2       36.1240    1.5530   16.2730 O.co2 100  GLU100     -0.2457
     65  N         40.3350   -2.7810   18.1650 N.am  101  SER101     -0.1936
     66  CA        41.6790   -3.3650   18.0560 C.3   101  SER101      0.2055
     67  C         41.7930   -4.7590   18.6570 C.2   101  SER101      0.2643
     68  O         42.8920   -5.2030   18.9790 O.2   101  SER101     -0.2714
     69  CB        42.6970   -2.4500   18.7320 C.3   101  SER101      0.2130
     70  OG        42.5160   -2.4250   20.1420 O.3   101  SER101     -0.2179
     71  N         40.6650   -5.4550   18.8270 N.am  102  ASN102     -0.1971
     72  CA        40.6920   -6.7480   19.5040 C.3   102  ASN102      0.1688
     73  C         41.3660   -6.6530   20.8790 C.2   102  ASN102      0.2292
     74  O         42.2170   -7.4680   21.2240 O.2   102  ASN102     -0.2864
     75  CB        41.4080   -7.7870   18.6440 C.3   102  ASN102      0.1181
     76  CG        40.9440   -9.1890   18.9490 C.2   102  ASN102      0.2629
     77  OD1       39.7700   -9.4130   19.2600 O.2   102  ASN102     -0.2716
     78  ND2       41.8620  -10.1440   18.8820 N.am  102  ASN102     -0.0877
     79  N         45.3570   -6.0270   17.8500 N.3   106  HIS106     -0.1241
     80  CA        45.3980   -5.7060   16.4220 C.3   106  HIS106      0.1621
     81  C         45.2490   -4.2070   16.2270 C.2   106  HIS106      0.2264
     82  O         44.1560   -3.7060   15.9400 O.2   106  HIS106     -0.2867
     83  CB        44.3110   -6.4640   15.6710 C.3   106  HIS106      0.0745
     84  CG        44.6040   -7.9250   15.5120 C.ar  106  HIS106      0.0817
     85  ND1       44.5810   -8.8110   16.5700 N.ar  106  HIS106     -0.2268
     86  CD2       44.9510   -8.6510   14.4220 C.ar  106  HIS106      0.1154
     87  CE1       44.8900  -10.0190   16.1360 C.ar  106  HIS106      0.1986
     88  NE2       45.1200   -9.9500   14.8360 N.ar  106  HIS106     -0.2212
@<TRIPOS>BOND
     1     1     2    1
     2     2     3    1
     3     2     5    1
     4     3     4    2
     5     5     6    1
     6     6     7    1
     7     7     8    1
     8     8     9    2
     9     9    10    1
    10     9    11    1
    11    12    13    1
    12    16    13    1
    13    16    17    1
    14    13    14    1
    15    18    17   ar
    16    18    20   ar
    17    17    19   ar
    18    20    22   ar
    19    19    21   ar
    20    14    15    2
    21    22    21   ar
    22    22    23    1
    23    24    25    1
    24    25    26    1
    25    26    28   am
    26    26    27    2
    27    28    29    1
    28    86    88   ar
    29    86    84   ar
    30    88    87   ar
    31    32    29    1
    32    29    30    1
    33    55    54    1
    34    84    83    1
    35    84    85   ar
    36    83    80    1
    37    82    81    2
    38    63    62   ar
    39    51    50    2
    40    59    58    2
    41    87    85   ar
    42    81    80    1
    43    64    62   ar
    44    43    41    1
    45    80    79    1
    46    42    41    1
    47    30    31    2
    48    62    61    1
    49    54    53    1
    50    41    40    2
    51    58    57    1
    52    58    65   am
    53    50    49    1
    54    50    56   am
    55    57    56    1
    56    57    60    1
    57    52    49    1
    58    52    53    1
    59    49    48    1
    60    66    65    1
    61    66    67    1
    62    66    69    1
    63    61    60    1
    64    40    39    1
    65    75    76    1
    66    75    72    1
    67    67    71   am
    68    67    68    2
    69    69    70    1
    70    71    72    1
    71    47    46    2
    72    78    76   am
    73    76    77    2
    74    39    38    1
    75    48    46   am
    76    72    73    1
    77    46    45    1
    78    37    38    1
    79    37    34    1
    80    33    34    1
    81    73    74    2
    82    34    35    1
    83    45    44    1
    84    35    36    2
