@<TRIPOS>MOLECULE
tmp/5ao7A01.pdb
 91 86 0 0 0
SMALL
GASTEIGER

@<TRIPOS>ATOM
      1  N         28.9360  -10.1930    8.6800 N.3    55  TYR55      -0.1241
      2  CA        29.6980   -9.1900    9.4090 C.3    55  TYR55       0.1605
      3  C         29.4670   -9.3100   10.9100 C.2    55  TYR55       0.2264
      4  O         30.4050   -9.2180   11.7060 O.2    55  TYR55      -0.2867
      5  CB        29.3170   -7.7960    8.9320 C.3    55  TYR55       0.0534
      6  CG        29.9350   -6.6790    9.7290 C.ar   55  TYR55      -0.0201
      7  CD1       31.2130   -6.2260    9.4460 C.ar   55  TYR55      -0.0009
      8  CD2       29.2310   -6.0590   10.7510 C.ar   55  TYR55      -0.0009
      9  CE1       31.7810   -5.1930   10.1640 C.ar   55  TYR55       0.0417
     10  CE2       29.7840   -5.0270   11.4730 C.ar   55  TYR55       0.0417
     11  CZ        31.0610   -4.5960   11.1770 C.ar   55  TYR55       0.1957
     12  OH        31.6250   -3.5690   11.8960 O.3    55  TYR55      -0.2866
     13  N         35.9250   -4.2640   18.9570 N.3    99  MET99      -0.1230
     14  CA        35.6220   -4.0120   17.5540 C.3    99  MET99       0.1702
     15  C         36.7390   -3.2340   16.8610 C.2    99  MET99       0.2592
     16  O         36.9980   -3.4340   15.6830 O.2    99  MET99      -0.2718
     17  CB        34.3030   -3.2570   17.4180 C.3    99  MET99       0.0401
     18  CG        33.0750   -4.0610   17.7860 C.3    99  MET99       0.0596
     19  SD        32.8160   -5.4460   16.6470 S.3    99  MET99      -0.1393
     20  CE        32.5670   -4.5600   15.1220 C.3    99  MET99       0.0692
     21  N         37.4120   -2.3550   17.6020 N.am  100  GLU100     -0.1979
     22  CA        38.4180   -1.4770   16.9920 C.3   100  GLU100      0.1602
     23  C         39.7900   -2.1060   16.8330 C.2   100  GLU100      0.2287
     24  O         40.4470   -1.9060   15.7960 O.2   100  GLU100     -0.2864
     25  CB        38.5470   -0.1870   17.8170 C.3   100  GLU100      0.0415
     26  CG        37.3680    0.7370   17.7170 C.3   100  GLU100      0.1163
     27  CD        37.0820    1.1990   16.2940 C.2   100  GLU100      0.3649
     28  OE1       38.0150    1.2250   15.4560 O.co2 100  GLU100     -0.2457
     29  OE2       35.9170    1.5480   16.0080 O.co2 100  GLU100     -0.2457
     30  N         45.1780   -6.1610   17.6400 N.3   106  HIS106     -0.1226
     31  CA        45.2630   -5.7660   16.2420 C.3   106  HIS106      0.1752
     32  C         45.0880   -4.2640   16.1030 C.2   106  HIS106      0.2596
     33  O         43.9860   -3.7750   15.8490 O.2   106  HIS106     -0.2718
     34  CB        44.2150   -6.4980   15.4050 C.3   106  HIS106      0.0759
     35  CG        44.5120   -7.9510   15.1990 C.ar  106  HIS106      0.0818
     36  ND1       44.4320   -8.8790   16.2150 N.ar  106  HIS106     -0.2268
     37  CD2       44.8890   -8.6350   14.0930 C.ar  106  HIS106      0.1154
     38  CE1       44.7450  -10.0720   15.7440 C.ar  106  HIS106      0.1986
     39  NE2       45.0260   -9.9520   14.4590 N.ar  106  HIS106     -0.2212
     40  N         46.1830   -3.5360   16.2760 N.am  107  MET107     -0.1965
     41  CA        46.1600   -2.0850   16.1650 C.3   107  MET107      0.1736
     42  C         46.5560   -1.7000   14.7660 C.2   107  MET107      0.2617
     43  O         46.4520   -0.5460   14.3510 O.2   107  MET107     -0.2715
     44  CB        47.0960   -1.4470   17.1860 C.3   107  MET107      0.0427
     45  CG        46.7410   -1.7630   18.6180 C.3   107  MET107      0.0599
     46  SD        47.9030   -0.9480   19.7180 S.3   107  MET107     -0.1393
     47  CE        48.1900   -2.2090   20.9480 C.3   107  MET107      0.0692
     48  N         47.0070   -2.6970   14.0260 N.am  108  GLY108     -0.1955
     49  CA        47.5650   -2.4510   12.7280 C.3   108  GLY108      0.1869
     50  C         49.0600   -2.5410   12.9490 C.2   108  GLY108      0.2309
     51  O         49.5410   -2.6100   14.0830 O.2   108  GLY108     -0.2863
     52  N         46.2910    1.9270   11.7110 N.3   153  SER153     -0.1217
     53  CA        45.8030    1.3830   10.4470 C.3   153  SER153      0.1889
     54  C         46.2620    2.2270    9.2610 C.2   153  SER153      0.2288
     55  O         46.8880    3.2820    9.4390 O.2   153  SER153     -0.2866
     56  CB        44.2680    1.3190   10.4800 C.3   153  SER153      0.2089
     57  OG        43.7400    2.6210   10.2490 O.3   153  SER153     -0.2183
     58  N         44.2220    5.6990   11.7120 N.3   157  ALA157     -0.1245
     59  CA        43.5440    5.4150   12.9840 C.3   157  ALA157      0.1562
     60  C         44.5390    4.7000   13.9140 C.2   157  ALA157      0.2260
     61  O         45.1920    3.7340   13.5150 O.2   157  ALA157     -0.2867
     62  CB        42.2650    4.5740   12.7570 C.3   157  ALA157      0.0290
     63  N         41.9060    3.1870   18.0320 N.3   162  GLN162     -0.1245
     64  CA        41.7910    3.5560   16.6280 C.3   162  GLN162      0.1566
     65  C         41.2320    4.9740   16.4800 C.2   162  GLN162      0.2260
     66  O         40.4340    5.2550   15.5880 O.2   162  GLN162     -0.2867
     67  CB        40.9430    2.5320   15.8730 C.3   162  GLN162      0.0367
     68  CG        41.6090    1.1510   15.8640 C.3   162  GLN162      0.0905
     69  CD        42.7830    1.0730   14.8900 C.2   162  GLN162      0.2608
     70  OE1       42.6000    1.0640   13.6750 O.2   162  GLN162     -0.2717
     71  NE2       43.9910    1.0000   15.4250 N.am  162  GLN162     -0.0878
     72  N         32.1360    5.5760   14.7820 N.3   283  ASN283     -0.1240
     73  CA        32.2620    5.0110   13.4540 C.3   283  ASN283      0.1653
     74  C         30.8960    5.0570   12.7700 C.2   283  ASN283      0.2266
     75  O         29.9790    4.3470   13.1750 O.2   283  ASN283     -0.2867
     76  CB        32.7940    3.5840   13.5360 C.3   283  ASN283      0.1155
     77  CG        33.2710    3.0670   12.2040 C.2   283  ASN283      0.2627
     78  OD1       32.4770    2.6170   11.3790 O.2   283  ASN283     -0.2716
     79  ND2       34.5770    3.1310   11.9810 N.am  283  ASN283     -0.0877
     80  N         28.2210   -1.3400   12.0680 N.3   288  TYR288     -0.1241
     81  CA        29.2070   -1.2520   13.1350 C.3   288  TYR288      0.1605
     82  C         28.5190   -0.9860   14.4660 C.2   288  TYR288      0.2264
     83  O         28.8080   -1.6410   15.4540 O.2   288  TYR288     -0.2867
     84  CB        30.2220   -0.1510   12.8220 C.3   288  TYR288      0.0534
     85  CG        31.1560    0.2150   13.9620 C.ar  288  TYR288     -0.0201
     86  CD1       30.7890    1.1650   14.9060 C.ar  288  TYR288     -0.0009
     87  CD2       32.4090   -0.3850   14.0860 C.ar  288  TYR288     -0.0009
     88  CE1       31.6270    1.5070   15.9440 C.ar  288  TYR288      0.0417
     89  CE2       33.2730   -0.0420   15.1250 C.ar  288  TYR288      0.0417
     90  CZ        32.8680    0.9090   16.0520 C.ar  288  TYR288      0.1957
     91  OH        33.7030    1.2780   17.0830 O.3   288  TYR288     -0.2866
@<TRIPOS>BOND
     1     1     2    1
     2     5     2    1
     3     5     6    1
     4    54    55    2
     5    54    53    1
     6     2     3    1
     7     7     6   ar
     8     7     9   ar
     9     6     8   ar
    10     9    11   ar
    11    57    56    1
    12    53    56    1
    13    53    52    1
    14     8    10   ar
    15     3     4    2
    16    11    10   ar
    17    11    12    1
    18    78    77    2
    19    58    59    1
    20    79    77   am
    21    80    81    1
    22    77    76    1
    23    49    50    1
    24    49    48    1
    25    62    59    1
    26    74    75    2
    27    74    73    1
    28    84    81    1
    29    84    85    1
    30    50    51    2
    31    59    60    1
    32    81    82    1
    33    73    76    1
    34    73    72    1
    35    61    60    2
    36    70    69    2
    37    85    87   ar
    38    85    86   ar
    39    48    42   am
    40    87    89   ar
    41    37    39   ar
    42    37    35   ar
    43    43    42    2
    44    39    38   ar
    45    82    83    2
    46    42    41    1
    47    69    71   am
    48    69    68    1
    49    86    88   ar
    50    20    19    1
    51    89    90   ar
    52    35    34    1
    53    35    36   ar
    54    34    31    1
    55    28    27   ar
    56    66    65    2
    57    16    15    2
    58    38    36   ar
    59    24    23    2
    60    33    32    2
    61    68    67    1
    62    67    64    1
    63    88    90   ar
    64    29    27   ar
    65    90    91    1
    66    32    31    1
    67    32    40   am
    68    41    40    1
    69    41    44    1
    70    31    30    1
    71    27    26    1
    72    65    64    1
    73    64    63    1
    74    19    18    1
    75    23    22    1
    76    15    14    1
    77    15    21   am
    78    22    21    1
    79    22    25    1
    80    44    45    1
    81    17    14    1
    82    17    18    1
    83    14    13    1
    84    26    25    1
    85    45    46    1
    86    46    47    1
