@<TRIPOS>MOLECULE
tmp/5ao7A02.pdb
 104 102 0 0 0
SMALL
GASTEIGER

@<TRIPOS>ATOM
      1  N         37.4120   -2.3550   17.6020 N.3   100  GLU100     -0.1245
      2  CA        38.4180   -1.4770   16.9920 C.3   100  GLU100      0.1567
      3  C         39.7900   -2.1060   16.8330 C.2   100  GLU100      0.2260
      4  O         40.4470   -1.9060   15.7960 O.2   100  GLU100     -0.2867
      5  CB        38.5470   -0.1870   17.8170 C.3   100  GLU100      0.0388
      6  CG        37.3680    0.7370   17.7170 C.3   100  GLU100      0.1160
      7  CD        37.0820    1.1990   16.2940 C.2   100  GLU100      0.3649
      8  OE1       38.0150    1.2250   15.4560 O.co2 100  GLU100     -0.2457
      9  OE2       35.9170    1.5480   16.0080 O.co2 100  GLU100     -0.2457
     10  N         42.3310   15.6880    4.4090 N.3   128  PHE128     -0.1241
     11  CA        42.2700   14.8900    5.6330 C.3   128  PHE128      0.1605
     12  C         43.6740   14.4670    6.0530 C.2   128  PHE128      0.2264
     13  O         44.0520   14.6500    7.2010 O.2   128  PHE128     -0.2867
     14  CB        41.3780   13.6650    5.4220 C.3   128  PHE128      0.0534
     15  CG        41.4490   12.6300    6.5370 C.ar  128  PHE128     -0.0203
     16  CD1       40.5980   12.7060    7.6270 C.ar  128  PHE128     -0.0042
     17  CD2       42.3460   11.5750    6.4640 C.ar  128  PHE128     -0.0042
     18  CE1       40.6490   11.7530    8.6390 C.ar  128  PHE128     -0.0003
     19  CE2       42.4150   10.6130    7.4860 C.ar  128  PHE128     -0.0003
     20  CZ        41.5550   10.7090    8.5630 C.ar  128  PHE128     -0.0000
     21  N         41.9060    3.1870   18.0320 N.3   162  GLN162     -0.1231
     22  CA        41.7910    3.5560   16.6280 C.3   162  GLN162      0.1698
     23  C         41.2320    4.9740   16.4800 C.2   162  GLN162      0.2592
     24  O         40.4340    5.2550   15.5880 O.2   162  GLN162     -0.2718
     25  CB        40.9430    2.5320   15.8730 C.3   162  GLN162      0.0381
     26  CG        41.6090    1.1510   15.8640 C.3   162  GLN162      0.0905
     27  CD        42.7830    1.0730   14.8900 C.2   162  GLN162      0.2608
     28  OE1       42.6000    1.0640   13.6750 O.2   162  GLN162     -0.2717
     29  NE2       43.9910    1.0000   15.4250 N.am  162  GLN162     -0.0878
     30  N         41.6640    5.8490   17.3900 N.am  163  PHE163     -0.1962
     31  CA        41.4910    7.2920   17.2450 C.3   163  PHE163      0.1771
     32  C         42.3090    7.8310   16.0760 C.2   163  PHE163      0.2619
     33  O         43.5030    7.5130   15.9630 O.2   163  PHE163     -0.2715
     34  CB        41.9770    8.0330   18.4850 C.3   163  PHE163      0.0574
     35  CG        41.0230    8.0460   19.6390 C.ar  163  PHE163     -0.0200
     36  CD1       39.7690    7.4660   19.5690 C.ar  163  PHE163     -0.0042
     37  CD2       41.3940    8.7010   20.8060 C.ar  163  PHE163     -0.0042
     38  CE1       38.8890    7.5250   20.6700 C.ar  163  PHE163     -0.0003
     39  CE2       40.5370    8.7650   21.9000 C.ar  163  PHE163     -0.0003
     40  CZ        39.2790    8.1850   21.8290 C.ar  163  PHE163     -0.0000
     41  N         41.7340    8.6940   15.2460 N.am  164  ILE164     -0.1977
     42  CA        42.5750    9.4490   14.3120 C.3   164  ILE164      0.1596
     43  C         43.2410   10.5580   15.1290 C.2   164  ILE164      0.2287
     44  O         42.7610   10.9030   16.2140 O.2   164  ILE164     -0.2864
     45  CB        41.7580   10.0280   13.1430 C.3   164  ILE164      0.0276
     46  CG1       40.7120   11.0000   13.6850 C.3   164  ILE164      0.0022
     47  CG2       41.0880    8.8990   12.3520 C.3   164  ILE164      0.0022
     48  CD1       39.8480   11.6830   12.6200 C.3   164  ILE164      0.0001
     49  N         41.2490   13.3810   16.7780 N.3   167  THR167     -0.1218
     50  CA        40.3970   12.8620   17.8430 C.3   167  THR167      0.1862
     51  C         41.2130   12.5480   19.0990 C.2   167  THR167      0.2287
     52  O         40.7950   12.8290   20.2130 O.2   167  THR167     -0.2866
     53  CB        39.6380   11.6190   17.3660 C.3   167  THR167      0.1770
     54  OG1       38.7100   12.0470   16.3620 O.3   167  THR167     -0.2211
     55  CG2       38.8620   11.0050   18.5380 C.3   167  THR167      0.0375
     56  N         35.4020    9.8830   24.9170 N.3   197  TYR197     -0.1241
     57  CA        34.8070   10.1470   23.6030 C.3   197  TYR197      0.1605
     58  C         33.3310    9.7490   23.5410 C.2   197  TYR197      0.2264
     59  O         32.4990   10.4740   22.9920 O.2   197  TYR197     -0.2867
     60  CB        35.5830    9.3990   22.5190 C.3   197  TYR197      0.0534
     61  CG        35.1990    9.7980   21.1000 C.ar  197  TYR197     -0.0201
     62  CD1       35.4930   11.0600   20.6090 C.ar  197  TYR197     -0.0009
     63  CD2       34.5170    8.9240   20.2770 C.ar  197  TYR197     -0.0009
     64  CE1       35.1340   11.4270   19.3140 C.ar  197  TYR197      0.0417
     65  CE2       34.1640    9.2770   18.9860 C.ar  197  TYR197      0.0417
     66  CZ        34.4790   10.5260   18.5100 C.ar  197  TYR197      0.1957
     67  OH        34.1190   10.8730   17.2280 O.3   197  TYR197     -0.2866
     68  N         29.0580    8.1060   16.2110 N.3   281  LYS281     -0.1231
     69  CA        30.0600    9.1830   16.1950 C.3   281  LYS281      0.1693
     70  C         31.4460    8.5860   16.2200 C.2   281  LYS281      0.2592
     71  O         32.4080    9.2060   15.7620 O.2   281  LYS281     -0.2718
     72  CB        29.8660   10.1420   17.3660 C.3   281  LYS281      0.0285
     73  CG        28.6000   11.0000   17.2580 C.3   281  LYS281      0.0035
     74  CD        28.7390   12.2960   18.0350 C.3   281  LYS281      0.0206
     75  CE        27.5250   13.1950   17.8500 C.3   281  LYS281      0.1093
     76  NZ        26.3180   12.6400   18.5200 N.3   281  LYS281     -0.1314
     77  N         31.5480    7.3700   16.7500 N.am  282  TYR282     -0.1962
     78  CA        32.8170    6.6720   16.8100 C.3   282  TYR282      0.1771
     79  C         33.1510    6.1340   15.4340 C.2   282  TYR282      0.2620
     80  O         34.2820    6.2460   14.9590 O.2   282  TYR282     -0.2715
     81  CB        32.7600    5.5380   17.8550 C.3   282  TYR282      0.0574
     82  CG        34.0930    5.2380   18.5060 C.ar  282  TYR282     -0.0198
     83  CD1       35.0830    4.5410   17.8160 C.ar  282  TYR282     -0.0009
     84  CD2       34.3620    5.6420   19.8060 C.ar  282  TYR282     -0.0009
     85  CE1       36.2920    4.2690   18.4000 C.ar  282  TYR282      0.0417
     86  CE2       35.5820    5.3670   20.3970 C.ar  282  TYR282      0.0417
     87  CZ        36.5380    4.6800   19.6860 C.ar  282  TYR282      0.1957
     88  OH        37.7670    4.3940   20.2640 O.3   282  TYR282     -0.2866
     89  N         32.1360    5.5760   14.7820 N.am  283  ASN283     -0.1958
     90  CA        32.2620    5.0110   13.4540 C.3   283  ASN283      0.1819
     91  C         30.8960    5.0570   12.7700 C.2   283  ASN283      0.2621
     92  O         29.9790    4.3470   13.1750 O.2   283  ASN283     -0.2715
     93  CB        32.7940    3.5840   13.5360 C.3   283  ASN283      0.1195
     94  CG        33.2710    3.0670   12.2040 C.2   283  ASN283      0.2630
     95  OD1       32.4770    2.6170   11.3790 O.2   283  ASN283     -0.2716
     96  ND2       34.5770    3.1310   11.9810 N.am  283  ASN283     -0.0877
     97  N         30.7520    5.9080   11.7560 N.am  284  ASN284     -0.1972
     98  CA        29.4370    6.1910   11.1750 C.3   284  ASN284      0.1688
     99  C         28.9700    5.0990   10.2220 C.2   284  ASN284      0.2292
    100  O         28.9140    5.2980    9.0070 O.2   284  ASN284     -0.2864
    101  CB        29.4600    7.5460   10.4540 C.3   284  ASN284      0.1181
    102  CG        28.0640    8.1160   10.2220 C.2   284  ASN284      0.2629
    103  OD1       27.0990    7.7210   10.8770 O.2   284  ASN284     -0.2716
    104  ND2       27.9550    9.0560    9.2880 N.am  284  ASN284     -0.0877
@<TRIPOS>BOND
     1    10    11    1
     2    14    11    1
     3    14    15    1
     4    11    12    1
     5    12    13    2
     6    17    15   ar
     7    17    19   ar
     8    15    16   ar
     9    19    20   ar
    10    16    18   ar
    11    20    18   ar
    12   100    99    2
    13   104   102   am
    14    99    98    1
    15   102   101    1
    16   102   103    2
    17   101    98    1
    18    98    97    1
    19    95    94    2
    20    97    91   am
    21    96    94   am
    22    94    93    1
    23    47    45    1
    24    48    46    1
    25    91    92    2
    26    91    90    1
    27    45    46    1
    28    45    42    1
    29    90    93    1
    30    90    89    1
    31    28    27    2
    32    42    43    1
    33    42    41    1
    34    89    79   am
    35    27    29   am
    36    27    26    1
    37    80    79    2
    38    43    44    2
    39    41    32   am
    40    79    78    1
    41     8     7   ar
    42    24    23    2
    43    71    70    2
    44     4     3    2
    45    26    25    1
    46    25    22    1
    47    33    32    2
    48     9     7   ar
    49    32    31    1
    50    69    68    1
    51    69    70    1
    52    69    72    1
    53    70    77   am
    54     7     6    1
    55    54    53    1
    56    23    22    1
    57    23    30   am
    58    22    21    1
    59    77    78    1
    60    49    50    1
    61    78    81    1
    62     3     2    1
    63     2     1    1
    64     2     5    1
    65    67    66    1
    66    31    30    1
    67    31    34    1
    68    73    72    1
    69    73    74    1
    70    53    50    1
    71    53    55    1
    72     6     5    1
    73    83    85   ar
    74    83    82   ar
    75    50    51    1
    76    75    74    1
    77    75    76    1
    78    81    82    1
    79    85    87   ar
    80    34    35    1
    81    82    84   ar
    82    66    65   ar
    83    66    64   ar
    84    65    63   ar
    85    51    52    2
    86    64    62   ar
    87    36    35   ar
    88    36    38   ar
    89    35    37   ar
    90    87    88    1
    91    87    86   ar
    92    84    86   ar
    93    63    61   ar
    94    62    61   ar
    95    38    40   ar
    96    37    39   ar
    97    61    60    1
    98    40    39   ar
    99    60    57    1
   100    59    58    2
   101    58    57    1
   102    57    56    1
