@<TRIPOS>MOLECULE
tmp/5ao7A00.pdb
 77 74 0 0 0
SMALL
GASTEIGER

@<TRIPOS>ATOM
      1  N         28.9360  -10.1930    8.6800 N.3    55  TYR55      -0.1241
      2  CA        29.6980   -9.1900    9.4090 C.3    55  TYR55       0.1605
      3  C         29.4670   -9.3100   10.9100 C.2    55  TYR55       0.2264
      4  O         30.4050   -9.2180   11.7060 O.2    55  TYR55      -0.2867
      5  CB        29.3170   -7.7960    8.9320 C.3    55  TYR55       0.0534
      6  CG        29.9350   -6.6790    9.7290 C.ar   55  TYR55      -0.0201
      7  CD1       31.2130   -6.2260    9.4460 C.ar   55  TYR55      -0.0009
      8  CD2       29.2310   -6.0590   10.7510 C.ar   55  TYR55      -0.0009
      9  CE1       31.7810   -5.1930   10.1640 C.ar   55  TYR55       0.0417
     10  CE2       29.7840   -5.0270   11.4730 C.ar   55  TYR55       0.0417
     11  CZ        31.0610   -4.5960   11.1770 C.ar   55  TYR55       0.1957
     12  OH        31.6250   -3.5690   11.8960 O.3    55  TYR55      -0.2866
     13  N         31.2040  -12.4590   12.4330 N.3    58  GLY58      -0.1210
     14  CA        32.5950  -12.2320   12.7710 C.3    58  GLY58       0.1956
     15  C         32.7250  -11.3740   14.0150 C.2    58  GLY58       0.2611
     16  O         33.5460  -11.6550   14.8910 O.2    58  GLY58      -0.2717
     17  N         31.9070  -10.3280   14.0980 N.am   59  ALA59      -0.1979
     18  CA        31.9410   -9.4160   15.2370 C.3    59  ALA59       0.1597
     19  C         31.4770  -10.0830   16.5320 C.2    59  ALA59       0.2287
     20  O         32.0310   -9.8400   17.6040 O.2    59  ALA59      -0.2864
     21  CB        31.0930   -8.1960   14.9450 C.3    59  ALA59       0.0319
     22  N         35.4430  -13.7070   20.3780 N.3    64  ARG64      -0.1245
     23  CA        35.5890  -12.2960   20.7190 C.3    64  ARG64       0.1563
     24  C         34.7480  -11.9590   21.9540 C.2    64  ARG64       0.2260
     25  O         35.1300  -11.1200   22.7640 O.2    64  ARG64      -0.2867
     26  CB        35.2100  -11.3820   19.5320 C.3    64  ARG64       0.0307
     27  CG        35.3490   -9.8880   19.8690 C.3    64  ARG64       0.0489
     28  CD        35.3260   -8.9670   18.6500 C.3    64  ARG64       0.2205
     29  NE        36.5250   -9.1420   17.8270 N.pl3  64  ARG64      -0.0865
     30  CZ        36.5500   -9.8240   16.6890 C.cat  64  ARG64       0.5346
     31  NH1       35.4390  -10.3840   16.2320 N.pl3  64  ARG64       0.1354
     32  NH2       37.6800   -9.9490   16.0090 N.pl3  64  ARG64       0.1354
     33  N         37.0050   -4.1040   21.5830 N.3    98  GLY98      -0.1210
     34  CA        37.0060   -5.3540   20.8250 C.3    98  GLY98       0.1956
     35  C         36.8320   -5.1570   19.3240 C.2    98  GLY98       0.2612
     36  O         37.5290   -5.7730   18.5110 O.2    98  GLY98      -0.2717
     37  N         35.9250   -4.2640   18.9570 N.am   99  MET99      -0.1965
     38  CA        35.6220   -4.0120   17.5540 C.3    99  MET99       0.1736
     39  C         36.7390   -3.2340   16.8610 C.2    99  MET99       0.2616
     40  O         36.9980   -3.4340   15.6830 O.2    99  MET99      -0.2715
     41  CB        34.3030   -3.2570   17.4180 C.3    99  MET99       0.0427
     42  CG        33.0750   -4.0610   17.7860 C.3    99  MET99       0.0599
     43  SD        32.8160   -5.4460   16.6470 S.3    99  MET99      -0.1393
     44  CE        32.5670   -4.5600   15.1220 C.3    99  MET99       0.0692
     45  N         37.4120   -2.3550   17.6020 N.am  100  GLU100     -0.1963
     46  CA        38.4180   -1.4770   16.9920 C.3   100  GLU100      0.1733
     47  C         39.7900   -2.1060   16.8330 C.2   100  GLU100      0.2617
     48  O         40.4470   -1.9060   15.7960 O.2   100  GLU100     -0.2715
     49  CB        38.5470   -0.1870   17.8170 C.3   100  GLU100      0.0429
     50  CG        37.3680    0.7370   17.7170 C.3   100  GLU100      0.1163
     51  CD        37.0820    1.1990   16.2940 C.2   100  GLU100      0.3649
     52  OE1       38.0150    1.2250   15.4560 O.co2 100  GLU100     -0.2457
     53  OE2       35.9170    1.5480   16.0080 O.co2 100  GLU100     -0.2457
     54  N         40.2440   -2.8430   17.8500 N.am  101  SER101     -0.1936
     55  CA        41.5870   -3.4190   17.8130 C.3   101  SER101      0.2055
     56  C         41.6420   -4.8230   18.3980 C.2   101  SER101      0.2643
     57  O         42.7090   -5.3120   18.7370 O.2   101  SER101     -0.2714
     58  CB        42.5810   -2.5250   18.5710 C.3   101  SER101      0.2130
     59  OG        42.2830   -2.4830   19.9600 O.3   101  SER101     -0.2179
     60  N         40.4890   -5.4670   18.5420 N.am  102  ASN102     -0.1971
     61  CA        40.4720   -6.7650   19.1910 C.3   102  ASN102      0.1688
     62  C         41.1060   -6.7020   20.5880 C.2   102  ASN102      0.2292
     63  O         41.9300   -7.5440   20.9480 O.2   102  ASN102     -0.2864
     64  CB        41.2030   -7.7870   18.3180 C.3   102  ASN102      0.1181
     65  CG        40.7000   -9.1970   18.5300 C.2   102  ASN102      0.2629
     66  OD1       39.5420   -9.4050   18.9010 O.2   102  ASN102     -0.2716
     67  ND2       41.5730  -10.1790   18.3020 N.am  102  ASN102     -0.0877
     68  N         45.1780   -6.1610   17.6400 N.3   106  HIS106     -0.1241
     69  CA        45.2630   -5.7660   16.2420 C.3   106  HIS106      0.1621
     70  C         45.0880   -4.2640   16.1030 C.2   106  HIS106      0.2264
     71  O         43.9860   -3.7750   15.8490 O.2   106  HIS106     -0.2867
     72  CB        44.2150   -6.4980   15.4050 C.3   106  HIS106      0.0745
     73  CG        44.5120   -7.9510   15.1990 C.ar  106  HIS106      0.0817
     74  ND1       44.4320   -8.8790   16.2150 N.ar  106  HIS106     -0.2268
     75  CD2       44.8890   -8.6350   14.0930 C.ar  106  HIS106      0.1154
     76  CE1       44.7450  -10.0720   15.7440 C.ar  106  HIS106      0.1986
     77  NE2       45.0260   -9.9520   14.4590 N.ar  106  HIS106     -0.2212
@<TRIPOS>BOND
     1     1     2    1
     2     5     2    1
     3     5     6    1
     4     2     3    1
     5     7     6   ar
     6     7     9   ar
     7     6     8   ar
     8     9    11   ar
     9     8    10   ar
    10     3     4    2
    11    11    10   ar
    12    11    12    1
    13    13    14    1
    14    14    15    1
    15    15    17   am
    16    15    16    2
    17    75    77   ar
    18    75    73   ar
    19    17    18    1
    20    77    76   ar
    21    21    18    1
    22    44    43    1
    23    73    72    1
    24    73    74   ar
    25    18    19    1
    26    72    69    1
    27    52    51   ar
    28    40    39    2
    29    76    74   ar
    30    48    47    2
    31    71    70    2
    32    53    51   ar
    33    32    30    1
    34    70    69    1
    35    31    30    1
    36    69    68    1
    37    51    50    1
    38    19    20    2
    39    43    42    1
    40    30    29    2
    41    47    46    1
    42    47    54   am
    43    39    38    1
    44    39    45   am
    45    46    45    1
    46    46    49    1
    47    41    38    1
    48    41    42    1
    49    38    37    1
    50    50    49    1
    51    55    54    1
    52    55    56    1
    53    55    58    1
    54    29    28    1
    55    67    65   am
    56    64    65    1
    57    64    61    1
    58    56    60   am
    59    56    57    2
    60    36    35    2
    61    65    66    2
    62    60    61    1
    63    58    59    1
    64    28    27    1
    65    37    35   am
    66    61    62    1
    67    35    34    1
    68    26    27    1
    69    26    23    1
    70    22    23    1
    71    62    63    2
    72    23    24    1
    73    34    33    1
    74    24    25    2
