@<TRIPOS>MOLECULE
tmp/5ao8A01.pdb
 138 131 0 0 0
SMALL
GASTEIGER

@<TRIPOS>ATOM
      1  N         27.0170  -11.0530    7.8480 N.3    54  LYS54      -0.1231
      2  CA        28.3520  -11.6610    7.9050 C.3    54  LYS54       0.1693
      3  C         29.2050  -10.8470    8.8670 C.2    54  LYS54       0.2592
      4  O         29.8380  -11.3770    9.7760 O.2    54  LYS54      -0.2718
      5  CB        29.0140  -11.7280    6.5110 C.3    54  LYS54       0.0285
      6  CG        30.4410  -12.3600    6.4990 C.3    54  LYS54       0.0035
      7  CD        30.4380  -13.8240    6.9640 C.3    54  LYS54       0.0206
      8  CE        31.8360  -14.3270    7.2750 C.3    54  LYS54       0.1093
      9  NZ        32.2520  -13.9840    8.6660 N.3    54  LYS54      -0.1314
     10  N         29.2140   -9.5480    8.6280 N.am   55  TYR55      -0.1976
     11  CA        29.8600   -8.5810    9.4870 C.3    55  TYR55       0.1639
     12  C         29.5540   -8.7540   10.9720 C.2    55  TYR55       0.2290
     13  O         30.4260   -8.5230   11.8090 O.2    55  TYR55      -0.2864
     14  CB        29.4340   -7.1950    9.0610 C.3    55  TYR55       0.0560
     15  CG        30.0560   -6.1190    9.8760 C.ar   55  TYR55      -0.0198
     16  CD1       31.3320   -5.6750    9.5970 C.ar   55  TYR55      -0.0009
     17  CD2       29.3590   -5.5180   10.8970 C.ar   55  TYR55      -0.0009
     18  CE1       31.9010   -4.6760   10.3210 C.ar   55  TYR55       0.0417
     19  CE2       29.9190   -4.5240   11.6270 C.ar   55  TYR55       0.0417
     20  CZ        31.1960   -4.1020   11.3320 C.ar   55  TYR55       0.1957
     21  OH        31.7900   -3.1100   12.0520 O.3    55  TYR55      -0.2866
     22  N         31.3330  -11.8340   12.4970 N.3    58  GLY58      -0.1210
     23  CA        32.7000  -11.5100   12.8260 C.3    58  GLY58       0.1956
     24  C         32.7400  -10.7870   14.1410 C.2    58  GLY58       0.2611
     25  O         33.4180  -11.1890   15.0710 O.2    58  GLY58      -0.2717
     26  N         31.9770   -9.7210   14.2210 N.am   59  ALA59      -0.1979
     27  CA        31.9240   -8.8900   15.3990 C.3    59  ALA59       0.1597
     28  C         31.5830   -9.6430   16.6530 C.2    59  ALA59       0.2287
     29  O         32.1110   -9.3650   17.7100 O.2    59  ALA59      -0.2864
     30  CB        30.9060   -7.8020   15.1900 C.3    59  ALA59       0.0319
     31  N         35.4860  -13.4250   20.6140 N.3    64  ARG64      -0.1245
     32  CA        35.6190  -12.0150   20.9800 C.3    64  ARG64       0.1563
     33  C         34.7450  -11.6780   22.1760 C.2    64  ARG64       0.2260
     34  O         35.1510  -10.8920   23.0300 O.2    64  ARG64      -0.2867
     35  CB        35.2760  -11.1050   19.8120 C.3    64  ARG64       0.0307
     36  CG        35.4050   -9.6480   20.1570 C.3    64  ARG64       0.0489
     37  CD        35.1490   -8.8520   18.9240 C.3    64  ARG64       0.2205
     38  NE        36.3420   -8.7820   18.0980 N.pl3  64  ARG64      -0.0865
     39  CZ        36.3330   -8.7410   16.7790 C.cat  64  ARG64       0.5346
     40  NH1       35.1930   -8.7940   16.1250 N.pl3  64  ARG64       0.1354
     41  NH2       37.4730   -8.6510   16.1200 N.pl3  64  ARG64       0.1354
     42  N         36.9540   -3.9520   21.7480 N.3    98  GLY98      -0.1210
     43  CA        36.9540   -5.1920   20.9820 C.3    98  GLY98       0.1956
     44  C         36.7740   -5.0010   19.4990 C.2    98  GLY98       0.2612
     45  O         37.4770   -5.6200   18.6960 O.2    98  GLY98      -0.2717
     46  N         35.8060   -4.1650   19.1280 N.am   99  MET99      -0.1965
     47  CA        35.5400   -3.8430   17.7250 C.3    99  MET99       0.1736
     48  C         36.7120   -3.1410   17.0130 C.2    99  MET99       0.2616
     49  O         37.0310   -3.4030   15.8430 O.2    99  MET99      -0.2715
     50  CB        34.2990   -2.9530   17.6320 C.3    99  MET99       0.0427
     51  CG        32.9700   -3.6640   17.9440 C.3    99  MET99       0.0599
     52  SD        32.7070   -5.0880   16.9190 S.3    99  MET99      -0.1393
     53  CE        32.5690   -4.3070   15.3270 C.3    99  MET99       0.0692
     54  N         37.3360   -2.2110   17.7190 N.am  100  GLU100     -0.1963
     55  CA        38.3870   -1.3600   17.1220 C.3   100  GLU100      0.1733
     56  C         39.7390   -2.0550   16.9650 C.2   100  GLU100      0.2617
     57  O         40.3680   -1.9680   15.9330 O.2   100  GLU100     -0.2715
     58  CB        38.5580   -0.1050   17.9580 C.3   100  GLU100      0.0429
     59  CG        37.3860    0.8520   17.8450 C.3   100  GLU100      0.1163
     60  CD        37.0800    1.3290   16.3930 C.2   100  GLU100      0.3649
     61  OE1       37.9880    1.3570   15.5210 O.co2 100  GLU100     -0.2457
     62  OE2       35.9120    1.6760   16.1200 O.co2 100  GLU100     -0.2457
     63  N         40.1670   -2.7820   17.9780 N.am  101  SER101     -0.1936
     64  CA        41.4970   -3.3540   17.9530 C.3   101  SER101      0.2055
     65  C         41.5490   -4.7550   18.5350 C.2   101  SER101      0.2643
     66  O         42.6180   -5.2110   18.8790 O.2   101  SER101     -0.2714
     67  CB        42.4610   -2.4280   18.7270 C.3   101  SER101      0.2130
     68  OG        42.1660   -2.3750   20.1170 O.3   101  SER101     -0.2179
     69  N         40.3990   -5.4320   18.6610 N.am  102  ASN102     -0.1971
     70  CA        40.3080   -6.6830   19.4340 C.3   102  ASN102      0.1688
     71  C         41.0050   -6.6030   20.8190 C.2   102  ASN102      0.2292
     72  O         41.7990   -7.4580   21.2030 O.2   102  ASN102     -0.2864
     73  CB        40.8740   -7.8530   18.6240 C.3   102  ASN102      0.1181
     74  CG        40.4310   -9.1810   19.1610 C.2   102  ASN102      0.2629
     75  OD1       39.3780   -9.6840   18.7910 O.2   102  ASN102     -0.2716
     76  ND2       41.2180   -9.7540   20.0710 N.am  102  ASN102     -0.0877
     77  N         44.9420   -6.3640   17.7890 N.3   106  HIS106     -0.1226
     78  CA        45.0850   -6.0210   16.3730 C.3   106  HIS106      0.1752
     79  C         44.9490   -4.4930   16.2440 C.2   106  HIS106      0.2596
     80  O         43.9060   -3.9850   15.8280 O.2   106  HIS106     -0.2718
     81  CB        44.0280   -6.7120   15.4590 C.3   106  HIS106      0.0759
     82  CG        44.1730   -8.2000   15.3320 C.ar  106  HIS106      0.0818
     83  ND1       44.0520   -9.0530   16.4050 N.ar  106  HIS106     -0.2268
     84  CD2       44.3840   -8.9830   14.2470 C.ar  106  HIS106      0.1154
     85  CE1       44.1930  -10.3020   15.9900 C.ar  106  HIS106      0.1986
     86  NE2       44.4060  -10.2840   14.6900 N.ar  106  HIS106     -0.2212
     87  N         45.9980   -3.7760   16.6010 N.am  107  MET107     -0.1965
     88  CA        46.0490   -2.3370   16.4890 C.3   107  MET107      0.1736
     89  C         46.4250   -1.8600   15.1150 C.2   107  MET107      0.2617
     90  O         46.2960   -0.6770   14.7740 O.2   107  MET107     -0.2715
     91  CB        47.0710   -1.7770   17.4360 C.3   107  MET107      0.0427
     92  CG        46.5460   -1.5630   18.7650 C.3   107  MET107      0.0599
     93  SD        47.8270   -0.9180   19.7910 S.3   107  MET107     -0.1393
     94  CE        48.5940   -2.4410   20.2750 C.3   107  MET107      0.0692
     95  N         46.9630   -2.7680   14.3420 N.am  108  GLY108     -0.1955
     96  CA        47.3720   -2.4340   13.0100 C.3   108  GLY108      0.1869
     97  C         48.8680   -2.4150   13.0230 C.2   108  GLY108      0.2309
     98  O         49.5010   -2.4710   14.0740 O.2   108  GLY108     -0.2863
     99  N         46.2610    1.9030   11.6530 N.3   153  SER153     -0.1217
    100  CA        45.7340    1.2760   10.4530 C.3   153  SER153      0.1889
    101  C         46.1800    2.0640    9.2320 C.2   153  SER153      0.2288
    102  O         46.6600    3.1720    9.3790 O.2   153  SER153     -0.2866
    103  CB        44.2060    1.2780   10.5150 C.3   153  SER153      0.2089
    104  OG        43.7640    2.6230   10.3310 O.3   153  SER153     -0.2183
    105  N         44.1670    5.6910   11.7090 N.3   157  ALA157     -0.1245
    106  CA        43.4550    5.4260   12.9800 C.3   157  ALA157      0.1562
    107  C         44.4170    4.6860   13.9330 C.2   157  ALA157      0.2260
    108  O         44.9920    3.6680   13.5570 O.2   157  ALA157     -0.2867
    109  CB        42.1970    4.6170   12.7300 C.3   157  ALA157      0.0290
    110  N         41.7930    3.2550   18.0160 N.3   162  GLN162     -0.1245
    111  CA        41.6720    3.6660   16.6160 C.3   162  GLN162      0.1566
    112  C         41.1490    5.0970   16.5160 C.2   162  GLN162      0.2260
    113  O         40.3260    5.4220   15.6480 O.2   162  GLN162     -0.2867
    114  CB        40.8130    2.6750   15.8410 C.3   162  GLN162      0.0367
    115  CG        41.3960    1.2770   15.8070 C.3   162  GLN162      0.0905
    116  CD        42.6870    1.1780   14.9340 C.2   162  GLN162      0.2608
    117  OE1       42.6300    1.2220   13.7040 O.2   162  GLN162     -0.2717
    118  NE2       43.8340    1.0460   15.5800 N.am  162  GLN162     -0.0878
    119  N         32.0510    5.9470   14.9990 N.3   283  ASN283     -0.1240
    120  CA        32.2550    5.3030   13.7190 C.3   283  ASN283      0.1653
    121  C         30.9010    5.2850   12.9710 C.2   283  ASN283      0.2266
    122  O         29.9170    4.6240   13.4130 O.2   283  ASN283     -0.2867
    123  CB        32.7840    3.9020   13.9200 C.3   283  ASN283      0.1155
    124  CG        33.5600    3.4030   12.7370 C.2   283  ASN283      0.2627
    125  OD1       33.0000    3.1520   11.6770 O.2   283  ASN283     -0.2716
    126  ND2       34.8670    3.2340   12.9200 N.am  283  ASN283     -0.0877
    127  N         28.2190   -1.1130   12.2490 N.3   288  TYR288     -0.1241
    128  CA        29.1630   -1.0230   13.3560 C.3   288  TYR288      0.1605
    129  C         28.4620   -0.7020   14.6440 C.2   288  TYR288      0.2264
    130  O         28.7510   -1.3250   15.6250 O.2   288  TYR288     -0.2867
    131  CB        30.2380    0.0250   13.0710 C.3   288  TYR288      0.0534
    132  CG        31.1580    0.3810   14.2130 C.ar  288  TYR288     -0.0201
    133  CD1       30.8130    1.3690   15.1250 C.ar  288  TYR288     -0.0009
    134  CD2       32.3740   -0.2470   14.3640 C.ar  288  TYR288     -0.0009
    135  CE1       31.6670    1.7180   16.1750 C.ar  288  TYR288      0.0417
    136  CE2       33.2450    0.0940   15.4090 C.ar  288  TYR288      0.0417
    137  CZ        32.8800    1.0930   16.2980 C.ar  288  TYR288      0.1957
    138  OH        33.7220    1.4590   17.3270 O.3   288  TYR288     -0.2866
@<TRIPOS>BOND
     1     6     5    1
     2     6     7    1
     3     5     2    1
     4     7     8    1
     5     8     9    1
     6     1     2    1
     7     2     3    1
     8    10     3   am
     9    10    11    1
    10     3     4    2
    11    14    11    1
    12    14    15    1
    13   101   102    2
    14   101   100    1
    15    11    12    1
    16    16    15   ar
    17    16    18   ar
    18    15    17   ar
    19    18    20   ar
    20   104   103    1
    21   100   103    1
    22   100    99    1
    23    17    19   ar
    24    12    13    2
    25    20    19   ar
    26    20    21    1
    27   125   124    2
    28   105   106    1
    29   127   128    1
    30    22    23    1
    31   109   106    1
    32   124   126   am
    33   124   123    1
    34    23    24    1
    35   121   122    2
    36   121   120    1
    37   106   107    1
    38    96    97    1
    39    96    95    1
    40    97    98    2
    41   131   128    1
    42   131   132    1
    43   128   129    1
    44   108   107    2
    45   117   116    2
    46   120   123    1
    47   120   119    1
    48    24    26   am
    49    24    25    2
    50   132   134   ar
    51   132   133   ar
    52    26    27    1
    53    84    86   ar
    54    84    82   ar
    55    95    89   am
    56   134   136   ar
    57   129   130    2
    58    86    85   ar
    59    90    89    2
    60   116   118   am
    61   116   115    1
    62    89    88    1
    63   133   135   ar
    64    30    27    1
    65    53    52    1
    66    82    81    1
    67    82    83   ar
    68    27    28    1
    69   136   137   ar
    70    81    78    1
    71    61    60   ar
    72   113   112    2
    73   115   114    1
    74    80    79    2
    75   114   111    1
    76    49    48    2
    77    57    56    2
    78    85    83   ar
    79    41    39    1
    80    62    60   ar
    81    40    39    1
    82   135   137   ar
    83    79    78    1
    84    79    87   am
    85   137   138    1
    86    78    77    1
    87    60    59    1
    88    88    87    1
    89    88    91    1
    90   112   111    1
    91   111   110    1
    92    28    29    2
    93    39    38    2
    94    52    51    1
    95    56    55    1
    96    56    63   am
    97    48    54   am
    98    48    47    1
    99    55    54    1
   100    55    58    1
   101    91    92    1
   102    50    47    1
   103    50    51    1
   104    47    46    1
   105    59    58    1
   106    64    63    1
   107    64    65    1
   108    64    67    1
   109    38    37    1
   110    65    69   am
   111    65    66    2
   112    73    74    1
   113    73    70    1
   114    69    70    1
   115    45    44    2
   116    67    68    1
   117    92    93    1
   118    75    74    2
   119    37    36    1
   120    46    44   am
   121    74    76   am
   122    70    71    1
   123    44    43    1
   124    93    94    1
   125    35    36    1
   126    35    32    1
   127    31    32    1
   128    71    72    2
   129    32    33    1
   130    43    42    1
   131    33    34    2
