@<TRIPOS>MOLECULE
tmp/5ao9A05.pdb
 96 96 0 0 0
SMALL
GASTEIGER

@<TRIPOS>ATOM
      1  N         -4.9170   60.8850   12.2300 N.3    19  VAL19      -0.1231
      2  CA        -4.1130   60.9420   11.0130 C.3    19  VAL19       0.1692
      3  C         -2.6720   60.6450   11.4040 C.2    19  VAL19       0.2592
      4  O         -2.0780   61.3660   12.2220 O.2    19  VAL19      -0.2718
      5  CB        -4.2290   62.3200   10.3190 C.3    19  VAL19       0.0266
      6  CG1       -3.2700   62.4270    9.1300 C.3    19  VAL19       0.0020
      7  CG2       -5.6690   62.5500    9.8750 C.3    19  VAL19       0.0020
      8  N         -2.0900   59.5750   10.8440 N.am   20  TYR20      -0.1962
      9  CA        -0.7340   59.1850   11.1660 C.3    20  TYR20       0.1771
     10  C          0.2660   59.7160   10.1560 C.2    20  TYR20       0.2619
     11  O          1.4460   59.7530   10.4310 O.2    20  TYR20      -0.2715
     12  CB        -0.6010   57.6510   11.3310 C.3    20  TYR20       0.0574
     13  CG        -0.5720   56.8440   10.0660 C.ar   20  TYR20      -0.0198
     14  CD1        0.6210   56.6050    9.3860 C.ar   20  TYR20      -0.0009
     15  CD2       -1.7300   56.2850    9.5530 C.ar   20  TYR20      -0.0009
     16  CE1        0.6490   55.8660    8.2190 C.ar   20  TYR20       0.0417
     17  CE2       -1.7210   55.5270    8.3990 C.ar   20  TYR20       0.0417
     18  CZ        -0.5230   55.3160    7.7230 C.ar   20  TYR20       0.1957
     19  OH        -0.5030   54.5510    6.5890 O.3    20  TYR20      -0.2866
     20  N         -0.2010   60.1280    8.9870 N.am   21  LYS21      -0.1963
     21  CA         0.6880   60.5800    7.9150 C.3    21  LYS21       0.1728
     22  C         -0.0600   61.4350    6.9190 C.2    21  LYS21       0.2616
     23  O         -1.1660   61.1040    6.4940 O.2    21  LYS21      -0.2715
     24  CB         1.2890   59.3800    7.1940 C.3    21  LYS21       0.0311
     25  CG         2.3170   59.6680    6.1010 C.3    21  LYS21       0.0038
     26  CD         2.9750   58.3600    5.6660 C.3    21  LYS21       0.0206
     27  CE         4.1320   58.5480    4.7020 C.3    21  LYS21       0.1093
     28  NZ         4.8230   57.2900    4.3240 N.3    21  LYS21      -0.1314
     29  N          0.5880   62.5550    6.5590 N.am   22  LYS22      -0.1977
     30  CA         0.1230   63.4420    5.5070 C.3    22  LYS22       0.1596
     31  C          1.1250   63.3350    4.3800 C.2    22  LYS22       0.2287
     32  O          2.3270   63.5970    4.5810 O.2    22  LYS22      -0.2864
     33  CB         0.0840   64.8820    6.0020 C.3    22  LYS22       0.0298
     34  CG        -0.9440   65.1350    7.0860 C.3    22  LYS22       0.0038
     35  CD        -0.9540   66.5940    7.5270 C.3    22  LYS22       0.0206
     36  CE        -2.3750   67.1200    7.6870 C.3    22  LYS22       0.1093
     37  NZ        -3.0450   67.3990    6.3850 N.3    22  LYS22      -0.1314
     38  N          4.4750   56.0030   14.0790 N.3   105  TRP105     -0.1241
     39  CA         3.5210   56.9160   14.6960 C.3   105  TRP105      0.1605
     40  C          2.9570   56.3510   15.9820 C.2   105  TRP105      0.2264
     41  O          2.8870   57.0350   17.0030 O.2   105  TRP105     -0.2867
     42  CB         2.4020   57.2860   13.7150 C.3   105  TRP105      0.0550
     43  CG         1.5460   58.3940   14.2000 C.ar  105  TRP105      0.0003
     44  CD1        1.7220   59.7330   13.9400 C.ar  105  TRP105      0.0946
     45  CD2        0.4020   58.2940   15.0570 C.ar  105  TRP105      0.0152
     46  NE1        0.7320   60.4580   14.5530 N.ar  105  TRP105     -0.2442
     47  CE2       -0.0610   59.6180   15.2780 C.ar  105  TRP105      0.0810
     48  CE3       -0.2510   57.2280   15.7190 C.ar  105  TRP105      0.0012
     49  CZ2       -1.1620   59.8890   16.0920 C.ar  105  TRP105      0.0191
     50  CZ3       -1.3460   57.5050   16.5140 C.ar  105  TRP105      0.0001
     51  CH2       -1.7910   58.8330   16.6890 C.ar  105  TRP105      0.0015
     52  N          5.7590   56.5720   18.5160 N.3   108  GLN108     -0.1231
     53  CA         5.9490   57.9750   18.8900 C.3   108  GLN108      0.1698
     54  C          4.8620   58.4480   19.8430 C.2   108  GLN108      0.2592
     55  O          5.1310   59.2160   20.8060 O.2   108  GLN108     -0.2718
     56  CB         5.9140   58.8300   17.6380 C.3   108  GLN108      0.0381
     57  CG         6.0400   60.3280   17.8900 C.3   108  GLN108      0.0905
     58  CD         5.9840   61.1240   16.6130 C.2   108  GLN108      0.2608
     59  OE1        5.3740   60.7100   15.6130 O.2   108  GLN108     -0.2717
     60  NE2        6.6220   62.2790   16.6310 N.am  108  GLN108     -0.0878
     61  N          3.6330   58.0080   19.5920 N.am  109  HIS109     -0.1976
     62  CA         2.4470   58.4010   20.3600 C.3   109  HIS109      0.1656
     63  C          1.9880   57.3760   21.4070 C.2   109  HIS109      0.2291
     64  O          0.8360   57.3940   21.8630 O.2   109  HIS109     -0.2864
     65  CB         1.3270   58.7900   19.3820 C.3   109  HIS109      0.0771
     66  CG         1.6600   60.0130   18.5920 C.ar  109  HIS109      0.0820
     67  ND1        1.3970   61.2900   19.0600 N.ar  109  HIS109     -0.2267
     68  CD2        2.2750   60.1700   17.3950 C.ar  109  HIS109      0.1154
     69  CE1        1.8050   62.1720   18.1620 C.ar  109  HIS109      0.1986
     70  NE2        2.3530   61.5250   17.1520 N.ar  109  HIS109     -0.2212
     71  N          9.0800   62.6030    6.3360 N.3   145  GLU145     -0.1231
     72  CA         9.0970   63.7430    7.2600 C.3   145  GLU145      0.1699
     73  C          8.4840   63.2720    8.5860 C.2   145  GLU145      0.2592
     74  O          7.2930   63.4710    8.8560 O.2   145  GLU145     -0.2718
     75  CB         8.3560   64.9650    6.6790 C.3   145  GLU145      0.0402
     76  CG         8.5090   65.1560    5.1720 C.3   145  GLU145      0.1161
     77  CD         7.3700   64.5240    4.3860 C.2   145  GLU145      0.3649
     78  OE1        6.2780   65.1300    4.3360 O.co2 145  GLU145     -0.2457
     79  OE2        7.5660   63.4160    3.8330 O.co2 145  GLU145     -0.2457
     80  N          9.3160   62.6010    9.3820 N.am  146  GLU146     -0.1966
     81  CA         8.8890   61.9470   10.6280 C.3   146  GLU146      0.1733
     82  C         10.1000   61.6360   11.5050 C.2   146  GLU146      0.2616
     83  O         11.2470   61.7470   11.0570 O.2   146  GLU146     -0.2715
     84  CB         8.0780   60.6720   10.3370 C.3   146  GLU146      0.0429
     85  CG         8.4300   59.9750    9.0320 C.3   146  GLU146      0.1163
     86  CD         7.4630   58.8680    8.6810 C.2   146  GLU146      0.3649
     87  OE1        7.6750   57.7680    9.1600 O.co2 146  GLU146     -0.2457
     88  OE2        6.5000   59.0910    7.9270 O.co2 146  GLU146     -0.2457
     89  N          9.8390   61.2530   12.7520 N.am  147  ASP147     -0.1971
     90  CA        10.9060   61.0840   13.7380 C.3   147  ASP147      0.1709
     91  C         11.7050   59.8020   13.4870 C.2   147  ASP147      0.2293
     92  O         11.2960   58.7170   13.8970 O.2   147  ASP147     -0.2864
     93  CB        10.3240   61.0920   15.1580 C.3   147  ASP147      0.1436
     94  CG        11.3950   61.1840   16.2370 C.2   147  ASP147      0.3671
     95  OD1       12.5850   61.3960   15.9080 O.co2 147  ASP147     -0.2456
     96  OD2       11.0370   61.0580   17.4260 O.co2 147  ASP147     -0.2456
@<TRIPOS>BOND
     1    79    77   ar
     2    28    27    1
     3    78    77   ar
     4    31    32    2
     5    31    30    1
     6    77    76    1
     7    27    26    1
     8    76    75    1
     9    30    33    1
    10    30    29    1
    11    26    25    1
    12    33    34    1
    13    25    24    1
    14    71    72    1
    15    37    36    1
    16    23    22    2
    17    29    22   am
    18    19    18    1
    19    75    72    1
    20    22    21    1
    21    34    35    1
    22    24    21    1
    23    72    73    1
    24    35    36    1
    25    18    16   ar
    26    18    17   ar
    27    21    20    1
    28    88    86   ar
    29    16    14   ar
    30    17    15   ar
    31    73    74    2
    32    73    80   am
    33    86    85    1
    34    86    87   ar
    35    20    10   am
    36    85    84    1
    37     6     5    1
    38    80    81    1
    39    14    13   ar
    40    15    13   ar
    41     7     5    1
    42    13    12    1
    43    10    11    2
    44    10     9    1
    45     5     2    1
    46    84    81    1
    47    81    82    1
    48     8     9    1
    49     8     3   am
    50     2     3    1
    51     2     1    1
    52    83    82    2
    53     9    12    1
    54     3     4    2
    55    82    89   am
    56    89    90    1
    57    91    90    1
    58    91    92    2
    59    42    43    1
    60    42    39    1
    61    90    93    1
    62    44    43   ar
    63    44    46   ar
    64    38    39    1
    65    43    45   ar
    66    46    47   ar
    67    39    40    1
    68    45    47   ar
    69    45    48   ar
    70    93    94    1
    71    47    49   ar
    72    59    58    2
    73    48    50   ar
    74    95    94   ar
    75    40    41    2
    76    49    51   ar
    77    94    96   ar
    78    50    51   ar
    79    58    60   am
    80    58    57    1
    81    70    68   ar
    82    70    69   ar
    83    68    66   ar
    84    56    57    1
    85    56    53    1
    86    69    67   ar
    87    52    53    1
    88    66    67   ar
    89    66    65    1
    90    53    54    1
    91    65    62    1
    92    61    54   am
    93    61    62    1
    94    54    55    2
    95    62    63    1
    96    63    64    2
