@<TRIPOS>MOLECULE
tmp/5ao9A00.pdb
 93 86 0 0 0
SMALL
GASTEIGER

@<TRIPOS>ATOM
      1  N        -14.9660   40.6780    0.9000 N.3     3  VAL3       -0.1245
      2  CA       -13.9020   41.6420    1.2170 C.3     3  VAL3        0.1561
      3  C        -13.8230   42.7120    0.1180 C.2     3  VAL3        0.2260
      4  O        -13.6820   43.9020    0.4250 O.2     3  VAL3       -0.2867
      5  CB       -12.5220   40.9300    1.4140 C.3     3  VAL3        0.0252
      6  CG1      -11.3500   41.9150    1.4190 C.3     3  VAL3        0.0019
      7  CG2      -12.5250   40.1140    2.6950 C.3     3  VAL3        0.0019
      8  N         -5.7860   43.7980    2.8930 N.3    52  GLY52      -0.1210
      9  CA        -5.3850   43.1700    1.6340 C.3    52  GLY52       0.1956
     10  C         -6.0240   43.8170    0.4130 C.2    52  GLY52       0.2612
     11  O         -6.8900   44.6840    0.5400 O.2    52  GLY52      -0.2717
     12  N         -5.5950   43.3740   -0.7660 N.am   53  GLY53      -0.1956
     13  CA        -6.0590   43.9910   -2.0280 C.3    53  GLY53       0.1869
     14  C         -4.9880   44.2940   -3.0540 C.2    53  GLY53       0.2309
     15  O         -5.1270   45.2340   -3.8430 O.2    53  GLY53      -0.2863
     16  N        -11.8970   45.6650    6.4470 N.3    62  GLN62      -0.1245
     17  CA       -11.5800   44.2530    6.4280 C.3    62  GLN62       0.1566
     18  C        -11.2510   43.7180    7.8290 C.2    62  GLN62       0.2260
     19  O        -11.6500   42.5840    8.1770 O.2    62  GLN62      -0.2867
     20  CB       -10.4550   43.9500    5.4420 C.3    62  GLN62       0.0367
     21  CG       -10.0380   42.4790    5.4480 C.3    62  GLN62       0.0905
     22  CD        -8.9290   42.1990    4.4620 C.2    62  GLN62       0.2608
     23  OE1       -8.3510   43.1310    3.8620 O.2    62  GLN62      -0.2717
     24  NE2       -8.6360   40.9170    4.2510 N.am   62  GLN62      -0.0878
     25  N         -3.4980   41.0690    5.9840 N.3   125  GLY125     -0.1210
     26  CA        -3.8450   40.0200    5.0630 C.3   125  GLY125      0.1956
     27  C         -3.2780   40.2380    3.6840 C.2   125  GLY125      0.2612
     28  O         -3.3560   41.3520    3.1900 O.2   125  GLY125     -0.2717
     29  N         -2.6750   39.1860    3.1040 N.am  126  SER126     -0.1952
     30  CA        -2.2270   39.1890    1.7070 C.3   126  SER126      0.1924
     31  C         -1.2290   40.3260    1.4940 C.2   126  SER126      0.2314
     32  O         -0.1990   40.3560    2.2010 O.2   126  SER126     -0.2863
     33  CB        -3.4470   39.2270    0.7760 C.3   126  SER126      0.2116
     34  OG        -3.0580   39.0690   -0.5960 O.3   126  SER126     -0.2180
     35  N         -2.3020   34.8330    5.2950 N.3   161  ASN161     -0.1240
     36  CA        -1.8130   34.5580    3.9340 C.3   161  ASN161      0.1653
     37  C         -1.0080   35.6780    3.2650 C.2   161  ASN161      0.2266
     38  O         -1.3980   36.2150    2.2270 O.2   161  ASN161     -0.2867
     39  CB        -2.8220   33.8610    2.9860 C.3   161  ASN161      0.1155
     40  CG        -4.1470   34.5810    2.7650 C.2   161  ASN161      0.2627
     41  OD1       -5.1870   33.9310    2.7870 O.2   161  ASN161     -0.2716
     42  ND2       -4.1320   35.8590    2.4450 N.am  161  ASN161     -0.0877
     43  N         -2.9980   31.8710   -5.1230 N.3   215  THR215     -0.1218
     44  CA        -2.5550   33.2560   -5.2850 C.3   215  THR215      0.1862
     45  C         -1.1330   33.3970   -4.7490 C.2   215  THR215      0.2287
     46  O         -0.2480   33.9160   -5.4200 O.2   215  THR215     -0.2866
     47  CB        -3.5490   34.2120   -4.5830 C.3   215  THR215      0.1770
     48  OG1       -4.8690   34.0370   -5.1320 O.3   215  THR215     -0.2211
     49  CG2       -3.1180   35.6610   -4.7100 C.3   215  THR215      0.0375
     50  N         -6.7830   31.4690   -0.7850 N.3   245  HIS245     -0.1226
     51  CA        -6.4790   32.8840   -0.4090 C.3   245  HIS245      0.1752
     52  C         -7.7340   33.6040    0.1060 C.2   245  HIS245      0.2596
     53  O         -8.8120   33.5200   -0.4960 O.2   245  HIS245     -0.2718
     54  CB        -5.9010   33.6340   -1.6280 C.3   245  HIS245      0.0759
     55  CG        -4.9300   34.7290   -1.2840 C.ar  245  HIS245      0.0818
     56  ND1       -3.6900   34.4830   -0.7370 N.ar  245  HIS245     -0.2268
     57  CD2       -4.9880   36.0690   -1.4850 C.ar  245  HIS245      0.1154
     58  CE1       -3.0290   35.6220   -0.6020 C.ar  245  HIS245      0.1986
     59  NE2       -3.7980   36.5950   -1.0500 N.ar  245  HIS245     -0.2212
     60  N         -7.6180   34.2760    1.2490 N.am  246  GLY246     -0.1957
     61  CA        -8.7360   34.9490    1.8800 C.3   246  GLY246      0.1869
     62  C         -9.6120   34.1440    2.8370 C.2   246  GLY246      0.2309
     63  O        -10.5620   34.6610    3.3830 O.2   246  GLY246     -0.2863
     64  N         -9.4860   33.2900    5.8700 N.3   248  PHE248     -0.1227
     65  CA        -9.5280   33.6870    7.2790 C.3   248  PHE248      0.1736
     66  C        -10.5470   34.7850    7.5880 C.2   248  PHE248      0.2595
     67  O        -10.7650   35.1120    8.7460 O.2   248  PHE248     -0.2718
     68  CB        -8.1300   34.2030    7.7030 C.3   248  PHE248      0.0547
     69  CG        -7.7190   35.4170    6.9260 C.ar  248  PHE248     -0.0202
     70  CD1       -7.0700   35.2880    5.7010 C.ar  248  PHE248     -0.0042
     71  CD2       -8.0630   36.6860    7.3770 C.ar  248  PHE248     -0.0042
     72  CE1       -6.7850   36.3900    4.9420 C.ar  248  PHE248     -0.0003
     73  CE2       -7.7460   37.7910    6.6200 C.ar  248  PHE248     -0.0003
     74  CZ        -7.1010   37.6480    5.4130 C.ar  248  PHE248     -0.0000
     75  N        -11.1060   35.4060    6.5570 N.am  249  ASN249     -0.1974
     76  CA       -11.8940   36.6130    6.7500 C.3   249  ASN249      0.1688
     77  C        -13.1790   36.3920    7.5110 C.2   249  ASN249      0.2292
     78  O        -13.7870   35.3180    7.3990 O.2   249  ASN249     -0.2864
     79  CB       -12.1950   37.2700    5.4200 C.3   249  ASN249      0.1181
     80  CG       -11.0100   38.0180    4.8670 C.2   249  ASN249      0.2629
     81  OD1      -10.6420   39.0770    5.3910 O.2   249  ASN249     -0.2716
     82  ND2      -10.4250   37.4950    3.8280 N.am  249  ASN249     -0.0877
     83  N        -16.8870   34.4650    6.0300 N.3   252  ARG252     -0.1245
     84  CA       -16.5550   33.4030    5.0760 C.3   252  ARG252      0.1563
     85  C        -16.5360   32.0300    5.7920 C.2   252  ARG252      0.2260
     86  O        -16.1840   31.9800    6.9850 O.2   252  ARG252     -0.2867
     87  CB       -15.1580   33.7200    4.5150 C.3   252  ARG252      0.0307
     88  CG       -14.8670   33.2140    3.1200 C.3   252  ARG252      0.0489
     89  CD       -13.7180   33.9970    2.5070 C.3   252  ARG252      0.2205
     90  NE       -14.0670   35.4010    2.3150 N.pl3 252  ARG252     -0.0865
     91  CZ       -13.5710   36.1720    1.3510 C.cat 252  ARG252      0.5346
     92  NH1      -12.6950   35.6880    0.4830 N.pl3 252  ARG252      0.1354
     93  NH2      -13.9590   37.4290    1.2500 N.pl3 252  ARG252      0.1354
@<TRIPOS>BOND
     1    46    45    2
     2    44    43    1
     3    44    45    1
     4    44    47    1
     5    48    47    1
     6    49    47    1
     7    15    14    2
     8    14    13    1
     9    13    12    1
    10    54    55    1
    11    54    51    1
    12    57    55   ar
    13    57    59   ar
    14    55    56   ar
    15    59    58   ar
    16    50    51    1
    17    12    10   am
    18    56    58   ar
    19    34    33    1
    20    53    52    2
    21    51    52    1
    22    52    60   am
    23     3     4    2
    24     3     2    1
    25    10    11    2
    26    10     9    1
    27    92    91    1
    28    33    30    1
    29     1     2    1
    30     2     5    1
    31    60    61    1
    32    93    91    1
    33    91    90    2
    34     5     6    1
    35     5     7    1
    36    31    30    1
    37    31    32    2
    38     9     8    1
    39    30    29    1
    40    61    62    1
    41    38    37    2
    42    90    89    1
    43    42    40   am
    44    89    88    1
    45    40    41    2
    46    40    39    1
    47    62    63    2
    48    39    36    1
    49    29    27   am
    50    88    87    1
    51    28    27    2
    52    37    36    1
    53    27    26    1
    54    82    80   am
    55    23    22    2
    56    36    35    1
    57    24    22   am
    58    22    21    1
    59    87    84    1
    60    80    81    2
    61    80    79    1
    62    72    74   ar
    63    72    70   ar
    64    26    25    1
    65    84    85    1
    66    84    83    1
    67    74    73   ar
    68    79    76    1
    69    20    21    1
    70    20    17    1
    71    70    69   ar
    72    85    86    2
    73    64    65    1
    74    17    16    1
    75    17    18    1
    76    75    76    1
    77    75    66   am
    78    73    71   ar
    79    76    77    1
    80    69    71   ar
    81    69    68    1
    82    65    66    1
    83    65    68    1
    84    78    77    2
    85    66    67    2
    86    18    19    2
