@<TRIPOS>MOLECULE
tmp/5ao9A03.pdb
 72 69 0 0 0
SMALL
GASTEIGER

@<TRIPOS>ATOM
      1  N         -5.5950   43.3740   -0.7660 N.3    53  GLY53      -0.1210
      2  CA        -6.0590   43.9910   -2.0280 C.3    53  GLY53       0.1956
      3  C         -4.9880   44.2940   -3.0540 C.2    53  GLY53       0.2612
      4  O         -5.1270   45.2340   -3.8430 O.2    53  GLY53      -0.2717
      5  N         -3.9320   43.4880   -3.0820 N.am   54  GLY54      -0.1942
      6  CA        -2.9140   43.5470   -4.1280 C.3    54  GLY54       0.2014
      7  C         -2.1350   44.8330   -4.2570 C.2    54  GLY54       0.2638
      8  O         -1.5820   45.1230   -5.3160 O.2    54  GLY54      -0.2714
      9  N         -2.0850   45.6140   -3.1820 N.am   55  TRP55      -0.1973
     10  CA        -1.4790   46.9430   -3.1650 C.3    55  TRP55       0.1640
     11  C         -2.1830   47.8900   -4.1370 C.2    55  TRP55       0.2290
     12  O         -1.6350   48.9420   -4.4710 O.2    55  TRP55      -0.2864
     13  CB         0.0260   46.8760   -3.4500 C.3    55  TRP55       0.0576
     14  CG         0.8450   45.9070   -2.6080 C.ar   55  TRP55       0.0006
     15  CD1        1.3330   46.1030   -1.3410 C.ar   55  TRP55       0.0946
     16  CD2        1.2900   44.6210   -3.0130 C.ar   55  TRP55       0.0152
     17  NE1        2.0660   45.0140   -0.9390 N.ar   55  TRP55      -0.2442
     18  CE2        2.0660   44.0810   -1.9380 C.ar   55  TRP55       0.0810
     19  CE3        1.1400   43.8710   -4.1780 C.ar   55  TRP55       0.0012
     20  CZ2        2.6760   42.8340   -2.0100 C.ar   55  TRP55       0.0191
     21  CZ3        1.7410   42.6310   -4.2430 C.ar   55  TRP55       0.0001
     22  CH2        2.4950   42.1150   -3.1620 C.ar   55  TRP55       0.0015
     23  N         -2.6750   39.1860    3.1040 N.3   126  SER126     -0.1202
     24  CA        -2.2270   39.1890    1.7070 C.3   126  SER126      0.2020
     25  C         -1.2290   40.3260    1.4940 C.2   126  SER126      0.2618
     26  O         -0.1990   40.3560    2.2010 O.2   126  SER126     -0.2717
     27  CB        -3.4470   39.2270    0.7760 C.3   126  SER126      0.2103
     28  OG        -3.0580   39.0690   -0.5960 O.3   126  SER126     -0.2182
     29  N         -1.5060   41.2900    0.6210 N.am  127  ALA127     -0.1979
     30  CA        -0.6260   42.4630    0.4770 C.3   127  ALA127      0.1597
     31  C         -0.3660   43.1720    1.7970 C.2   127  ALA127      0.2287
     32  O          0.7400   43.6450    2.0600 O.2   127  ALA127     -0.2864
     33  CB        -1.2280   43.4500   -0.5020 C.3   127  ALA127      0.0319
     34  N          2.1140   37.7360    1.3190 N.3   163  VAL163     -0.1245
     35  CA         3.1140   37.5840    0.2660 C.3   163  VAL163      0.1561
     36  C          4.4700   37.8090    0.9050 C.2   163  VAL163      0.2260
     37  O          4.7270   38.8950    1.4440 O.2   163  VAL163     -0.2867
     38  CB         2.9400   38.6430   -0.8610 C.3   163  VAL163      0.0252
     39  CG1        3.8010   38.2320   -2.0550 C.3   163  VAL163      0.0019
     40  CG2        1.4920   38.7930   -1.2630 C.3   163  VAL163      0.0019
     41  N          9.2040   38.1170   -3.0200 N.3   166  LEU166     -0.1245
     42  CA         8.9300   39.0480   -4.1210 C.3   166  LEU166      0.1561
     43  C         10.0870   39.1380   -5.1290 C.2   166  LEU166      0.2260
     44  O         10.0220   39.9220   -6.0640 O.2   166  LEU166     -0.2867
     45  CB         8.5420   40.4360   -3.6070 C.3   166  LEU166      0.0270
     46  CG         7.1000   40.6040   -3.1010 C.3   166  LEU166      0.0019
     47  CD1        6.9400   39.9940   -1.7140 C.3   166  LEU166      0.0001
     48  CD2        6.7200   42.0580   -3.0410 C.3   166  LEU166      0.0001
     49  N         -2.9980   31.8710   -5.1230 N.3   215  THR215     -0.1203
     50  CA        -2.5550   33.2560   -5.2850 C.3   215  THR215      0.1994
     51  C         -1.1330   33.3970   -4.7490 C.2   215  THR215      0.2617
     52  O         -0.2480   33.9160   -5.4200 O.2   215  THR215     -0.2717
     53  CB        -3.5490   34.2120   -4.5830 C.3   215  THR215      0.1784
     54  OG1       -4.8690   34.0370   -5.1320 O.3   215  THR215     -0.2211
     55  CG2       -3.1180   35.6610   -4.7100 C.3   215  THR215      0.0376
     56  N         -0.9340   32.9610   -3.5110 N.am  216  VAL216     -0.1979
     57  CA         0.3640   32.8430   -2.9160 C.3   216  VAL216      0.1595
     58  C          0.5460   31.3790   -2.5660 C.2   216  VAL216      0.2287
     59  O         -0.0350   30.9030   -1.6020 O.2   216  VAL216     -0.2864
     60  CB         0.5210   33.7010   -1.6200 C.3   216  VAL216      0.0276
     61  CG1        1.8910   33.4960   -1.0000 C.3   216  VAL216      0.0022
     62  CG2        0.2990   35.1830   -1.9170 C.3   216  VAL216      0.0022
     63  N         -6.7830   31.4690   -0.7850 N.3   245  HIS245     -0.1241
     64  CA        -6.4790   32.8840   -0.4090 C.3   245  HIS245      0.1621
     65  C         -7.7340   33.6040    0.1060 C.2   245  HIS245      0.2264
     66  O         -8.8120   33.5200   -0.4960 O.2   245  HIS245     -0.2867
     67  CB        -5.9010   33.6340   -1.6280 C.3   245  HIS245      0.0745
     68  CG        -4.9300   34.7290   -1.2840 C.ar  245  HIS245      0.0817
     69  ND1       -3.6900   34.4830   -0.7370 N.ar  245  HIS245     -0.2268
     70  CD2       -4.9880   36.0690   -1.4850 C.ar  245  HIS245      0.1154
     71  CE1       -3.0290   35.6220   -0.6020 C.ar  245  HIS245      0.1986
     72  NE2       -3.7980   36.5950   -1.0500 N.ar  245  HIS245     -0.2212
@<TRIPOS>BOND
     1    44    43    2
     2    52    51    2
     3     8     7    2
     4    50    49    1
     5    50    51    1
     6    50    53    1
     7    54    53    1
     8    43    42    1
     9    51    56   am
    10    55    53    1
    11    12    11    2
    12     7     6    1
    13     7     9   am
    14    21    19   ar
    15    21    22   ar
    16    19    16   ar
    17    11    10    1
    18     6     5    1
    19    42    45    1
    20    42    41    1
    21     4     3    2
    22    45    46    1
    23    56    57    1
    24    13    10    1
    25    13    14    1
    26     9    10    1
    27    22    20   ar
    28    46    48    1
    29    46    47    1
    30     5     3   am
    31     3     2    1
    32    16    14   ar
    33    16    18   ar
    34    57    58    1
    35    57    60    1
    36    14    15   ar
    37    58    59    2
    38    39    38    1
    39     2     1    1
    40    20    18   ar
    41    18    17   ar
    42    62    60    1
    43    67    68    1
    44    67    64    1
    45    60    61    1
    46    70    68   ar
    47    70    72   ar
    48    15    17   ar
    49    68    69   ar
    50    40    38    1
    51    72    71   ar
    52    38    35    1
    53    63    64    1
    54    69    71   ar
    55    28    27    1
    56    33    30    1
    57    66    65    2
    58    64    65    1
    59    35    36    1
    60    35    34    1
    61    30    29    1
    62    30    31    1
    63    29    25   am
    64    27    24    1
    65    36    37    2
    66    25    24    1
    67    25    26    2
    68    24    23    1
    69    31    32    2
