@<TRIPOS>MOLECULE
tmp/5ao9A02.pdb
 85 82 0 0 0
SMALL
GASTEIGER

@<TRIPOS>ATOM
      1  N         -3.9320   43.4880   -3.0820 N.3    54  GLY54      -0.1210
      2  CA        -2.9140   43.5470   -4.1280 C.3    54  GLY54       0.1956
      3  C         -2.1350   44.8330   -4.2570 C.2    54  GLY54       0.2612
      4  O         -1.5820   45.1230   -5.3160 O.2    54  GLY54      -0.2717
      5  N         -2.0850   45.6140   -3.1820 N.am   55  TRP55      -0.1962
      6  CA        -1.4790   46.9430   -3.1650 C.3    55  TRP55       0.1771
      7  C         -2.1830   47.8900   -4.1370 C.2    55  TRP55       0.2619
      8  O         -1.6350   48.9420   -4.4710 O.2    55  TRP55      -0.2715
      9  CB         0.0260   46.8760   -3.4500 C.3    55  TRP55       0.0590
     10  CG         0.8450   45.9070   -2.6080 C.ar   55  TRP55       0.0006
     11  CD1        1.3330   46.1030   -1.3410 C.ar   55  TRP55       0.0946
     12  CD2        1.2900   44.6210   -3.0130 C.ar   55  TRP55       0.0152
     13  NE1        2.0660   45.0140   -0.9390 N.ar   55  TRP55      -0.2442
     14  CE2        2.0660   44.0810   -1.9380 C.ar   55  TRP55       0.0810
     15  CE3        1.1400   43.8710   -4.1780 C.ar   55  TRP55       0.0012
     16  CZ2        2.6760   42.8340   -2.0100 C.ar   55  TRP55       0.0191
     17  CZ3        1.7410   42.6310   -4.2430 C.ar   55  TRP55       0.0001
     18  CH2        2.4950   42.1150   -3.1620 C.ar   55  TRP55       0.0015
     19  N         -3.4130   47.5170   -4.5030 N.am   56  GLN56      -0.1977
     20  CA        -4.2240   48.2290   -5.5180 C.3    56  GLN56       0.1601
     21  C         -5.5220   48.7850   -4.9850 C.2    56  GLN56       0.2287
     22  O         -5.9430   49.8770   -5.3810 O.2    56  GLN56      -0.2864
     23  CB        -4.5390   47.2770   -6.6710 C.3    56  GLN56       0.0394
     24  CG        -3.3440   46.9760   -7.5480 C.3    56  GLN56       0.0908
     25  CD        -2.9680   48.1300   -8.4630 C.2    56  GLN56       0.2608
     26  OE1       -3.5160   49.2320   -8.3580 O.2    56  GLN56      -0.2717
     27  NE2       -2.0340   47.8830   -9.3670 N.am   56  GLN56      -0.0878
     28  N          0.3920   54.8070   -6.5350 N.3    90  VAL90      -0.1231
     29  CA         1.6570   54.4630   -5.8830 C.3    90  VAL90       0.1692
     30  C          2.0800   53.0500   -6.2810 C.2    90  VAL90       0.2592
     31  O          1.3070   52.2900   -6.8860 O.2    90  VAL90      -0.2718
     32  CB         1.5230   54.5150   -4.3380 C.3    90  VAL90       0.0266
     33  CG1        1.3910   55.9460   -3.8720 C.3    90  VAL90       0.0020
     34  CG2        0.3940   53.6440   -3.8440 C.3    90  VAL90       0.0020
     35  N          3.2870   52.6910   -5.8780 N.am   91  LYS91      -0.1966
     36  CA         3.8270   51.3570   -6.0680 C.3    91  LYS91       0.1728
     37  C          4.0460   50.6930   -4.7080 C.2    91  LYS91       0.2616
     38  O          3.9150   51.3500   -3.6760 O.2    91  LYS91      -0.2715
     39  CB         5.1060   51.4370   -6.8380 C.3    91  LYS91       0.0311
     40  CG         4.8530   51.8870   -8.2640 C.3    91  LYS91       0.0038
     41  CD         6.1270   52.0750   -9.0180 C.3    91  LYS91       0.0206
     42  CE         5.7860   52.6480  -10.4040 C.3    91  LYS91       0.1093
     43  NZ         6.9020   52.4560  -11.3560 N.3    91  LYS91      -0.1314
     44  N          4.3560   49.3990   -4.7230 N.am   92  VAL92      -0.1977
     45  CA         4.4950   48.6270   -3.4840 C.3    92  VAL92       0.1596
     46  C          5.4150   49.3060   -2.4760 C.2    92  VAL92       0.2287
     47  O          5.1480   49.3100   -1.2770 O.2    92  VAL92      -0.2864
     48  CB         4.9430   47.1690   -3.7470 C.3    92  VAL92       0.0276
     49  CG1        5.2650   46.4390   -2.4460 C.3    92  VAL92       0.0022
     50  CG2        3.9030   46.4200   -4.5820 C.3    92  VAL92       0.0022
     51  N          9.2040   38.1170   -3.0200 N.3   166  LEU166     -0.1245
     52  CA         8.9300   39.0480   -4.1210 C.3   166  LEU166      0.1561
     53  C         10.0870   39.1380   -5.1290 C.2   166  LEU166      0.2260
     54  O         10.0220   39.9220   -6.0640 O.2   166  LEU166     -0.2867
     55  CB         8.5420   40.4360   -3.6070 C.3   166  LEU166      0.0270
     56  CG         7.1000   40.6040   -3.1010 C.3   166  LEU166      0.0019
     57  CD1        6.9400   39.9940   -1.7140 C.3   166  LEU166      0.0001
     58  CD2        6.7200   42.0580   -3.0410 C.3   166  LEU166      0.0001
     59  N          9.7010   43.3140  -12.1470 N.3   181  LEU181     -0.1245
     60  CA         9.3620   43.4760  -10.7350 C.3   181  LEU181      0.1561
     61  C          9.8240   44.8590  -10.2420 C.2   181  LEU181      0.2260
     62  O          9.0690   45.5440   -9.5400 O.2   181  LEU181     -0.2867
     63  CB         9.9490   42.3620   -9.8740 C.3   181  LEU181      0.0270
     64  CG         9.2790   40.9930   -9.9950 C.3   181  LEU181      0.0019
     65  CD1       10.2020   39.9000   -9.4620 C.3   181  LEU181      0.0001
     66  CD2        7.9340   40.9590   -9.2800 C.3   181  LEU181      0.0001
     67  N          7.2970   47.5100  -11.2450 N.3   184  ARG184     -0.1231
     68  CA         6.0350   47.3280  -10.5210 C.3   184  ARG184      0.1694
     69  C          6.1600   47.7410   -9.0500 C.2   184  ARG184      0.2591
     70  O          5.2580   48.3310   -8.4710 O.2   184  ARG184     -0.2718
     71  CB         5.5920   45.8480  -10.6110 C.3   184  ARG184      0.0321
     72  CG         4.1040   45.6090  -10.8110 C.3   184  ARG184      0.0489
     73  CD         3.5610   46.3080  -12.0490 C.3   184  ARG184      0.2205
     74  NE         2.8650   47.5440  -11.6860 N.pl3 184  ARG184     -0.0865
     75  CZ         1.5590   47.6490  -11.4200 C.cat 184  ARG184      0.5346
     76  NH1        0.7380   46.5980  -11.5000 N.pl3 184  ARG184      0.1354
     77  NH2        1.0620   48.8370  -11.0830 N.pl3 184  ARG184      0.1354
     78  N          7.2970   47.4120   -8.4480 N.am  185  LEU185     -0.1980
     79  CA         7.4970   47.5770   -7.0080 C.3   185  LEU185      0.1596
     80  C          8.0230   48.9480   -6.6090 C.2   185  LEU185      0.2287
     81  O          7.8690   49.3620   -5.4600 O.2   185  LEU185     -0.2864
     82  CB         8.4250   46.4910   -6.5100 C.3   185  LEU185      0.0297
     83  CG         7.9610   45.0490   -6.7330 C.3   185  LEU185      0.0022
     84  CD1        9.0170   44.0640   -6.2400 C.3   185  LEU185      0.0001
     85  CD2        6.6310   44.8000   -6.0430 C.3   185  LEU185      0.0001
@<TRIPOS>BOND
     1    59    60    1
     2    73    74    1
     3    73    72    1
     4    74    75    2
     5    76    75    1
     6    75    77    1
     7    43    42    1
     8    67    68    1
     9    72    71    1
    10    60    61    1
    11    60    63    1
    12    71    68    1
    13    68    69    1
    14    42    41    1
    15    61    62    2
    16    64    63    1
    17    64    65    1
    18    64    66    1
    19    27    25   am
    20    69    70    2
    21    69    78   am
    22    41    40    1
    23    25    26    2
    24    25    24    1
    25    78    79    1
    26    40    39    1
    27    24    23    1
    28    79    80    1
    29    79    82    1
    30    31    30    2
    31    39    36    1
    32    83    82    1
    33    83    84    1
    34    83    85    1
    35    23    20    1
    36    80    81    2
    37    28    29    1
    38    30    29    1
    39    30    35   am
    40    36    35    1
    41    36    37    1
    42    54    53    2
    43    29    32    1
    44    20    21    1
    45    20    19    1
    46    22    21    2
    47     4     3    2
    48    53    52    1
    49    44    37   am
    50    44    45    1
    51    37    38    2
    52    50    48    1
    53    19     7   am
    54     8     7    2
    55    32    33    1
    56    32    34    1
    57     3     2    1
    58     3     5   am
    59    17    15   ar
    60    17    18   ar
    61    15    12   ar
    62     7     6    1
    63     2     1    1
    64    52    55    1
    65    52    51    1
    66    48    45    1
    67    48    49    1
    68    55    56    1
    69    45    46    1
    70     9     6    1
    71     9    10    1
    72     5     6    1
    73    18    16   ar
    74    56    58    1
    75    56    57    1
    76    12    10   ar
    77    12    14   ar
    78    10    11   ar
    79    46    47    2
    80    16    14   ar
    81    14    13   ar
    82    11    13   ar
