@<TRIPOS>MOLECULE
tmp/5ao9A01.pdb
 119 117 0 0 0
SMALL
GASTEIGER

@<TRIPOS>ATOM
      1  N          5.3450   51.3780    7.5610 N.3   100  LYS100     -0.1245
      2  CA         6.3850   51.7490    8.5080 C.3   100  LYS100      0.1561
      3  C          6.0710   53.0580    9.2450 C.2   100  LYS100      0.2260
      4  O          6.3250   53.1810   10.4500 O.2   100  LYS100     -0.2867
      5  CB         7.7330   51.8330    7.7810 C.3   100  LYS100      0.0271
      6  CG         8.2740   50.4670    7.3960 C.3   100  LYS100      0.0035
      7  CD         9.3690   50.5670    6.3310 C.3   100  LYS100      0.0206
      8  CE        10.1110   49.2860    6.1080 C.3   100  LYS100      0.1093
      9  NZ        10.9670   48.9340    7.2790 N.3   100  LYS100     -0.1314
     10  N          7.4400   45.5690    8.0030 N.3   135  THR135     -0.1203
     11  CA         7.7030   46.3540    9.2090 C.3   135  THR135      0.1994
     12  C          8.5250   45.6300   10.2690 C.2   135  THR135      0.2618
     13  O          9.1090   46.2770   11.1200 O.2   135  THR135     -0.2717
     14  CB         6.4460   46.9330    9.8980 C.3   135  THR135      0.1784
     15  OG1        5.7580   45.8810   10.6040 O.3   135  THR135     -0.2211
     16  CG2        5.5650   47.6480    8.9590 C.3   135  THR135      0.0376
     17  N          8.5400   44.3050   10.2520 N.am  136  VAL136     -0.1965
     18  CA         9.3140   43.4990   11.1950 C.3   136  VAL136      0.1727
     19  C         10.7400   43.2540   10.7240 C.2   136  VAL136      0.2619
     20  O         11.6640   43.1320   11.5430 O.2   136  VAL136     -0.2715
     21  CB         8.6100   42.1410   11.4180 C.3   136  VAL136      0.0290
     22  CG1        9.5360   41.0940   12.0370 C.3   136  VAL136      0.0023
     23  CG2        7.3990   42.3520   12.2880 C.3   136  VAL136      0.0023
     24  N         10.9170   43.1300    9.4220 N.am  137  MET137     -0.1917
     25  CA        12.2150   42.6000    8.9730 C.3   137  MET137      0.1952
     26  C         12.9020   43.2270    7.7910 C.2   137  MET137      0.2659
     27  O         14.0480   42.8560    7.5170 O.2   137  MET137     -0.2711
     28  CB        12.0850   41.0820    8.8170 C.2   137  MET137      0.0110
     29  CG        11.1490   40.6160    7.7400 C.2   137  MET137      0.0285
     30  SD        10.6370   38.8860    7.8020 S.3   137  MET137     -0.1125
     31  CE        12.2070   38.0640    7.4180 C.3   137  MET137      0.0742
     32  N         12.2850   44.1710    7.0820 N.am  138  VAL138     -0.1961
     33  CA        12.9090   44.7870    5.9190 C.3   138  VAL138      0.1712
     34  C         13.4240   46.1730    6.3380 C.2   138  VAL138      0.2458
     35  O         12.7070   46.9060    7.0350 O.2   138  VAL138     -0.2730
     36  CB        11.8660   44.8540    4.7880 C.3   138  VAL138      0.0289
     37  CG1       12.3190   45.7350    3.6560 C.3   138  VAL138      0.0023
     38  CG2       11.5700   43.4410    4.2890 C.3   138  VAL138      0.0023
     39  N         14.6540   46.5610    5.9340 N.am  139  PRO139     -0.2716
     40  CA        15.0680   47.9170    6.2610 C.3   139  PRO139      0.1536
     41  C         14.1660   49.0080    5.6630 C.2   139  PRO139      0.2598
     42  O         13.5770   48.8070    4.6060 O.2   139  PRO139     -0.2715
     43  CB        16.4900   48.0060    5.6630 C.3   139  PRO139      0.0310
     44  CG        16.9540   46.6020    5.5730 C.3   139  PRO139      0.0237
     45  CD        15.7310   45.7880    5.2740 C.3   139  PRO139      0.0939
     46  N         14.0330   50.1340    6.3680 N.am  140  ASP140     -0.1972
     47  CA        13.3450   51.3180    5.8460 C.3   140  ASP140      0.1709
     48  C         14.0240   51.6870    4.5350 C.2   140  ASP140      0.2293
     49  O         15.2730   51.6900    4.4540 O.2   140  ASP140     -0.2864
     50  CB        13.4770   52.5140    6.7720 C.3   140  ASP140      0.1436
     51  CG        12.7260   52.3620    8.0910 C.2   140  ASP140      0.3671
     52  OD1       11.9220   51.4040    8.2530 O.co2 140  ASP140     -0.2456
     53  OD2       12.9320   53.2490    8.9520 O.co2 140  ASP140     -0.2456
     54  N         12.0470   54.1090   16.0750 N.3   151  SER151     -0.1202
     55  CA        12.0500   52.9200   15.1950 C.3   151  SER151      0.2020
     56  C         10.6700   52.6490   14.5790 C.2   151  SER151      0.2619
     57  O          9.6650   52.7780   15.2520 O.2   151  SER151     -0.2717
     58  CB        12.4610   51.6860   15.9740 C.3   151  SER151      0.2103
     59  OG        12.4910   50.5180   15.1620 O.3   151  SER151     -0.2182
     60  N         10.6740   52.2160   13.3290 N.am  152  SER152     -0.1937
     61  CA         9.4790   51.7430   12.6370 C.3   152  SER152      0.2055
     62  C          9.2750   50.2450   12.8270 C.2   152  SER152      0.2642
     63  O          8.3250   49.6880   12.2640 O.2   152  SER152     -0.2714
     64  CB         9.6200   51.9980   11.1300 C.3   152  SER152      0.2130
     65  OG        10.7210   51.2320   10.6320 O.3   152  SER152     -0.2179
     66  N         10.1620   49.5550   13.5490 N.am  153  GLN153     -0.1976
     67  CA        10.1290   48.1050   13.5730 C.3   153  GLN153      0.1601
     68  C          9.0900   47.6030   14.5630 C.2   153  GLN153      0.2287
     69  O          9.1030   47.9440   15.7590 O.2   153  GLN153     -0.2864
     70  CB        11.5170   47.5420   13.9370 C.3   153  GLN153      0.0394
     71  CG        11.5740   46.0480   13.8100 C.3   153  GLN153      0.0908
     72  CD        12.9250   45.4600   14.1380 C.2   153  GLN153      0.2608
     73  OE1       13.7360   46.0620   14.8500 O.2   153  GLN153     -0.2717
     74  NE2       13.1710   44.2730   13.6110 N.am  153  GLN153     -0.0878
     75  N         15.4060   38.9240    3.6050 N.3   197  HIS197     -0.1241
     76  CA        15.9100   39.5610    4.7860 C.3   197  HIS197      0.1621
     77  C         15.8920   38.6890    6.0300 C.2   197  HIS197      0.2264
     78  O         16.0780   39.1850    7.1460 O.2   197  HIS197     -0.2867
     79  CB        15.1680   40.8900    4.9970 C.3   197  HIS197      0.0745
     80  CG        15.3930   41.8400    3.8680 C.ar  197  HIS197      0.0817
     81  ND1       16.4430   42.7310    3.8520 N.ar  197  HIS197     -0.2268
     82  CD2       14.7900   41.9400    2.6610 C.ar  197  HIS197      0.1154
     83  CE1       16.4360   43.3880    2.7030 C.ar  197  HIS197      0.1986
     84  NE2       15.4560   42.9170    1.9590 N.ar  197  HIS197     -0.2212
     85  N         17.2240   36.6940    8.8370 N.3   199  ARG199     -0.1227
     86  CA        18.4410   36.6890    9.6340 C.3   199  ARG199      0.1737
     87  C         18.0850   36.3390   11.0580 C.2   199  ARG199      0.2595
     88  O         16.9190   36.4070   11.4440 O.2   199  ARG199     -0.2718
     89  CB        19.1030   38.0640    9.6270 C.3   199  ARG199      0.0576
     90  CG        18.2240   39.1990   10.1860 C.2   199  ARG199      0.0160
     91  CD        18.9010   40.5560   10.4160 C.2   199  ARG199      0.1886
     92  NE        20.2430   40.6880    9.8400 N.pl3 199  ARG199     -0.0578
     93  CZ        20.8580   41.8440    9.5750 C.cat 199  ARG199      0.5393
     94  NH1       20.2900   43.0260    9.8390 N.pl3 199  ARG199      0.1358
     95  NH2       22.0800   41.8150    9.0430 N.pl3 199  ARG199      0.1358
     96  N         19.0790   35.9880   11.8690 N.am  200  ALA200     -0.1966
     97  CA        18.8510   35.8090   13.2870 C.3   200  ALA200      0.1728
     98  C         18.4620   37.1020   13.9970 C.2   200  ALA200      0.2617
     99  O         18.7570   38.2070   13.5260 O.2   200  ALA200     -0.2715
    100  CB        20.1040   35.2280   13.9350 C.3   200  ALA200      0.0334
    101  N         17.7810   36.9440   15.1320 N.am  201  GLY201     -0.1940
    102  CA        17.4450   38.0180   16.0100 C.3   201  GLY201      0.2014
    103  C         16.1990   38.8150   15.6270 C.2   201  GLY201      0.2639
    104  O         16.0570   39.9460   16.0720 O.2   201  GLY201     -0.2714
    105  N         15.3060   38.2250   14.8360 N.am  202  LEU202     -0.1963
    106  CA        14.0860   38.9500   14.4070 C.3   202  LEU202      0.1713
    107  C         12.9380   38.7790   15.3970 C.2   202  LEU202      0.2458
    108  O         12.8740   37.7950   16.1350 O.2   202  LEU202     -0.2730
    109  CB        13.6480   38.5250   13.0080 C.3   202  LEU202      0.0310
    110  CG        14.5950   38.9550   11.8830 C.3   202  LEU202      0.0022
    111  CD1       14.2160   38.2890   10.5800 C.3   202  LEU202      0.0001
    112  CD2       14.6530   40.4660   11.7170 C.3   202  LEU202      0.0001
    113  N         11.9830   39.7230   15.3820 N.am  203  PRO203     -0.2727
    114  CA        10.7810   39.5640   16.1720 C.3   203  PRO203      0.1402
    115  C          9.9830   38.3010   15.8380 C.2   203  PRO203      0.2269
    116  O         10.0040   37.8260   14.7020 O.2   203  PRO203     -0.2865
    117  CB         9.9620   40.8210   15.8220 C.3   203  PRO203      0.0296
    118  CG        10.9530   41.8050   15.3500 C.3   203  PRO203      0.0237
    119  CD        12.0120   41.0060   14.6560 C.3   203  PRO203      0.0939
@<TRIPOS>BOND
     1    84    82   ar
     2    84    83   ar
     3    82    80   ar
     4    83    81   ar
     5    75    76    1
     6    37    36    1
     7    81    80   ar
     8    80    79    1
     9    38    36    1
    10    49    48    2
    11    48    47    1
    12    42    41    2
    13    76    79    1
    14    76    77    1
    15    36    33    1
    16    45    44    1
    17    45    39    1
    18    44    43    1
    19    43    40    1
    20    41    40    1
    21    41    46   am
    22    47    46    1
    23    47    50    1
    24    33    34    1
    25    33    32    1
    26    39    40    1
    27    39    34   am
    28    77    78    2
    29     8     7    1
    30     8     9    1
    31     7     6    1
    32    34    35    2
    33    50    51    1
    34    32    26   am
    35     6     5    1
    36    31    30    1
    37    27    26    2
    38     1     2    1
    39    29    30    1
    40    29    28    2
    41     5     2    1
    42    26    25    1
    43    10    11    1
    44    51    52   ar
    45    51    53   ar
    46     2     3    1
    47    28    25    1
    48    85    86    1
    49    16    14    1
    50    25    24    1
    51    95    93    1
    52    11    14    1
    53    11    12    1
    54     3     4    2
    55    24    19   am
    56    93    94    1
    57    93    92    2
    58    89    86    1
    59    89    90    1
    60    86    87    1
    61    92    91    1
    62    14    15    1
    63    90    91    2
    64    17    12   am
    65    17    18    1
    66    12    13    2
    67   111   110    1
    68    65    64    1
    69    19    18    1
    70    19    20    2
    71    87    88    2
    72    87    96   am
    73    64    61    1
    74    18    21    1
    75    21    22    1
    76    21    23    1
    77   112   110    1
    78    96    97    1
    79   110   109    1
    80    63    62    2
    81    61    62    1
    82    61    60    1
    83    62    66   am
    84   109   106    1
    85    97   100    1
    86    97    98    1
    87    60    56   am
    88    99    98    2
    89    66    67    1
    90    67    70    1
    91    67    68    1
    92    74    72   am
    93    71    70    1
    94    71    72    1
    95    98   101   am
    96    72    73    2
    97   106   105    1
    98   106   107    1
    99    68    69    2
   100    56    55    1
   101    56    57    2
   102   119   118    1
   103   119   113    1
   104   116   115    2
   105   105   103   am
   106   101   102    1
   107    59    58    1
   108    55    58    1
   109    55    54    1
   110   118   117    1
   111   113   107   am
   112   113   114    1
   113   107   108    2
   114   103   102    1
   115   103   104    2
   116   117   114    1
   117   115   114    1
