@<TRIPOS>MOLECULE
tmp/5aobA00.pdb
 90 85 0 0 0
SMALL
GASTEIGER

@<TRIPOS>ATOM
      1  N          5.2460   50.9380    7.3990 N.3    96  LYS96      -0.1245
      2  CA         6.3090   51.3420    8.3400 C.3    96  LYS96       0.1561
      3  C          5.9750   52.6240    9.0850 C.2    96  LYS96       0.2260
      4  O          6.1940   52.6940   10.2970 O.2    96  LYS96      -0.2867
      5  CB         7.6760   51.4430    7.6700 C.3    96  LYS96       0.0271
      6  CG         8.2380   50.0960    7.2880 C.3    96  LYS96       0.0035
      7  CD         9.2070   50.1750    6.1220 C.3    96  LYS96       0.0206
      8  CE         9.9240   48.8630    5.9130 C.3    96  LYS96       0.1093
      9  NZ        10.8920   48.5810    7.0060 N.3    96  LYS96      -0.1314
     10  N          7.3390   45.2100    7.8140 N.3   131  THR131     -0.1218
     11  CA         7.5780   45.9780    9.0360 C.3   131  THR131      0.1862
     12  C          8.4020   45.1960   10.0840 C.2   131  THR131      0.2287
     13  O          9.0670   45.8140   10.9140 O.2   131  THR131     -0.2866
     14  CB         6.2880   46.4950    9.7310 C.3   131  THR131      0.1770
     15  OG1        5.6010   45.4200   10.3570 O.3   131  THR131     -0.2211
     16  CG2        5.3930   47.2460    8.7680 C.3   131  THR131      0.0375
     17  N         10.7580   42.7010    9.2030 N.3   133  MET133     -0.1230
     18  CA        12.0240   42.1570    8.7150 C.3   133  MET133      0.1702
     19  C         12.7290   42.7920    7.5220 C.2   133  MET133      0.2592
     20  O         13.8560   42.4050    7.2480 O.2   133  MET133     -0.2718
     21  CB        11.8760   40.6460    8.5310 C.3   133  MET133      0.0401
     22  CG        11.0910   40.1740    7.3280 C.3   133  MET133      0.0596
     23  SD        10.4930   38.4500    7.4620 S.3   133  MET133     -0.1393
     24  CE        11.9850   37.4950    7.1520 C.3   133  MET133      0.0692
     25  N         12.1140   43.7440    6.8140 N.am  134  VAL134     -0.1966
     26  CA        12.7410   44.3720    5.6600 C.3   134  VAL134      0.1712
     27  C         13.2730   45.7480    6.0850 C.2   134  VAL134      0.2458
     28  O         12.5790   46.4860    6.8170 O.2   134  VAL134     -0.2730
     29  CB        11.7170   44.4400    4.5120 C.3   134  VAL134      0.0289
     30  CG1       12.1890   45.3000    3.3700 C.3   134  VAL134      0.0023
     31  CG2       11.4150   43.0240    4.0100 C.3   134  VAL134      0.0023
     32  N         14.4860   46.1110    5.6530 N.am  135  PRO135     -0.2716
     33  CA        14.9390   47.4630    6.0180 C.3   135  PRO135      0.1536
     34  C         14.0420   48.5590    5.4460 C.2   135  PRO135      0.2598
     35  O         13.4550   48.3890    4.3740 O.2   135  PRO135     -0.2715
     36  CB        16.3480   47.5470    5.4150 C.3   135  PRO135      0.0310
     37  CG        16.7860   46.1240    5.2910 C.3   135  PRO135      0.0237
     38  CD        15.5670   45.3050    5.0460 C.3   135  PRO135      0.0939
     39  N         13.9110   49.6550    6.1860 N.am  136  ASP136     -0.1972
     40  CA        13.2440   50.8510    5.6790 C.3   136  ASP136      0.1709
     41  C         13.8850   51.2430    4.3510 C.2   136  ASP136      0.2293
     42  O         15.1050   51.2530    4.2450 O.2   136  ASP136     -0.2864
     43  CB        13.4100   52.0380    6.6300 C.3   136  ASP136      0.1436
     44  CG        12.6240   51.8950    7.9290 C.2   136  ASP136      0.3671
     45  OD1       11.8200   50.9460    8.0960 O.co2 136  ASP136     -0.2456
     46  OD2       12.8040   52.7820    8.7850 O.co2 136  ASP136     -0.2456
     47  N         11.9260   53.6090   15.8560 N.3   147  SER147     -0.1202
     48  CA        11.9250   52.3990   15.0080 C.3   147  SER147      0.2020
     49  C         10.5500   52.1120   14.3710 C.2   147  SER147      0.2619
     50  O          9.5180   52.2320   15.0290 O.2   147  SER147     -0.2717
     51  CB        12.3720   51.1540   15.7740 C.3   147  SER147      0.2103
     52  OG        12.4450   50.0380   14.8950 O.3   147  SER147     -0.2182
     53  N         10.5680   51.7400   13.0970 N.am  148  SER148     -0.1937
     54  CA         9.3950   51.2380   12.3880 C.3   148  SER148      0.2055
     55  C          9.1400   49.7300   12.6020 C.2   148  SER148      0.2642
     56  O          8.1890   49.1770   12.0470 O.2   148  SER148     -0.2714
     57  CB         9.5700   51.4750   10.8710 C.3   148  SER148      0.2130
     58  OG        10.6720   50.7340   10.3890 O.3   148  SER148     -0.2179
     59  N         10.0050   49.0470   13.3470 N.am  149  GLN149     -0.1976
     60  CA        10.0200   47.6140   13.3270 C.3   149  GLN149      0.1601
     61  C          8.9910   47.1070   14.3080 C.2   149  GLN149      0.2287
     62  O          9.0290   47.4500   15.4950 O.2   149  GLN149     -0.2864
     63  CB        11.4150   47.0560   13.6790 C.3   149  GLN149      0.0394
     64  CG        11.4950   45.5450   13.5100 C.3   149  GLN149      0.0908
     65  CD        12.8400   44.9320   13.8310 C.2   149  GLN149      0.2608
     66  OE1       13.6160   45.4820   14.6070 O.2   149  GLN149     -0.2717
     67  NE2       13.1150   43.7610   13.2400 N.am  149  GLN149     -0.0878
     68  N         16.9790   36.2220    8.4330 N.3   198  ARG198     -0.1245
     69  CA        18.2220   36.2340    9.2080 C.3   198  ARG198      0.1563
     70  C         17.8690   35.9260   10.6590 C.2   198  ARG198      0.2260
     71  O         16.6870   35.9870   11.0490 O.2   198  ARG198     -0.2867
     72  CB        18.9240   37.5980    9.1070 C.3   198  ARG198      0.0307
     73  CG        18.1590   38.7380    9.7970 C.3   198  ARG198      0.0489
     74  CD        18.7490   40.1220    9.5630 C.3   198  ARG198      0.2205
     75  NE        20.1540   40.2110    9.9620 N.pl3 198  ARG198     -0.0865
     76  CZ        20.9010   41.3180    9.8970 C.cat 198  ARG198      0.5346
     77  NH1       20.3930   42.4800    9.4720 N.pl3 198  ARG198      0.1354
     78  NH2       22.1770   41.2630   10.2760 N.pl3 198  ARG198      0.1354
     79  N         17.6700   36.4060   14.7690 N.3   200  GLY200     -0.1210
     80  CA        17.3530   37.5120   15.6560 C.3   200  GLY200      0.1956
     81  C         16.1440   38.3520   15.2520 C.2   200  GLY200      0.2611
     82  O         16.0650   39.5100   15.6030 O.2   200  GLY200     -0.2717
     83  N         15.2020   37.7680   14.5170 N.am  201  LEU201     -0.1979
     84  CA        14.0140   38.4880   14.1000 C.3   201  LEU201      0.1596
     85  C         12.8550   38.2910   15.0740 C.2   201  LEU201      0.2287
     86  O         12.7990   37.3100   15.8250 O.2   201  LEU201     -0.2864
     87  CB        13.5850   38.0640   12.7010 C.3   201  LEU201      0.0297
     88  CG        14.4790   38.4970   11.5410 C.3   201  LEU201      0.0022
     89  CD1       13.9970   37.8530   10.2550 C.3   201  LEU201      0.0001
     90  CD2       14.5200   40.0260   11.4130 C.3   201  LEU201      0.0001
@<TRIPOS>BOND
     1    30    29    1
     2    31    29    1
     3    42    41    2
     4    41    40    1
     5    35    34    2
     6    29    26    1
     7    38    37    1
     8    38    32    1
     9    37    36    1
    10    36    33    1
    11    34    33    1
    12    34    39   am
    13    32    33    1
    14    32    27   am
    15    26    27    1
    16    26    25    1
    17    40    39    1
    18    40    43    1
    19     8     7    1
    20     8     9    1
    21    27    28    2
    22     7     6    1
    23    43    44    1
    24    25    19   am
    25    24    23    1
    26    20    19    2
    27     6     5    1
    28    22    23    1
    29    22    21    1
    30     1     2    1
    31    19    18    1
    32     5     2    1
    33    10    11    1
    34    44    45   ar
    35    44    46   ar
    36     2     3    1
    37    68    69    1
    38    21    18    1
    39    18    17    1
    40    16    14    1
    41    11    14    1
    42    11    12    1
    43     3     4    2
    44    72    69    1
    45    72    73    1
    46    69    70    1
    47    77    76    1
    48    74    73    1
    49    74    75    1
    50    14    15    1
    51    76    75    2
    52    76    78    1
    53    12    13    2
    54    89    88    1
    55    58    57    1
    56    70    71    2
    57    57    54    1
    58    90    88    1
    59    88    87    1
    60    56    55    2
    61    54    55    1
    62    54    53    1
    63    55    59   am
    64    87    84    1
    65    53    49   am
    66    67    65   am
    67    60    59    1
    68    60    63    1
    69    60    61    1
    70    64    63    1
    71    64    65    1
    72    65    66    2
    73    84    83    1
    74    84    85    1
    75    61    62    2
    76    49    48    1
    77    49    50    2
    78    83    81   am
    79    79    80    1
    80    52    51    1
    81    48    51    1
    82    48    47    1
    83    85    86    2
    84    81    82    2
    85    81    80    1
