@<TRIPOS>MOLECULE
tmp/5aoiB01.pdb
 120 119 0 0 0
SMALL
GASTEIGER

@<TRIPOS>ATOM
      1  N        125.5190  101.5110  -35.9690 N.3    51  LEU51      -0.1245
      2  CA       126.5340  101.6920  -37.0010 C.3    51  LEU51       0.1561
      3  C        126.4160  103.0930  -37.5810 C.2    51  LEU51       0.2260
      4  O        125.3660  103.4570  -38.1040 O.2    51  LEU51      -0.2867
      5  CB       126.3820  100.6660  -38.1320 C.3    51  LEU51       0.0270
      6  CG       126.2220   99.2050  -37.7070 C.3    51  LEU51       0.0019
      7  CD1      126.0870   98.3470  -38.9750 C.3    51  LEU51       0.0001
      8  CD2      127.4020   98.7390  -36.8530 C.3    51  LEU51       0.0001
      9  N        128.1010  105.9600  -40.2940 N.3    53  VAL53      -0.1231
     10  CA       129.0130  106.2090  -41.3960 C.3    53  VAL53       0.1692
     11  C        128.8720  107.6400  -41.9070 C.2    53  VAL53       0.2592
     12  O        127.8020  108.2190  -41.8250 O.2    53  VAL53      -0.2718
     13  CB       128.7760  105.2240  -42.5630 C.3    53  VAL53       0.0266
     14  CG1      129.2260  103.8180  -42.1670 C.3    53  VAL53       0.0020
     15  CG2      127.3130  105.2020  -42.9610 C.3    53  VAL53       0.0020
     16  N        129.9550  108.1880  -42.4370 N.am   54  ASP54      -0.1960
     17  CA       129.9150  109.5260  -43.0520 C.3    54  ASP54       0.1840
     18  C        129.3200  109.5110  -44.4540 C.2    54  ASP54       0.2623
     19  O        128.7530  110.5040  -44.9190 O.2    54  ASP54      -0.2715
     20  CB       131.3160  110.1240  -43.1070 C.3    54  ASP54       0.1450
     21  CG       131.8460  110.4850  -41.7430 C.2    54  ASP54       0.3671
     22  OD1      131.0220  110.7910  -40.8560 O.co2  54  ASP54      -0.2456
     23  OD2      133.0820  110.4690  -41.5610 O.co2  54  ASP54      -0.2456
     24  N        129.4720  108.3950  -45.1510 N.am   55  SER55      -0.1936
     25  CA       128.8840  108.2720  -46.4800 C.3    55  SER55       0.2055
     26  C        128.3260  106.8660  -46.6670 C.2    55  SER55       0.2644
     27  O        128.7540  105.9250  -46.0060 O.2    55  SER55      -0.2714
     28  CB       129.8990  108.6010  -47.5760 C.3    55  SER55       0.2130
     29  OG       131.1310  107.9420  -47.3690 O.3    55  SER55      -0.2179
     30  N        127.3580  106.7390  -47.5610 N.am   56  THR56      -0.1937
     31  CA       126.6450  105.4840  -47.7290 C.3    56  THR56       0.2013
     32  C        127.4980  104.4480  -48.4590 C.2    56  THR56       0.2484
     33  O        127.9760  104.6930  -49.5600 O.2    56  THR56      -0.2729
     34  CB       125.3470  105.7140  -48.4930 C.3    56  THR56       0.1807
     35  OG1      124.5960  106.7480  -47.8400 O.3    56  THR56      -0.2208
     36  CG2      124.5290  104.4470  -48.5550 C.3    56  THR56       0.0379
     37  N        127.7100  103.2890  -47.8290 N.am   57  PRO57      -0.2715
     38  CA       128.4320  102.1930  -48.4740 C.3    57  PRO57       0.1521
     39  C        127.5590  101.4960  -49.5210 C.2    57  PRO57       0.2440
     40  O        126.3350  101.6490  -49.5160 O.2    57  PRO57      -0.2731
     41  CB       128.7590  101.2570  -47.3050 C.3    57  PRO57       0.0310
     42  CG       127.6580  101.4790  -46.3680 C.3    57  PRO57       0.0237
     43  CD       127.3250  102.9500  -46.4480 C.3    57  PRO57       0.0939
     44  N        128.1870  100.7300  -50.4210 N.am   58  PRO58      -0.2717
     45  CA       127.4870  100.0790  -51.5320 C.3    58  PRO58       0.1521
     46  C        126.5030   98.9930  -51.1120 C.2    58  PRO58       0.2440
     47  O        126.6600   98.3990  -50.0390 O.2    58  PRO58      -0.2731
     48  CB       128.6310   99.4600  -52.3410 C.3    58  PRO58       0.0310
     49  CG       129.8090  100.2620  -52.0110 C.3    58  PRO58       0.0237
     50  CD       129.6480  100.6290  -50.5660 C.3    58  PRO58       0.0939
     51  N        125.4890   98.7300  -51.9520 N.am   59  PRO59      -0.2716
     52  CA       124.6140   97.5850  -51.7120 C.3    59  PRO59       0.1536
     53  C        125.4630   96.3170  -51.6170 C.2    59  PRO59       0.2599
     54  O        126.3930   96.1410  -52.4100 O.2    59  PRO59      -0.2715
     55  CB       123.7000   97.5660  -52.9440 C.3    59  PRO59       0.0310
     56  CG       123.7300   98.9850  -53.4500 C.3    59  PRO59       0.0237
     57  CD       125.1190   99.4650  -53.1810 C.3    59  PRO59       0.0939
     58  N        125.1680   95.4700  -50.6380 N.am   60  GLY60      -0.1941
     59  CA       125.9420   94.2570  -50.4400 C.3    60  GLY60       0.2014
     60  C        126.9810   94.3660  -49.3350 C.2    60  GLY60       0.2639
     61  O        127.5960   93.3810  -48.9480 O.2    60  GLY60      -0.2714
     62  N        127.1900   95.5760  -48.8320 N.am   61  THR61      -0.1950
     63  CA       128.0430   95.7600  -47.6670 C.3    61  THR61       0.1897
     64  C        127.4580   94.9950  -46.4950 C.2    61  THR61       0.2313
     65  O        126.2440   94.9690  -46.3310 O.2    61  THR61      -0.2863
     66  CB       128.1640   97.2560  -47.3190 C.3    61  THR61       0.1794
     67  OG1      128.7450   97.9480  -48.4300 O.3    61  THR61      -0.2208
     68  CG2      129.0430   97.4680  -46.0980 C.3    61  THR61       0.0378
     69  N        124.1900   95.0680  -44.2610 N.3   126  CYS126     -0.1221
     70  CA       123.9110   96.4190  -43.7890 C.3   126  CYS126      0.1808
     71  C        122.6920   96.9710  -44.4910 C.2   126  CYS126      0.2601
     72  O        122.5430   96.8340  -45.7100 O.2   126  CYS126     -0.2717
     73  CB       125.1010   97.3280  -44.0260 C.3   126  CYS126      0.0970
     74  SG       126.5000   96.8250  -43.0720 S.3   126  CYS126     -0.0800
     75  N        121.8150   97.5830  -43.7090 N.am  127  GLU127     -0.1966
     76  CA       120.6220   98.2050  -44.2480 C.3   127  GLU127      0.1718
     77  C        120.6790   99.6940  -43.9530 C.2   127  GLU127      0.2458
     78  O        121.3910  100.1190  -43.0330 O.2   127  GLU127     -0.2730
     79  CB       119.3560   97.5850  -43.6460 C.3   127  GLU127      0.0428
     80  CG       119.0560   96.1740  -44.1030 C.3   127  GLU127      0.1163
     81  CD       118.3350   95.3680  -43.0430 C.2   127  GLU127      0.3649
     82  OE1      118.5570   95.6280  -41.8370 O.co2 127  GLU127     -0.2457
     83  OE2      117.5410   94.4740  -43.4120 O.co2 127  GLU127     -0.2457
     84  N        119.9510  100.4920  -44.7490 N.am  128  PRO128     -0.2716
     85  CA       119.7910  101.9160  -44.4600 C.3   128  PRO128      0.1521
     86  C        119.0310  102.1240  -43.1540 C.2   128  PRO128      0.2440
     87  O        118.2350  101.2720  -42.7680 O.2   128  PRO128     -0.2731
     88  CB       118.9780  102.4310  -45.6550 C.3   128  PRO128      0.0310
     89  CG       119.1940  101.4150  -46.7390 C.3   128  PRO128      0.0237
     90  CD       119.2960  100.1110  -46.0150 C.3   128  PRO128      0.0939
     91  N        119.2780  103.2520  -42.4740 N.am  129  PRO129     -0.2727
     92  CA       118.5570  103.5950  -41.2470 C.3   129  PRO129      0.1402
     93  C        117.0440  103.6180  -41.4630 C.2   129  PRO129      0.2269
     94  O        116.5900  103.9910  -42.5420 O.2   129  PRO129     -0.2865
     95  CB       119.0820  104.9920  -40.9140 C.3   129  PRO129      0.0296
     96  CG       120.4300  105.0380  -41.5170 C.3   129  PRO129      0.0237
     97  CD       120.3350  104.2240  -42.7830 C.3   129  PRO129      0.0939
     98  N        119.2590  108.2920  -37.8960 N.3   134  ASP134     -0.1239
     99  CA       120.4870  108.6820  -38.5840 C.3   134  ASP134      0.1674
    100  C        121.5220  107.5590  -38.6380 C.2   134  ASP134      0.2266
    101  O        122.5830  107.7030  -39.2420 O.2   134  ASP134     -0.2867
    102  CB       121.0940  109.9080  -37.9030 C.3   134  ASP134      0.1410
    103  CG       120.3350  111.1850  -38.2260 C.2   134  ASP134      0.3668
    104  OD1      119.8280  111.3040  -39.3610 O.co2 134  ASP134     -0.2456
    105  OD2      120.2430  112.0640  -37.3420 O.co2 134  ASP134     -0.2456
    106  N        122.1660  102.9440  -38.4010 N.3   136  THR136     -0.1218
    107  CA       121.6120  101.6000  -38.4540 C.3   136  THR136      0.1862
    108  C        121.9280  100.8800  -37.1510 C.2   136  THR136      0.2287
    109  O        123.0250  101.0220  -36.6080 O.2   136  THR136     -0.2866
    110  CB       122.1760  100.8130  -39.6350 C.3   136  THR136      0.1770
    111  OG1      122.1410  101.6400  -40.8060 O.3   136  THR136     -0.2211
    112  CG2      121.3570   99.5440  -39.8670 C.3   136  THR136      0.0375
    113  N        133.1340   96.2400  -40.8340 N.3   163  LEU163     -0.1245
    114  CA       132.3410   96.5830  -41.9910 C.3   163  LEU163      0.1561
    115  C        133.0760   95.9650  -43.1740 C.2   163  LEU163      0.2260
    116  O        134.2950   96.1480  -43.3040 O.2   163  LEU163     -0.2867
    117  CB       132.2160   98.1100  -42.1300 C.3   163  LEU163      0.0270
    118  CG       131.2100   98.5570  -43.1860 C.3   163  LEU163      0.0019
    119  CD1      129.8010   98.2650  -42.6830 C.3   163  LEU163      0.0001
    120  CD2      131.4000  100.0620  -43.4930 C.3   163  LEU163      0.0001
@<TRIPOS>BOND
     1    56    57    1
     2    56    55    1
     3    57    51    1
     4    55    52    1
     5    54    53    2
     6    48    49    1
     7    48    45    1
     8    49    50    1
     9    51    52    1
    10    51    46   am
    11    52    53    1
    12    53    58   am
    13    45    46    1
    14    45    44    1
    15    46    47    2
    16    58    59    1
    17    50    44    1
    18    59    60    1
    19    44    39   am
    20    33    32    2
    21    39    40    2
    22    39    38    1
    23    60    61    2
    24    60    62   am
    25    62    63    1
    26    36    34    1
    27    34    35    1
    28    34    31    1
    29    38    37    1
    30    38    41    1
    31    32    37   am
    32    32    31    1
    33    67    66    1
    34    37    43    1
    35    31    30    1
    36    63    66    1
    37    63    64    1
    38    28    29    1
    39    28    25    1
    40    30    26   am
    41    66    68    1
    42    41    42    1
    43    89    90    1
    44    89    88    1
    45    26    25    1
    46    26    27    2
    47    64    65    2
    48    25    24    1
    49    43    42    1
    50    90    84    1
    51    72    71    2
    52    88    85    1
    53    24    18   am
    54    19    18    2
    55    84    85    1
    56    84    77   am
    57    71    70    1
    58    71    75   am
    59    85    86    1
    60    18    17    1
    61    69    70    1
    62    76    77    1
    63    76    75    1
    64    76    79    1
    65    80    79    1
    66    80    81    1
    67    73    70    1
    68    73    74    1
    69    77    78    2
    70   120   118    1
    71    83    81   ar
    72   116   115    2
    73   118   119    1
    74   118   117    1
    75   115   114    1
    76    86    87    2
    77    86    91   am
    78    20    17    1
    79    20    21    1
    80    17    16    1
    81    81    82   ar
    82    15    13    1
    83    97    91    1
    84    97    96    1
    85    13    14    1
    86    13    10    1
    87    94    93    2
    88    91    92    1
    89    16    11   am
    90   117   114    1
    91   114   113    1
    92    11    12    2
    93    11    10    1
    94    21    23   ar
    95    21    22   ar
    96    96    95    1
    97    93    92    1
    98    10     9    1
    99    92    95    1
   100   111   110    1
   101   112   110    1
   102   110   107    1
   103   104   103   ar
   104   101   100    2
   105     7     6    1
   106   100    99    1
   107    99   102    1
   108    99    98    1
   109   107   106    1
   110   107   108    1
   111   103   102    1
   112   103   105   ar
   113     5     6    1
   114     5     2    1
   115     4     3    2
   116     6     8    1
   117     3     2    1
   118   108   109    2
   119     2     1    1
