@<TRIPOS>MOLECULE
tmp/5aokB01.pdb
 123 121 0 0 0
SMALL
GASTEIGER

@<TRIPOS>ATOM
      1  N        133.7020  104.6760  -41.0570 N.3    16  PHE16      -0.1241
      2  CA       132.9900  103.7060  -40.2370 C.3    16  PHE16       0.1605
      3  C        133.3860  103.7510  -38.7630 C.2    16  PHE16       0.2264
      4  O        134.5740  103.7030  -38.4280 O.2    16  PHE16      -0.2867
      5  CB       133.2400  102.2950  -40.7780 C.3    16  PHE16       0.0534
      6  CG       132.5990  101.2130  -39.9590 C.ar   16  PHE16      -0.0203
      7  CD1      131.2250  101.0390  -39.9880 C.ar   16  PHE16      -0.0042
      8  CD2      133.3690  100.3590  -39.1780 C.ar   16  PHE16      -0.0042
      9  CE1      130.6210  100.0360  -39.2420 C.ar   16  PHE16      -0.0003
     10  CE2      132.7720   99.3500  -38.4200 C.ar   16  PHE16      -0.0003
     11  CZ       131.3960   99.1880  -38.4610 C.ar   16  PHE16      -0.0000
     12  N        125.7500  101.6150  -36.1190 N.3    52  LEU52      -0.1245
     13  CA       126.7550  101.5530  -37.1670 C.3    52  LEU52       0.1561
     14  C        126.7660  102.8930  -37.9000 C.2    52  LEU52       0.2260
     15  O        125.8410  103.2010  -38.6440 O.2    52  LEU52      -0.2867
     16  CB       126.4560  100.3850  -38.1210 C.3    52  LEU52       0.0270
     17  CG       126.2650   99.0370  -37.4030 C.3    52  LEU52       0.0019
     18  CD1      125.6670   98.0010  -38.3250 C.3    52  LEU52       0.0001
     19  CD2      127.5940   98.5580  -36.7990 C.3    52  LEU52       0.0001
     20  N        128.4250  105.8000  -40.4880 N.3    54  VAL54      -0.1245
     21  CA       129.3210  106.0740  -41.6110 C.3    54  VAL54       0.1561
     22  C        129.1650  107.5190  -42.0550 C.2    54  VAL54       0.2260
     23  O        128.0970  108.0920  -41.9070 O.2    54  VAL54      -0.2867
     24  CB       129.0520  105.1570  -42.8330 C.3    54  VAL54       0.0252
     25  CG1      129.4760  103.7200  -42.5240 C.3    54  VAL54       0.0019
     26  CG2      127.5880  105.2280  -43.2420 C.3    54  VAL54       0.0019
     27  N        127.6770  106.5850  -47.6930 N.3    57  THR57      -0.1204
     28  CA       126.9300  105.3570  -47.9310 C.3    57  THR57       0.1979
     29  C        127.7910  104.3180  -48.6450 C.2    57  THR57       0.2460
     30  O        128.3220  104.5850  -49.7220 O.2    57  THR57      -0.2732
     31  CB       125.6780  105.6330  -48.7810 C.3    57  THR57       0.1783
     32  OG1      124.9120  106.6800  -48.1720 O.3    57  THR57      -0.2211
     33  CG2      124.8260  104.3800  -48.9240 C.3    57  THR57       0.0376
     34  N        127.9460  103.1280  -48.0490 N.am   58  PRO58      -0.2718
     35  CA       128.7150  102.0720  -48.7180 C.3    58  PRO58       0.1520
     36  C        127.8810  101.3480  -49.7800 C.2    58  PRO58       0.2440
     37  O        126.6570  101.5060  -49.8170 O.2    58  PRO58      -0.2731
     38  CB       129.0810  101.1330  -47.5670 C.3    58  PRO58       0.0310
     39  CG       127.9260  101.2520  -46.6360 C.3    58  PRO58       0.0237
     40  CD       127.4530  102.6980  -46.7260 C.3    58  PRO58       0.0939
     41  N        128.5380  100.5680  -50.6510 N.am   59  PRO59      -0.2717
     42  CA       127.8140   99.9230  -51.7560 C.3    59  PRO59       0.1521
     43  C        126.8430   98.8430  -51.3080 C.2    59  PRO59       0.2440
     44  O        127.0370   98.2380  -50.2490 O.2    59  PRO59      -0.2731
     45  CB       128.9350   99.2940  -52.5890 C.3    59  PRO59       0.0310
     46  CG       130.1420  100.0930  -52.2700 C.3    59  PRO59       0.0237
     47  CD       129.9970  100.4760  -50.8250 C.3    59  PRO59       0.0939
     48  N        125.8130   98.5710  -52.1230 N.am   60  PRO60      -0.2716
     49  CA       124.9570   97.4160  -51.8500 C.3    60  PRO60       0.1536
     50  C        125.8090   96.1540  -51.7690 C.2    60  PRO60       0.2599
     51  O        126.7010   95.9630  -52.5960 O.2    60  PRO60      -0.2715
     52  CB       124.0070   97.3860  -53.0530 C.3    60  PRO60       0.0310
     53  CG       124.0360   98.7760  -53.5980 C.3    60  PRO60       0.0237
     54  CD       125.4320   99.2580  -53.3710 C.3    60  PRO60       0.0939
     55  N        125.5590   95.3080  -50.7770 N.am   61  GLY61      -0.1955
     56  CA       126.3570   94.1020  -50.6400 C.3    61  GLY61       0.1869
     57  C        127.4360   94.2240  -49.5760 C.2    61  GLY61       0.2309
     58  O        128.0680   93.2300  -49.2010 O.2    61  GLY61      -0.2863
     59  N        128.4620   93.6220  -42.3070 N.3    64  VAL64      -0.1245
     60  CA       129.0220   93.9370  -40.9940 C.3    64  VAL64       0.1561
     61  C        129.2060   92.6480  -40.2110 C.2    64  VAL64       0.2260
     62  O        128.2390   91.9040  -40.0130 O.2    64  VAL64      -0.2867
     63  CB       128.1110   94.9000  -40.2020 C.3    64  VAL64       0.0252
     64  CG1      128.6520   95.1300  -38.7910 C.3    64  VAL64       0.0019
     65  CG2      127.9780   96.2180  -40.9340 C.3    64  VAL64       0.0019
     66  N        124.5900   95.0140  -44.7320 N.3   127  CYS127     -0.1221
     67  CA       124.2470   96.4090  -44.4830 C.3   127  CYS127      0.1808
     68  C        122.8850   96.7260  -45.0750 C.2   127  CYS127      0.2601
     69  O        122.5690   96.2830  -46.1850 O.2   127  CYS127     -0.2717
     70  CB       125.2710   97.3560  -45.1080 C.3   127  CYS127      0.0970
     71  SG       126.9150   97.2630  -44.4240 S.3   127  CYS127     -0.0800
     72  N        122.1010   97.5260  -44.3610 N.am  128  GLU128     -0.1966
     73  CA       120.8520   98.0560  -44.8880 C.3   128  GLU128      0.1718
     74  C        120.8840   99.5740  -44.8080 C.2   128  GLU128      0.2458
     75  O        121.6410  100.1360  -44.0170 O.2   128  GLU128     -0.2730
     76  CB       119.6550   97.5020  -44.1130 C.3   128  GLU128      0.0428
     77  CG       119.5150   95.9960  -44.2160 C.3   128  GLU128      0.1163
     78  CD       118.3290   95.4680  -43.4410 C.2   128  GLU128      0.3649
     79  OE1      117.3170   96.1910  -43.3340 O.co2 128  GLU128     -0.2457
     80  OE2      118.4080   94.3300  -42.9360 O.co2 128  GLU128     -0.2457
     81  N        120.0830  100.2480  -45.6460 N.am  129  PRO129     -0.2716
     82  CA       119.9690  101.7000  -45.5040 C.3   129  PRO129      0.1521
     83  C        119.2220  102.0700  -44.2280 C.2   129  PRO129      0.2440
     84  O        118.3530  101.3140  -43.7970 O.2   129  PRO129     -0.2731
     85  CB       119.1600  102.1200  -46.7390 C.3   129  PRO129      0.0310
     86  CG       119.2550  100.9740  -47.6840 C.3   129  PRO129      0.0237
     87  CD       119.3520   99.7520  -46.8240 C.3   129  PRO129      0.0939
     88  N        119.5540  103.2180  -43.6250 N.am  130  PRO130     -0.2727
     89  CA       118.7790  103.6620  -42.4640 C.3   130  PRO130      0.1402
     90  C        117.3250  103.9250  -42.8330 C.2   130  PRO130      0.2269
     91  O        117.0260  104.2920  -43.9700 O.2   130  PRO130     -0.2865
     92  CB       119.4790  104.9580  -42.0460 C.3   130  PRO130      0.0296
     93  CG       120.8650  104.8260  -42.5930 C.3   130  PRO130      0.0237
     94  CD       120.6970  104.1020  -43.8970 C.3   130  PRO130      0.0939
     95  N        119.4240  108.2870  -38.5040 N.3   135  ASP135     -0.1225
     96  CA       120.7100  108.7040  -39.0560 C.3   135  ASP135      0.1805
     97  C        121.7080  107.5540  -39.1620 C.2   135  ASP135      0.2598
     98  O        122.8070  107.7200  -39.6860 O.2   135  ASP135     -0.2718
     99  CB       121.3040  109.8270  -38.2040 C.3   135  ASP135      0.1424
    100  CG       120.4740  111.0950  -38.2560 C.2   135  ASP135      0.3668
    101  OD1      119.8810  111.3700  -39.3190 O.co2 135  ASP135     -0.2456
    102  OD2      120.4130  111.8150  -37.2370 O.co2 135  ASP135     -0.2456
    103  N        121.3250  106.3940  -38.6500 N.am  136  CYS136     -0.1956
    104  CA       122.1720  105.2120  -38.7260 C.3   136  CYS136      0.1843
    105  C        121.3180  103.9770  -38.5510 C.2   136  CYS136      0.2626
    106  O        120.1660  104.0750  -38.1280 O.2   136  CYS136     -0.2714
    107  CB       123.2650  105.2470  -37.6560 C.3   136  CYS136      0.0997
    108  SG       122.6610  105.0120  -35.9600 S.3   136  CYS136     -0.0797
    109  N        121.8770  102.8170  -38.8810 N.am  137  THR137     -0.1950
    110  CA       121.2340  101.5530  -38.5410 C.3   137  THR137      0.1897
    111  C        121.8460  101.0080  -37.2540 C.2   137  THR137      0.2313
    112  O        122.9100  101.4400  -36.8180 O.2   137  THR137     -0.2863
    113  CB       121.3520  100.4960  -39.6750 C.3   137  THR137      0.1794
    114  OG1      122.7180  100.0850  -39.8270 O.3   137  THR137     -0.2208
    115  CG2      120.8300  101.0560  -40.9870 C.3   137  THR137      0.0378
    116  N        133.5020   96.2770  -41.0420 N.3   164  LEU164     -0.1245
    117  CA       132.7380   96.5930  -42.2320 C.3   164  LEU164      0.1561
    118  C        133.4940   95.9510  -43.3910 C.2   164  LEU164      0.2260
    119  O        134.6950   96.1650  -43.5190 O.2   164  LEU164     -0.2867
    120  CB       132.6150   98.1070  -42.4010 C.3   164  LEU164      0.0270
    121  CG       131.6940   98.5810  -43.5260 C.3   164  LEU164      0.0019
    122  CD1      130.2380   98.3360  -43.1530 C.3   164  LEU164      0.0001
    123  CD2      131.9440  100.0530  -43.8390 C.3   164  LEU164      0.0001
@<TRIPOS>BOND
     1    53    54    1
     2    53    52    1
     3    54    48    1
     4    52    49    1
     5    51    50    2
     6    45    46    1
     7    45    42    1
     8    46    47    1
     9    48    49    1
    10    48    43   am
    11    49    50    1
    12    50    55   am
    13    42    43    1
    14    42    41    1
    15    43    44    2
    16    47    41    1
    17    55    56    1
    18    41    36   am
    19    56    57    1
    20    37    36    2
    21    36    35    1
    22    30    29    2
    23    57    58    2
    24    33    31    1
    25    31    32    1
    26    31    28    1
    27    35    34    1
    28    35    38    1
    29    29    34   am
    30    29    28    1
    31    34    40    1
    32    28    27    1
    33    86    87    1
    34    86    85    1
    35    38    39    1
    36    87    81    1
    37    85    82    1
    38    40    39    1
    39    69    68    2
    40    81    82    1
    41    81    74   am
    42    82    83    1
    43    70    67    1
    44    70    71    1
    45    68    67    1
    46    68    72   am
    47    73    74    1
    48    73    72    1
    49    73    76    1
    50    74    75    2
    51    66    67    1
    52    83    84    2
    53    83    88   am
    54    77    76    1
    55    77    78    1
    56    91    90    2
    57    94    88    1
    58    94    93    1
    59   123   121    1
    60    88    89    1
    61   121   122    1
    62   121   120    1
    63   119   118    2
    64    78    79   ar
    65    78    80   ar
    66   118   117    1
    67    26    24    1
    68    24    25    1
    69    24    21    1
    70    90    89    1
    71    93    92    1
    72    89    92    1
    73   120   117    1
    74    59    60    1
    75   117   116    1
    76    22    23    2
    77    22    21    1
    78    21    20    1
    79     1     2    1
    80    60    61    1
    81    60    63    1
    82   115   113    1
    83    65    63    1
    84     5     2    1
    85     5     6    1
    86     2     3    1
    87    61    62    2
    88    63    64    1
    89     7     6   ar
    90     7     9   ar
    91     6     8   ar
    92   114   113    1
    93    98    97    2
    94   113   110    1
    95   101   100   ar
    96     9    11   ar
    97     8    10   ar
    98    97    96    1
    99    97   103   am
   100    96    95    1
   101    96    99    1
   102   109   105   am
   103   109   110    1
   104     3     4    2
   105   104   103    1
   106   104   105    1
   107   104   107    1
   108    15    14    2
   109   105   106    2
   110   110   111    1
   111    11    10   ar
   112    18    17    1
   113   100    99    1
   114   100   102   ar
   115    16    17    1
   116    16    13    1
   117    14    13    1
   118   107   108    1
   119    17    19    1
   120   111   112    2
   121    13    12    1
