@<TRIPOS>MOLECULE
tmp/5aomB00.pdb
 135 136 0 0 0
SMALL
GASTEIGER

@<TRIPOS>ATOM
      1  N        126.0420  101.3790  -35.9950 N.3    51  LEU51      -0.1231
      2  CA       127.0400  101.4290  -37.0510 C.3    51  LEU51       0.1693
      3  C        126.9740  102.7980  -37.7220 C.2    51  LEU51       0.2592
      4  O        125.9650  103.1360  -38.3280 O.2    51  LEU51      -0.2718
      5  CB       126.7950  100.3280  -38.0820 C.3    51  LEU51       0.0284
      6  CG       126.6380   98.9070  -37.5480 C.3    51  LEU51       0.0019
      7  CD1      126.3150   97.9600  -38.7160 C.3    51  LEU51       0.0001
      8  CD2      127.9100   98.4750  -36.8430 C.3    51  LEU51       0.0001
      9  N        128.0480  103.5720  -37.6060 N.am   52  TRP52      -0.1962
     10  CA       128.1220  104.9190  -38.1680 C.3    52  TRP52       0.1771
     11  C        129.1170  105.0080  -39.3110 C.2    52  TRP52       0.2619
     12  O        130.2140  104.4570  -39.2140 O.2    52  TRP52      -0.2715
     13  CB       128.5330  105.9170  -37.0810 C.3    52  TRP52       0.0590
     14  CG       127.5120  106.1160  -35.9930 C.ar   52  TRP52       0.0006
     15  CD1      127.4140  105.4360  -34.8060 C.ar   52  TRP52       0.0946
     16  CD2      126.4630  107.0820  -35.9900 C.ar   52  TRP52       0.0152
     17  NE1      126.3420  105.9070  -34.0780 N.ar   52  TRP52      -0.2442
     18  CE2      125.7470  106.9210  -34.7830 C.ar   52  TRP52       0.0810
     19  CE3      126.0450  108.0580  -36.9010 C.ar   52  TRP52       0.0012
     20  CZ2      124.6450  107.7060  -34.4640 C.ar   52  TRP52       0.0191
     21  CZ3      124.9450  108.8280  -36.5830 C.ar   52  TRP52       0.0001
     22  CH2      124.2570  108.6460  -35.3740 C.ar   52  TRP52       0.0015
     23  N        128.7460  105.7240  -40.3770 N.am   53  VAL53      -0.1963
     24  CA       129.6820  106.0430  -41.4490 C.3    53  VAL53       0.1727
     25  C        129.4820  107.4790  -41.9230 C.2    53  VAL53       0.2616
     26  O        128.3810  108.0180  -41.8220 O.2    53  VAL53      -0.2715
     27  CB       129.5140  105.1020  -42.6640 C.3    53  VAL53       0.0290
     28  CG1      129.9910  103.6960  -42.3270 C.3    53  VAL53       0.0023
     29  CG2      128.0610  105.0810  -43.1240 C.3    53  VAL53       0.0023
     30  N        130.5460  108.0760  -42.4450 N.am   54  ASP54      -0.1957
     31  CA       130.4670  109.3920  -43.0910 C.3    54  ASP54       0.1840
     32  C        129.8010  109.3480  -44.4640 C.2    54  ASP54       0.2623
     33  O        129.1480  110.3080  -44.8780 O.2    54  ASP54      -0.2715
     34  CB       131.8650  109.9910  -43.2290 C.3    54  ASP54       0.1450
     35  CG       132.4610  110.3870  -41.9000 C.2    54  ASP54       0.3671
     36  OD1      131.6950  110.8040  -41.0060 O.co2  54  ASP54      -0.2456
     37  OD2      133.6970  110.2910  -41.7530 O.co2  54  ASP54      -0.2456
     38  N        129.9860  108.2490  -45.1850 N.am   55  SER55      -0.1936
     39  CA       129.3250  108.0800  -46.4750 C.3    55  SER55       0.2055
     40  C        128.8240  106.6430  -46.6590 C.2    55  SER55       0.2644
     41  O        129.3810  105.6980  -46.0940 O.2    55  SER55      -0.2714
     42  CB       130.2650  108.4770  -47.6210 C.3    55  SER55       0.2130
     43  OG       131.5100  107.8160  -47.5330 O.3    55  SER55      -0.2179
     44  N        127.7710  106.4890  -47.4530 N.am   56  THR56      -0.1937
     45  CA       127.1270  105.1900  -47.6090 C.3    56  THR56       0.2013
     46  C        128.0180  104.2210  -48.3920 C.2    56  THR56       0.2484
     47  O        128.4350  104.5310  -49.5060 O.2    56  THR56      -0.2729
     48  CB       125.7730  105.3370  -48.3160 C.3    56  THR56       0.1807
     49  OG1      125.0320  106.3940  -47.6950 O.3    56  THR56      -0.2208
     50  CG2      124.9740  104.0420  -48.2150 C.3    56  THR56       0.0379
     51  N        128.3230  103.0480  -47.8060 N.am   57  PRO57      -0.2715
     52  CA       129.1170  102.0510  -48.5320 C.3    57  PRO57       0.1521
     53  C        128.2600  101.3460  -49.5930 C.2    57  PRO57       0.2440
     54  O        127.0330  101.4870  -49.5720 O.2    57  PRO57      -0.2731
     55  CB       129.5550  101.0760  -47.4230 C.3    57  PRO57       0.0310
     56  CG       128.4470  101.1490  -46.4330 C.3    57  PRO57       0.0237
     57  CD       127.9780  102.5940  -46.4450 C.3    57  PRO57       0.0939
     58  N        128.8960  100.5950  -50.5110 N.am   58  PRO58      -0.2727
     59  CA       128.1780   99.9340  -51.6100 C.3    58  PRO58       0.1402
     60  C        127.1950   98.8420  -51.1890 C.2    58  PRO58       0.2269
     61  O        127.4000   98.1810  -50.1660 O.2    58  PRO58      -0.2865
     62  CB       129.3080   99.3040  -52.4360 C.3    58  PRO58       0.0296
     63  CG       130.5230  100.0700  -52.0920 C.3    58  PRO58       0.0237
     64  CD       130.3560  100.4700  -50.6510 C.3    58  PRO58       0.0939
     65  N        127.9370   95.4140  -49.0220 N.3    61  THR61      -0.1218
     66  CA       128.7620   95.5780  -47.8230 C.3    61  THR61       0.1862
     67  C        128.1700   94.7660  -46.6680 C.2    61  THR61       0.2287
     68  O        126.9480   94.6920  -46.5300 O.2    61  THR61      -0.2866
     69  CB       128.8520   97.0710  -47.4220 C.3    61  THR61       0.1770
     70  OG1      129.3980   97.8220  -48.5130 O.3    61  THR61      -0.2211
     71  CG2      129.7330   97.2710  -46.1910 C.3    61  THR61       0.0375
     72  N        124.8090   94.7830  -44.6280 N.3   126  CYS126     -0.1221
     73  CA       124.4810   96.1490  -44.2490 C.3   126  CYS126      0.1808
     74  C        123.3420   96.6760  -45.0980 C.2   126  CYS126      0.2601
     75  O        123.2220   96.3610  -46.2860 O.2   126  CYS126     -0.2717
     76  CB       125.6830   97.0640  -44.4100 C.3   126  CYS126      0.0970
     77  SG       126.9550   96.7440  -43.2370 S.3   126  CYS126     -0.0800
     78  N        122.4990   97.4790  -44.4780 N.am  127  GLU127     -0.1966
     79  CA       121.4880   98.2140  -45.2040 C.3   127  GLU127      0.1718
     80  C        121.5590   99.6350  -44.6930 C.2   127  GLU127      0.2458
     81  O        121.9440   99.8550  -43.5420 O.2   127  GLU127     -0.2730
     82  CB       120.0980   97.6150  -44.9920 C.3   127  GLU127      0.0428
     83  CG       119.9080   96.2510  -45.6170 C.3   127  GLU127      0.1163
     84  CD       118.5560   95.6630  -45.2890 C.2   127  GLU127      0.3649
     85  OE1      118.1670   95.6970  -44.1000 O.co2 127  GLU127     -0.2457
     86  OE2      117.8800   95.1730  -46.2190 O.co2 127  GLU127     -0.2457
     87  N        121.2250  100.6020  -45.5540 N.am  128  PRO128     -0.2716
     88  CA       121.1970  102.0100  -45.1570 C.3   128  PRO128      0.1521
     89  C        120.1580  102.2450  -44.0700 C.2   128  PRO128      0.2440
     90  O        119.2580  101.4210  -43.8980 O.2   128  PRO128     -0.2731
     91  CB       120.8140  102.7340  -46.4530 C.3   128  PRO128      0.0310
     92  CG       121.1690  101.8010  -47.5360 C.3   128  PRO128      0.0237
     93  CD       120.9320  100.4320  -46.9860 C.3   128  PRO128      0.0939
     94  N        120.2890  103.3550  -43.3290 N.am  129  PRO129     -0.2727
     95  CA       119.3490  103.6710  -42.2550 C.3   129  PRO129      0.1402
     96  C        117.9310  103.8930  -42.7570 C.2   129  PRO129      0.2269
     97  O        117.7330  104.2810  -43.9080 O.2   129  PRO129     -0.2865
     98  CB       119.9100  104.9680  -41.6670 C.3   129  PRO129      0.0296
     99  CG       121.3360  104.9910  -42.0730 C.3   129  PRO129      0.0237
    100  CD       121.3730  104.3460  -43.4180 C.3   129  PRO129      0.0939
    101  N        116.5800  108.3850  -39.5990 N.3   133  SER133     -0.1202
    102  CA       117.6860  107.8600  -38.8050 C.3   133  SER133      0.2020
    103  C        119.0060  108.0790  -39.5330 C.2   133  SER133      0.2619
    104  O        119.0590  108.0160  -40.7640 O.2   133  SER133     -0.2717
    105  CB       117.4850  106.3740  -38.5020 C.3   133  SER133      0.2103
    106  OG       116.3620  106.1710  -37.6630 O.3   133  SER133     -0.2182
    107  N        120.0700  108.3320  -38.7730 N.am  134  ASP134     -0.1959
    108  CA       121.3750  108.6110  -39.3690 C.3   134  ASP134      0.1840
    109  C        122.3610  107.4520  -39.2410 C.2   134  ASP134      0.2622
    110  O        123.4640  107.5010  -39.7800 O.2   134  ASP134     -0.2715
    111  CB       121.9830  109.8630  -38.7450 C.3   134  ASP134      0.1450
    112  CG       121.4020  111.1320  -39.3270 C.2   134  ASP134      0.3671
    113  OD1      121.8560  111.5450  -40.4190 O.co2 134  ASP134     -0.2456
    114  OD2      120.4870  111.7030  -38.6990 O.co2 134  ASP134     -0.2456
    115  N        121.9540  106.4100  -38.5320 N.am  135  CYS135     -0.1954
    116  CA       122.8040  105.2420  -38.3740 C.3   135  CYS135      0.1843
    117  C        121.9580  103.9900  -38.4520 C.2   135  CYS135      0.2626
    118  O        120.7270  104.0690  -38.4920 O.2   135  CYS135     -0.2714
    119  CB       123.5580  105.2870  -37.0430 C.3   135  CYS135      0.0997
    120  SG       122.5230  104.9940  -35.5730 S.3   135  CYS135     -0.0797
    121  N        122.6090  102.8330  -38.4860 N.am  136  THR136     -0.1950
    122  CA       121.8750  101.5820  -38.3580 C.3   136  THR136      0.1897
    123  C        122.3210  100.8950  -37.0800 C.2   136  THR136      0.2313
    124  O        123.3590  101.2350  -36.5030 O.2   136  THR136     -0.2863
    125  CB       122.0820  100.6540  -39.5600 C.3   136  THR136      0.1794
    126  OG1      123.4400  100.2250  -39.5930 O.3   136  THR136     -0.2208
    127  CG2      121.7490  101.3810  -40.8410 C.3   136  THR136      0.0378
    128  N        133.7940   96.0990  -40.9350 N.3   163  LEU163     -0.1245
    129  CA       133.0130   96.4230  -42.1190 C.3   163  LEU163      0.1561
    130  C        133.7550   95.7850  -43.2980 C.2   163  LEU163      0.2260
    131  O        134.9780   95.9420  -43.4170 O.2   163  LEU163     -0.2867
    132  CB       132.8790   97.9430  -42.2850 C.3   163  LEU163      0.0270
    133  CG       131.8690   98.4150  -43.3320 C.3   163  LEU163      0.0019
    134  CD1      130.4470   98.1320  -42.8630 C.3   163  LEU163      0.0001
    135  CD2      132.0620   99.9030  -43.6440 C.3   163  LEU163      0.0001
@<TRIPOS>BOND
     1    62    63    1
     2    62    59    1
     3    63    64    1
     4    59    60    1
     5    59    58    1
     6    60    61    2
     7    64    58    1
     8    58    53   am
     9    53    54    2
    10    53    52    1
    11    47    46    2
    12    65    66    1
    13    52    51    1
    14    52    55    1
    15    70    69    1
    16    46    51   am
    17    46    45    1
    18    48    50    1
    19    48    49    1
    20    48    45    1
    21    66    69    1
    22    66    67    1
    23    51    57    1
    24    42    43    1
    25    42    39    1
    26    45    44    1
    27    92    93    1
    28    92    91    1
    29    44    40   am
    30    55    56    1
    31    69    71    1
    32    93    87    1
    33    67    68    2
    34    40    39    1
    35    40    41    2
    36    39    38    1
    37    91    88    1
    38    57    56    1
    39    75    74    2
    40    86    84   ar
    41    83    84    1
    42    83    82    1
    43    87    88    1
    44    87    80   am
    45    84    85   ar
    46    79    82    1
    47    79    80    1
    48    79    78    1
    49    38    32   am
    50    88    89    1
    51    74    78   am
    52    74    73    1
    53    33    32    2
    54    80    81    2
    55    72    73    1
    56    32    31    1
    57    76    73    1
    58    76    77    1
    59    89    90    2
    60    89    94   am
    61    97    96    2
    62   135   133    1
    63   100    94    1
    64   100    99    1
    65   131   130    2
    66   133   134    1
    67   133   132    1
    68    94    95    1
    69   130   129    1
    70    34    31    1
    71    34    35    1
    72    29    27    1
    73    31    30    1
    74    96    95    1
    75    27    28    1
    76    27    24    1
    77    30    25   am
    78   132   129    1
    79    95    98    1
    80   129   128    1
    81    99    98    1
    82    25    26    2
    83    25    24    1
    84    35    37   ar
    85    35    36   ar
    86    24    23    1
    87   127   125    1
    88   104   103    2
    89   113   112   ar
    90    23    11   am
    91   110   109    2
    92   101   102    1
    93   126   125    1
    94   125   122    1
    95   103   102    1
    96   103   107   am
    97   108   109    1
    98   108   107    1
    99   108   111    1
   100   112   111    1
   101   112   114   ar
   102    11    12    2
   103    11    10    1
   104   109   115   am
   105   102   105    1
   106     7     6    1
   107   115   116    1
   108   105   106    1
   109   118   117    2
   110   121   117   am
   111   121   122    1
   112   117   116    1
   113   116   119    1
   114   122   123    1
   115     4     3    2
   116    10     9    1
   117    10    13    1
   118     5     6    1
   119     5     2    1
   120     3     9   am
   121     3     2    1
   122     6     8    1
   123    13    14    1
   124   123   124    2
   125     2     1    1
   126   119   120    1
   127    19    21   ar
   128    19    16   ar
   129    21    22   ar
   130    14    16   ar
   131    14    15   ar
   132    16    18   ar
   133    22    20   ar
   134    15    17   ar
   135    18    20   ar
   136    18    17   ar
