@<TRIPOS>MOLECULE
tmp/5aomB01.pdb
 79 81 0 0 0
SMALL
GASTEIGER

@<TRIPOS>ATOM
      1  N        127.7710  106.4890  -47.4530 N.3    56  THR56      -0.1204
      2  CA       127.1270  105.1900  -47.6090 C.3    56  THR56       0.1979
      3  C        128.0180  104.2210  -48.3920 C.2    56  THR56       0.2460
      4  O        128.4350  104.5310  -49.5060 O.2    56  THR56      -0.2732
      5  CB       125.7730  105.3370  -48.3160 C.3    56  THR56       0.1783
      6  OG1      125.0320  106.3940  -47.6950 O.3    56  THR56      -0.2211
      7  CG2      124.9740  104.0420  -48.2150 C.3    56  THR56       0.0376
      8  N        128.3230  103.0480  -47.8060 N.am   57  PRO57      -0.2718
      9  CA       129.1170  102.0510  -48.5320 C.3    57  PRO57       0.1520
     10  C        128.2600  101.3460  -49.5930 C.2    57  PRO57       0.2440
     11  O        127.0330  101.4870  -49.5720 O.2    57  PRO57      -0.2731
     12  CB       129.5550  101.0760  -47.4230 C.3    57  PRO57       0.0310
     13  CG       128.4470  101.1490  -46.4330 C.3    57  PRO57       0.0237
     14  CD       127.9780  102.5940  -46.4450 C.3    57  PRO57       0.0939
     15  N        128.8960  100.5950  -50.5110 N.am   58  PRO58      -0.2717
     16  CA       128.1780   99.9340  -51.6100 C.3    58  PRO58       0.1521
     17  C        127.1950   98.8420  -51.1890 C.2    58  PRO58       0.2440
     18  O        127.4000   98.1810  -50.1660 O.2    58  PRO58      -0.2731
     19  CB       129.3080   99.3040  -52.4360 C.3    58  PRO58       0.0310
     20  CG       130.5230  100.0700  -52.0920 C.3    58  PRO58       0.0237
     21  CD       130.3560  100.4700  -50.6510 C.3    58  PRO58       0.0939
     22  N        126.1460   98.6260  -51.9970 N.am   59  PRO59      -0.2716
     23  CA       125.3030   97.4410  -51.8170 C.3    59  PRO59       0.1536
     24  C        126.1670   96.1760  -51.7690 C.2    59  PRO59       0.2599
     25  O        127.0970   96.0300  -52.5630 O.2    59  PRO59      -0.2715
     26  CB       124.3930   97.4590  -53.0500 C.3    59  PRO59       0.0310
     27  CG       124.3490   98.9340  -53.4570 C.3    59  PRO59       0.0237
     28  CD       125.7230   99.4500  -53.1510 C.3    59  PRO59       0.0939
     29  N        125.8920   95.2930  -50.8210 N.am   60  GLY60      -0.1941
     30  CA       126.7180   94.1080  -50.6750 C.3    60  GLY60       0.2014
     31  C        127.7350   94.2090  -49.5510 C.2    60  GLY60       0.2639
     32  O        128.3540   93.2120  -49.1790 O.2    60  GLY60      -0.2714
     33  N        127.9370   95.4140  -49.0220 N.am   61  THR61      -0.1950
     34  CA       128.7620   95.5780  -47.8230 C.3    61  THR61       0.1897
     35  C        128.1700   94.7660  -46.6680 C.2    61  THR61       0.2313
     36  O        126.9480   94.6920  -46.5300 O.2    61  THR61      -0.2863
     37  CB       128.8520   97.0710  -47.4220 C.3    61  THR61       0.1794
     38  OG1      129.3980   97.8220  -48.5130 O.3    61  THR61      -0.2208
     39  CG2      129.7330   97.2710  -46.1910 C.3    61  THR61       0.0378
     40  N        119.1330   86.8240  -42.2120 N.3   108  ARG108     -0.1245
     41  CA       120.2200   86.8010  -43.1770 C.3   108  ARG108      0.1563
     42  C        121.5780   86.6600  -42.4900 C.2   108  ARG108      0.2260
     43  O        122.6120   86.7080  -43.1460 O.2   108  ARG108     -0.2867
     44  CB       120.1790   88.0580  -44.0560 C.3   108  ARG108      0.0307
     45  CG       118.9770   88.0770  -45.0100 C.3   108  ARG108      0.0489
     46  CD       119.1750   89.0560  -46.1560 C.3   108  ARG108      0.2205
     47  NE       119.0480   90.4340  -45.7020 N.pl3 108  ARG108     -0.0865
     48  CZ       119.5160   91.4920  -46.3600 C.cat 108  ARG108      0.5346
     49  NH1      120.1570   91.3400  -47.5150 N.pl3 108  ARG108      0.1354
     50  NH2      119.3480   92.7040  -45.8530 N.pl3 108  ARG108      0.1354
     51  N        124.3220   91.3330  -43.7170 N.3   125  PRO125     -0.2102
     52  CA       124.3850   92.3950  -44.7260 C.3   125  PRO125      0.1504
     53  C        124.1400   93.7610  -44.1120 C.2   125  PRO125      0.2576
     54  O        123.3470   93.8850  -43.1840 O.2   125  PRO125     -0.2718
     55  CB       123.2450   92.0370  -45.6980 C.3   125  PRO125      0.0282
     56  CG       122.9720   90.5890  -45.4660 C.3   125  PRO125      0.0208
     57  CD       123.2550   90.3530  -44.0020 C.3   125  PRO125      0.0893
     58  N        124.8090   94.7830  -44.6280 N.am  126  CYS126     -0.1957
     59  CA       124.4810   96.1490  -44.2490 C.3   126  CYS126      0.1843
     60  C        123.3420   96.6760  -45.0980 C.2   126  CYS126      0.2625
     61  O        123.2220   96.3610  -46.2860 O.2   126  CYS126     -0.2714
     62  CB       125.6830   97.0640  -44.4100 C.3   126  CYS126      0.0997
     63  SG       126.9550   96.7440  -43.2370 S.3   126  CYS126     -0.0797
     64  N        122.4990   97.4790  -44.4780 N.am  127  GLU127     -0.1964
     65  CA       121.4880   98.2140  -45.2040 C.3   127  GLU127      0.1718
     66  C        121.5590   99.6350  -44.6930 C.2   127  GLU127      0.2458
     67  O        121.9440   99.8550  -43.5420 O.2   127  GLU127     -0.2730
     68  CB       120.0980   97.6150  -44.9920 C.3   127  GLU127      0.0428
     69  CG       119.9080   96.2510  -45.6170 C.3   127  GLU127      0.1163
     70  CD       118.5560   95.6630  -45.2890 C.2   127  GLU127      0.3649
     71  OE1      118.1670   95.6970  -44.1000 O.co2 127  GLU127     -0.2457
     72  OE2      117.8800   95.1730  -46.2190 O.co2 127  GLU127     -0.2457
     73  N        121.2250  100.6020  -45.5540 N.am  128  PRO128     -0.2727
     74  CA       121.1970  102.0100  -45.1570 C.3   128  PRO128      0.1402
     75  C        120.1580  102.2450  -44.0700 C.2   128  PRO128      0.2269
     76  O        119.2580  101.4210  -43.8980 O.2   128  PRO128     -0.2865
     77  CB       120.8140  102.7340  -46.4530 C.3   128  PRO128      0.0296
     78  CG       121.1690  101.8010  -47.5360 C.3   128  PRO128      0.0237
     79  CD       120.9320  100.4320  -46.9860 C.3   128  PRO128      0.0939
@<TRIPOS>BOND
     1    27    28    1
     2    27    26    1
     3    28    22    1
     4    26    23    1
     5    25    24    2
     6    19    20    1
     7    19    16    1
     8    20    21    1
     9    22    23    1
    10    22    17   am
    11    23    24    1
    12    24    29   am
    13    16    17    1
    14    16    15    1
    15    17    18    2
    16    29    30    1
    17    30    31    1
    18    21    15    1
    19    15    10   am
    20    10    11    2
    21    10     9    1
    22    31    32    2
    23    31    33   am
    24     4     3    2
    25    33    34    1
    26     9     8    1
    27     9    12    1
    28    38    37    1
    29     3     8   am
    30     3     2    1
    31     5     7    1
    32     5     6    1
    33     5     2    1
    34    34    37    1
    35    34    35    1
    36     8    14    1
    37     2     1    1
    38    78    79    1
    39    78    77    1
    40    49    48    1
    41    12    13    1
    42    37    39    1
    43    79    73    1
    44    35    36    2
    45    77    74    1
    46    14    13    1
    47    48    50    1
    48    48    47    2
    49    61    60    2
    50    72    70   ar
    51    46    47    1
    52    46    45    1
    53    55    56    1
    54    55    52    1
    55    69    70    1
    56    69    68    1
    57    73    74    1
    58    73    66   am
    59    56    57    1
    60    70    71   ar
    61    65    68    1
    62    65    66    1
    63    65    64    1
    64    74    75    1
    65    60    64   am
    66    60    59    1
    67    45    44    1
    68    52    53    1
    69    52    51    1
    70    66    67    2
    71    58    59    1
    72    58    53   am
    73    62    59    1
    74    62    63    1
    75    53    54    2
    76    75    76    2
    77    44    41    1
    78    57    51    1
    79    41    42    1
    80    41    40    1
    81    43    42    2
