@<TRIPOS>MOLECULE
tmp/5aorB00.pdb
 176 165 0 0 0
SMALL
GASTEIGER

@<TRIPOS>ATOM
      1  N        136.5990  114.7220  191.6110 N.3   214  PHE214     -0.1241
      2  CA       137.0570  114.1280  192.8580 C.3   214  PHE214      0.1605
      3  C        136.9950  112.5850  192.7950 C.2   214  PHE214      0.2264
      4  O        137.9480  111.8950  193.1590 O.2   214  PHE214     -0.2867
      5  CB       136.2380  114.6380  194.0710 C.3   214  PHE214      0.0534
      6  CG       136.6360  113.9730  195.3590 C.ar  214  PHE214     -0.0203
      7  CD1      137.7220  114.4460  196.0950 C.ar  214  PHE214     -0.0042
      8  CD2      135.9910  112.8300  195.7970 C.ar  214  PHE214     -0.0042
      9  CE1      138.1290  113.8090  197.2670 C.ar  214  PHE214     -0.0003
     10  CE2      136.4060  112.1770  196.9420 C.ar  214  PHE214     -0.0003
     11  CZ       137.4660  112.6660  197.6850 C.ar  214  PHE214     -0.0000
     12  N        139.7840  108.5470  193.2230 N.3   218  LEU218     -0.1245
     13  CA       139.7820  107.4660  194.2170 C.3   218  LEU218      0.1561
     14  C        140.5040  106.2060  193.6810 C.2   218  LEU218      0.2260
     15  O        140.4140  105.9060  192.4800 O.2   218  LEU218     -0.2867
     16  CB       138.3350  107.0970  194.6230 C.3   218  LEU218      0.0270
     17  CG       137.5420  108.2150  195.3280 C.3   218  LEU218      0.0019
     18  CD1      136.0720  107.8650  195.4430 C.3   218  LEU218      0.0001
     19  CD2      138.1260  108.5290  196.6940 C.3   218  LEU218      0.0001
     20  N        140.8040   99.8060  203.0810 N.3   243  THR243     -0.1203
     21  CA       139.9510  100.7320  203.7720 C.3   243  THR243      0.1994
     22  C        140.0920  102.0940  203.0950 C.2   243  THR243      0.2618
     23  O        141.1710  102.5410  202.7490 O.2   243  THR243     -0.2717
     24  CB       140.3030  100.8530  205.2560 C.3   243  THR243      0.1784
     25  OG1      141.6790  101.1930  205.3950 O.3   243  THR243     -0.2211
     26  CG2      139.9960   99.5710  205.9470 C.3   243  THR243      0.0376
     27  N        138.9590  102.6520  202.7900 N.am  244  GLY244     -0.1942
     28  CA       138.9020  103.9230  202.1430 C.3   244  GLY244      0.2014
     29  C        139.0930  104.0040  200.6650 C.2   244  GLY244      0.2639
     30  O        139.0030  105.0870  200.1230 O.2   244  GLY244     -0.2714
     31  N        139.2400  102.8650  200.0060 N.am  245  CYS245     -0.1953
     32  CA       139.5560  102.8700  198.5940 C.3   245  CYS245      0.1843
     33  C        138.3800  103.2790  197.7270 C.2   245  CYS245      0.2626
     34  O        138.5860  103.6910  196.5770 O.2   245  CYS245     -0.2714
     35  CB       140.1270  101.5170  198.1680 C.3   245  CYS245      0.0997
     36  SG       138.9130  100.2060  198.0390 S.3   245  CYS245     -0.0797
     37  N        137.1590  103.1650  198.2560 N.am  246  GLY246     -0.1940
     38  CA       135.9400  103.5650  197.5280 C.3   246  GLY246      0.2014
     39  C        134.8660  102.4960  197.2720 C.2   246  GLY246      0.2639
     40  O        133.9970  102.6880  196.4210 O.2   246  GLY246     -0.2714
     41  N        134.8810  101.3930  198.0120 N.am  247  LYS247     -0.1963
     42  CA       133.9950  100.2680  197.7060 C.3   247  LYS247      0.1728
     43  C        132.5280  100.6540  197.8170 C.2   247  LYS247      0.2617
     44  O        131.7200  100.4160  196.9220 O.2   247  LYS247     -0.2715
     45  CB       134.3090   99.0710  198.6400 C.3   247  LYS247      0.0311
     46  CG       135.7180   98.4990  198.4720 C.3   247  LYS247      0.0038
     47  CD       136.0520   97.3630  199.4580 C.3   247  LYS247      0.0206
     48  CE       136.0180   97.7960  200.9300 C.3   247  LYS247      0.1093
     49  NZ       137.0420   98.8470  201.2480 N.3   247  LYS247     -0.1314
     50  N        132.1720  101.2500  198.9600 N.am  248  THR248     -0.1937
     51  CA       130.7700  101.4880  199.3010 C.3   248  THR248      0.2028
     52  C        130.1840  102.7020  198.6070 C.2   248  THR248      0.2642
     53  O        129.0320  102.6710  198.1710 O.2   248  THR248     -0.2714
     54  CB       130.6260  101.6360  200.8290 C.3   248  THR248      0.1808
     55  OG1      131.2950  100.5490  201.4420 O.3   248  THR248     -0.2208
     56  CG2      129.1290  101.6420  201.2610 C.3   248  THR248      0.0379
     57  N        130.9410  103.7870  198.5910 N.am  249  THR249     -0.1950
     58  CA       130.5030  105.0160  197.9430 C.3   249  THR249      0.1897
     59  C        130.4460  104.8590  196.4290 C.2   249  THR249      0.2313
     60  O        129.5630  105.4390  195.7990 O.2   249  THR249     -0.2863
     61  CB       131.3430  106.2680  198.3300 C.3   249  THR249      0.1794
     62  OG1      132.7430  106.0820  198.0410 O.3   249  THR249     -0.2208
     63  CG2      131.1900  106.5670  199.8040 C.3   249  THR249      0.0378
     64  N        126.7390  106.7090  205.0850 N.3   283  VAL283     -0.1245
     65  CA       127.2390  106.4880  203.7120 C.3   283  VAL283      0.1561
     66  C        126.1680  106.8610  202.7010 C.2   283  VAL283      0.2260
     67  O        126.4990  107.4330  201.6390 O.2   283  VAL283     -0.2867
     68  CB       127.7450  105.0560  203.4590 C.3   283  VAL283      0.0252
     69  CG1      128.3290  104.9400  202.0680 C.3   283  VAL283      0.0019
     70  CG2      128.8170  104.7030  204.4640 C.3   283  VAL283      0.0019
     71  N        126.4580  110.5440  202.2400 N.3   286  ARG286     -0.1245
     72  CA       127.6070  110.8250  201.3810 C.3   286  ARG286      0.1563
     73  C        127.2900  110.5710  199.8840 C.2   286  ARG286      0.2260
     74  O        127.5760  111.4250  199.0380 O.2   286  ARG286     -0.2867
     75  CB       128.8430  110.0390  201.8520 C.3   286  ARG286      0.0307
     76  CG       130.0210  110.0810  200.9050 C.3   286  ARG286      0.0489
     77  CD       130.5620  111.4990  200.7180 C.3   286  ARG286      0.2205
     78  NE       131.6600  111.5320  199.7580 N.pl3 286  ARG286     -0.0865
     79  CZ       132.5270  112.5310  199.5840 C.cat 286  ARG286      0.5346
     80  NH1      132.4470  113.6380  200.2940 N.pl3 286  ARG286      0.1354
     81  NH2      133.5060  112.4190  198.6790 N.pl3 286  ARG286      0.1354
     82  N        125.1490  113.2390  198.3940 N.3   289  ARG289     -0.1231
     83  CA       125.9770  114.4000  198.1500 C.3   289  ARG289      0.1694
     84  C        126.8850  114.2410  196.9160 C.2   289  ARG289      0.2591
     85  O        127.0240  115.1970  196.1640 O.2   289  ARG289     -0.2718
     86  CB       126.8020  114.8000  199.3840 C.3   289  ARG289      0.0321
     87  CG       126.0680  115.7360  200.3420 C.3   289  ARG289      0.0489
     88  CD       126.9750  116.2530  201.4590 C.3   289  ARG289      0.2205
     89  NE       127.7080  115.1370  202.0870 N.pl3 289  ARG289     -0.0865
     90  CZ       127.4140  114.5130  203.2450 C.cat 289  ARG289      0.5346
     91  NH1      126.3950  114.9150  204.0210 N.pl3 289  ARG289      0.1354
     92  NH2      128.1780  113.4700  203.6380 N.pl3 289  ARG289      0.1354
     93  N        127.4750  113.0620  196.6890 N.am  290  GLU290     -0.1979
     94  CA       128.3260  112.8450  195.4840 C.3   290  GLU290      0.1602
     95  C        127.5410  112.9830  194.1890 C.2   290  GLU290      0.2287
     96  O        128.0850  113.3350  193.1420 O.2   290  GLU290     -0.2864
     97  CB       128.9800  111.4680  195.5010 C.3   290  GLU290      0.0415
     98  CG       130.0250  111.3100  196.6020 C.3   290  GLU290      0.1163
     99  CD       130.8950  110.0690  196.4800 C.2   290  GLU290      0.3649
    100  OE1      130.9850  109.5030  195.3610 O.co2 290  GLU290     -0.2457
    101  OE2      131.4940  109.6810  197.5200 O.co2 290  GLU290     -0.2457
    102  N        130.9080   94.8280  204.2050 N.3   342  GLU342     -0.1245
    103  CA       131.5440   94.4340  205.4630 C.3   342  GLU342      0.1567
    104  C        131.1660   92.9990  205.8090 C.2   342  GLU342      0.2260
    105  O        130.8370   92.6680  206.9730 O.2   342  GLU342     -0.2867
    106  CB       131.1690   95.3890  206.6000 C.3   342  GLU342      0.0388
    107  CG       131.3290   96.8670  206.2880 C.3   342  GLU342      0.1160
    108  CD       132.7730   97.2970  206.0270 C.2   342  GLU342      0.3649
    109  OE1      133.6620   96.4560  205.9020 O.co2 342  GLU342     -0.2457
    110  OE2      133.0280   98.4870  205.9200 O.co2 342  GLU342     -0.2457
    111  N        143.5740  105.8270  199.6480 N.3   397  ALA397     -0.1231
    112  CA       143.4490  107.2730  199.4630 C.3   397  ALA397      0.1694
    113  C        144.6760  108.0250  199.9850 C.2   397  ALA397      0.2592
    114  O        145.2580  108.8490  199.2530 O.2   397  ALA397     -0.2718
    115  CB       142.1680  107.8060  200.0710 C.3   397  ALA397      0.0304
    116  N        145.0820  107.7120  201.2220 N.am  398  PHE398     -0.1976
    117  CA       146.2240  108.3760  201.8590 C.3   398  PHE398      0.1639
    118  C        146.9200  107.3980  202.8100 C.2   398  PHE398      0.2290
    119  O        146.2980  106.4740  203.2800 O.2   398  PHE398     -0.2864
    120  CB       145.7750  109.6350  202.6220 C.3   398  PHE398      0.0560
    121  CG       145.1930  110.6930  201.7510 C.ar  398  PHE398     -0.0200
    122  CD1      146.0180  111.5880  201.0750 C.ar  398  PHE398     -0.0042
    123  CD2      143.8150  110.7830  201.5670 C.ar  398  PHE398     -0.0042
    124  CE1      145.4710  112.5540  200.2170 C.ar  398  PHE398     -0.0003
    125  CE2      143.2610  111.7430  200.7060 C.ar  398  PHE398     -0.0003
    126  CZ       144.0950  112.6290  200.0330 C.ar  398  PHE398     -0.0000
    127  N        133.2510  101.3610  207.7300 N.3   557  SER557     -0.1217
    128  CA       132.2660  102.0220  206.8510 C.3   557  SER557      0.1889
    129  C        132.2930  103.5610  206.8150 C.2   557  SER557      0.2288
    130  O        132.2080  104.1560  205.7240 O.2   557  SER557     -0.2866
    131  CB       130.8390  101.5550  207.1850 C.3   557  SER557      0.2089
    132  OG       130.7750  100.1680  207.4250 O.3   557  SER557     -0.2183
    133  N        133.2250  107.6540  207.2030 N.3   559  THR559     -0.1218
    134  CA       134.2150  108.6970  207.0380 C.3   559  THR559      0.1862
    135  C        133.8500  109.8650  207.9460 C.2   559  THR559      0.2287
    136  O        132.9000  110.5790  207.6970 O.2   559  THR559     -0.2866
    137  CB       134.2800  109.1840  205.5760 C.3   559  THR559      0.1770
    138  OG1      134.6310  108.0800  204.7310 O.3   559  THR559     -0.2211
    139  CG2      135.3080  110.3100  205.3980 C.3   559  THR559      0.0375
    140  N        135.2630  113.1770  208.5920 N.3   561  ASP561     -0.1239
    141  CA       136.1620  113.7970  207.6290 C.3   561  ASP561      0.1674
    142  C        137.3880  114.4810  208.2170 C.2   561  ASP561      0.2266
    143  O        138.3470  114.7260  207.4860 O.2   561  ASP561     -0.2867
    144  CB       135.4240  114.6970  206.6210 C.3   561  ASP561      0.1410
    145  CG       134.8440  115.9660  207.2310 C.2   561  ASP561      0.3668
    146  OD1      135.2350  116.3610  208.3420 O.co2 561  ASP561     -0.2456
    147  OD2      133.9980  116.5830  206.5550 O.co2 561  ASP561     -0.2456
    148  N        139.8840  104.2000  209.7670 N.3   602  ARG602     -0.1245
    149  CA       139.1010  105.4240  209.9410 C.3   602  ARG602      0.1563
    150  C        139.9180  106.6780  209.6260 C.2   602  ARG602      0.2260
    151  O        139.3390  107.7320  209.3930 O.2   602  ARG602     -0.2867
    152  CB       138.4930  105.5560  211.3510 C.3   602  ARG602      0.0307
    153  CG       137.4100  104.5650  211.7630 C.3   602  ARG602      0.0489
    154  CD       136.5840  103.9810  210.6270 C.3   602  ARG602      0.2205
    155  NE       137.1050  102.8710  209.8900 N.pl3 602  ARG602     -0.0865
    156  CZ       136.7060  102.5740  208.6480 C.cat 602  ARG602      0.5346
    157  NH1      135.7830  103.3090  208.0590 N.pl3 602  ARG602      0.1354
    158  NH2      137.2200  101.5280  208.0290 N.pl3 602  ARG602      0.1354
    159  N        141.7660  108.6370  204.9650 N.3   605  ARG605     -0.1231
    160  CA       140.6470  108.6690  204.0400 C.3   605  ARG605      0.1694
    161  C        140.6100  109.9750  203.2480 C.2   605  ARG605      0.2591
    162  O        140.5180  109.9610  202.0030 O.2   605  ARG605     -0.2718
    163  CB       139.3470  108.4650  204.8200 C.3   605  ARG605      0.0321
    164  CG       139.3810  107.2020  205.6750 C.3   605  ARG605      0.0489
    165  CD       138.0530  106.7900  206.2650 C.3   605  ARG605      0.2205
    166  NE       137.8900  105.3680  206.0300 N.pl3 605  ARG605     -0.0865
    167  CZ       137.1270  104.8330  205.1040 C.cat 605  ARG605      0.5346
    168  NH1      136.4140  105.5940  204.3110 N.pl3 605  ARG605      0.1354
    169  NH2      137.0690  103.5210  205.0020 N.pl3 605  ARG605      0.1354
    170  N        140.6930  111.0880  203.9620 N.am  606  VAL606     -0.1980
    171  CA       140.6220  112.4210  203.4080 C.3   606  VAL606      0.1595
    172  C        141.9860  113.0790  203.4160 C.2   606  VAL606      0.2287
    173  O        142.2200  113.9540  202.6230 O.2   606  VAL606     -0.2864
    174  CB       139.6280  113.2650  204.2890 C.3   606  VAL606      0.0276
    175  CG1      139.5660  114.7100  203.8640 C.3   606  VAL606      0.0022
    176  CG2      138.2260  112.6690  204.3020 C.3   606  VAL606      0.0022
@<TRIPOS>BOND
     1     1     2    1
     2    15    14    2
     3     3     2    1
     4     3     4    2
     5     2     5    1
     6    96    95    2
     7    12    13    1
     8    14    13    1
     9     5     6    1
    10    95    94    1
    11    13    16    1
    12    16    17    1
    13    17    18    1
    14    17    19    1
    15     6     8   ar
    16     6     7   ar
    17   100    99   ar
    18    94    97    1
    19    94    93    1
    20    97    98    1
    21     8    10   ar
    22    60    59    2
    23     7     9   ar
    24    85    84    2
    25    40    39    2
    26    59    58    1
    27    99    98    1
    28    99   101   ar
    29    34    33    2
    30    93    84   am
    31    84    83    1
    32    44    43    2
    33    10    11   ar
    34     9    11   ar
    35    39    38    1
    36    39    41   am
    37    38    37    1
    38    42    43    1
    39    42    41    1
    40    42    45    1
    41    33    37   am
    42    33    32    1
    43    43    50   am
    44    58    61    1
    45    58    57    1
    46    36    35    1
    47    62    61    1
    48    83    82    1
    49    83    86    1
    50    35    32    1
    51    53    52    2
    52    61    63    1
    53    46    45    1
    54    46    47    1
    55    57    52   am
    56    32    31    1
    57    52    51    1
    58    81    79    1
    59    50    51    1
    60    74    73    2
    61   114   113    2
    62    51    54    1
    63    86    87    1
    64    47    48    1
    65   112   111    1
    66   112   113    1
    67   112   115    1
    68    79    78    2
    69    79    80    1
    70    78    77    1
    71    73    72    1
    72   113   116   am
    73    31    29   am
    74   126   124   ar
    75   126   125   ar
    76    30    29    2
    77   124   122   ar
    78    87    88    1
    79    29    28    1
    80   125   123   ar
    81    77    76    1
    82    54    56    1
    83    54    55    1
    84    76    75    1
    85    48    49    1
    86   122   121   ar
    87   116   117    1
    88    72    75    1
    89    72    71    1
    90    88    89    1
    91   123   121   ar
    92    67    66    2
    93   121   120    1
    94   117   120    1
    95   117   118    1
    96   162   161    2
    97    69    68    1
    98    89    90    2
    99    28    27    1
   100   173   172    2
   101    66    65    1
   102    23    22    2
   103    27    22   am
   104   118   119    2
   105    20    21    1
   106    22    21    1
   107    90    92    1
   108    90    91    1
   109   161   170   am
   110   161   160    1
   111   171   172    1
   112   171   170    1
   113   171   174    1
   114    68    65    1
   115    68    70    1
   116    65    64    1
   117    21    24    1
   118   175   174    1
   119   160   163    1
   120   160   159    1
   121   102   103    1
   122   174   176    1
   123   168   167    1
   124   138   137    1
   125   163   164    1
   126   169   167    1
   127   167   166    2
   128    24    25    1
   129    24    26    1
   130   139   137    1
   131   103   104    1
   132   103   106    1
   133   137   134    1
   134   164   165    1
   135   130   129    2
   136   104   105    2
   137   109   108   ar
   138   110   108   ar
   139   108   107    1
   140   166   165    1
   141   107   106    1
   142   147   145   ar
   143   144   145    1
   144   144   141    1
   145   129   128    1
   146   128   131    1
   147   128   127    1
   148   134   133    1
   149   134   135    1
   150   131   132    1
   151   145   146   ar
   152   143   142    2
   153   141   142    1
   154   141   140    1
   155   136   135    2
   156   158   156    1
   157   157   156    1
   158   156   155    2
   159   151   150    2
   160   150   149    1
   161   148   149    1
   162   155   154    1
   163   149   152    1
   164   154   153    1
   165   152   153    1
