@<TRIPOS>MOLECULE
tmp/5aovA07.pdb
 110 104 0 0 0
SMALL
GASTEIGER

@<TRIPOS>ATOM
      1  N        117.0780   54.7850   19.0280 N.3   114  ALA114     -0.1231
      2  CA       117.2310   55.0400   20.4380 C.3   114  ALA114      0.1694
      3  C        118.2390   54.0720   21.0170 C.2   114  ALA114      0.2593
      4  O        119.0400   54.4020   21.8910 O.2   114  ALA114     -0.2718
      5  CB       115.9080   54.9260   21.1900 C.3   114  ALA114      0.0304
      6  N        118.1580   52.8050   20.5870 N.am  115  THR115     -0.1939
      7  CA       119.0680   51.7600   21.0990 C.3   115  THR115      0.2028
      8  C        120.4610   51.9890   20.5370 C.2   115  THR115      0.2642
      9  O        121.4540   51.9540   21.3030 O.2   115  THR115     -0.2714
     10  CB       118.5470   50.3410   20.6840 C.3   115  THR115      0.1808
     11  OG1      117.1940   50.1860   21.1320 O.3   115  THR115     -0.2208
     12  CG2      119.3650   49.2460   21.3140 C.3   115  THR115      0.0379
     13  N        120.5640   52.2470   19.2470 N.am  116  ALA116     -0.1977
     14  CA       121.8800   52.4150   18.6480 C.3   116  ALA116      0.1597
     15  C        122.6510   53.6150   19.1770 C.2   116  ALA116      0.2287
     16  O        123.8970   53.5620   19.1800 O.2   116  ALA116     -0.2864
     17  CB       121.7000   52.5900   17.1280 C.3   116  ALA116      0.0319
     18  N        121.9330   55.3540   22.2210 N.3   118  HIS118     -0.1241
     19  CA       121.9160   55.5480   23.6940 C.3   118  HIS118      0.1621
     20  C        121.0160   56.6860   24.1250 C.2   118  HIS118      0.2264
     21  O        121.3210   57.3680   25.0820 O.2   118  HIS118     -0.2867
     22  CB       123.2970   55.7340   24.2830 C.3   118  HIS118      0.0745
     23  CG       124.2790   54.7200   23.8080 C.ar  118  HIS118      0.0817
     24  ND1      124.2750   53.4230   24.2760 N.ar  118  HIS118     -0.2268
     25  CD2      125.3500   54.8380   22.9970 C.ar  118  HIS118      0.1154
     26  CE1      125.2830   52.7650   23.7010 C.ar  118  HIS118      0.1986
     27  NE2      125.9360   53.6070   22.9100 N.ar  118  HIS118     -0.2212
     28  N        117.9510   56.7120   25.6050 N.3   120  VAL120     -0.1231
     29  CA       117.3150   56.5760   26.9530 C.3   120  VAL120      0.1692
     30  C        118.3520   56.7940   28.0360 C.2   120  VAL120      0.2591
     31  O        118.1060   57.5140   29.0160 O.2   120  VAL120     -0.2718
     32  CB       116.5870   55.2460   27.0680 C.3   120  VAL120      0.0266
     33  CG1      116.1900   54.9630   28.5050 C.3   120  VAL120      0.0020
     34  CG2      115.3250   55.2390   26.1240 C.3   120  VAL120      0.0020
     35  N        119.5070   56.1720   27.8880 N.am  121  LYS121     -0.1980
     36  CA       120.5810   56.3090   28.8960 C.3   121  LYS121      0.1596
     37  C        121.0610   57.7180   28.8970 C.2   121  LYS121      0.2287
     38  O        121.3650   58.3120   29.9690 O.2   121  LYS121     -0.2864
     39  CB       121.7190   55.3170   28.5430 C.3   121  LYS121      0.0298
     40  CG       122.8900   55.3820   29.5000 C.3   121  LYS121      0.0038
     41  CD       123.7710   54.1940   29.3610 C.3   121  LYS121      0.0206
     42  CE       124.7860   54.3790   28.2890 C.3   121  LYS121      0.1093
     43  NZ       125.6670   53.0840   28.1990 N.3   121  LYS121     -0.1314
     44  N        129.2590   56.2310   22.7150 N.3   144  LEU144     -0.1245
     45  CA       129.4940   55.8650   21.2980 C.3   144  LEU144      0.1561
     46  C        128.5300   54.8340   20.8270 C.2   144  LEU144      0.2260
     47  O        128.3450   53.7900   21.4560 O.2   144  LEU144     -0.2867
     48  CB       130.9070   55.4130   21.1130 C.3   144  LEU144      0.0270
     49  CG       131.9830   56.4480   21.4480 C.3   144  LEU144      0.0019
     50  CD1      133.3700   55.9320   21.0830 C.3   144  LEU144      0.0001
     51  CD2      131.7290   57.7580   20.6970 C.3   144  LEU144      0.0001
     52  N        126.2810   53.2980   17.0350 N.3   146  TYR146     -0.1241
     53  CA       126.5160   52.6750   15.7130 C.3   146  TYR146      0.1605
     54  C        125.8750   53.4980   14.5700 C.2   146  TYR146      0.2264
     55  O        124.7580   53.9670   14.7070 O.2   146  TYR146     -0.2867
     56  CB       125.9020   51.2670   15.6990 C.3   146  TYR146      0.0534
     57  CG       126.6310   50.3650   16.6530 C.ar  146  TYR146     -0.0201
     58  CD1      127.8450   49.9290   16.3320 C.ar  146  TYR146     -0.0009
     59  CD2      126.0830   49.9900   17.8190 C.ar  146  TYR146     -0.0009
     60  CE1      128.6240   49.1240   17.1900 C.ar  146  TYR146      0.0417
     61  CE2      126.8590   49.1510   18.6810 C.ar  146  TYR146      0.0417
     62  CZ       128.0730   48.7490   18.3240 C.ar  146  TYR146      0.1957
     63  OH       128.8190   47.9220   19.1950 O.3   146  TYR146     -0.2866
     64  N        122.2340   45.2150   16.5560 N.3   235  ILE235     -0.1245
     65  CA       121.0850   45.6620   17.3630 C.3   235  ILE235      0.1561
     66  C        119.8510   44.9150   16.8820 C.2   235  ILE235      0.2260
     67  O        119.6030   44.8770   15.6520 O.2   235  ILE235     -0.2867
     68  CB       120.9270   47.2010   17.1650 C.3   235  ILE235      0.0252
     69  CG1      122.1070   48.1540   17.6270 C.3   235  ILE235      0.0019
     70  CG2      119.5960   47.7220   17.7850 C.3   235  ILE235      0.0019
     71  CD1      122.3220   48.1070   18.9080 C.3   235  ILE235      0.0001
     72  N        124.8550   43.6930   20.5920 N.3   260  ALA260     -0.1231
     73  CA       125.1440   44.9540   21.2710 C.3   260  ALA260      0.1694
     74  C        123.9710   45.5650   21.9840 C.2   260  ALA260      0.2592
     75  O        124.2080   46.3060   22.9680 O.2   260  ALA260     -0.2718
     76  CB       125.6210   45.9620   20.2490 C.3   260  ALA260      0.0304
     77  N        122.7450   45.2990   21.5690 N.am  261  GLY261     -0.1957
     78  CA       121.6340   45.9580   22.2230 C.3   261  GLY261      0.1869
     79  C        120.3230   45.5040   21.6040 C.2   261  GLY261      0.2309
     80  O        120.3010   44.8240   20.5610 O.2   261  GLY261     -0.2863
     81  N        121.4510   48.5140   30.5310 N.3   281  ASP281     -0.1225
     82  CA       121.3910   49.8060   29.8700 C.3   281  ASP281      0.1805
     83  C        121.4860   49.6940   28.3640 C.2   281  ASP281      0.2598
     84  O        121.3220   50.7360   27.7320 O.2   281  ASP281     -0.2718
     85  CB       122.4520   50.7650   30.3640 C.3   281  ASP281      0.1424
     86  CG       123.8160   50.2170   30.2060 C.2   281  ASP281      0.3668
     87  OD1      124.0950   49.3400   29.3680 O.co2 281  ASP281     -0.2456
     88  OD2      124.6850   50.6830   31.0120 O.co2 281  ASP281     -0.2456
     89  N        121.6240   48.4800   27.8190 N.am  282  ASN282     -0.1960
     90  CA       121.6610   48.2800   26.3740 C.3   282  ASN282      0.1819
     91  C        120.3580   47.7520   25.8100 C.2   282  ASN282      0.2621
     92  O        120.3340   47.1890   24.7140 O.2   282  ASN282     -0.2715
     93  CB       122.8690   47.4190   25.9300 C.3   282  ASN282      0.1195
     94  CG       122.9160   46.0690   26.5590 C.2   282  ASN282      0.2630
     95  OD1      122.3150   45.8150   27.5680 O.2   282  ASN282     -0.2716
     96  ND2      123.7090   45.1970   25.9630 N.am  282  ASN282     -0.0877
     97  N        119.2850   47.9300   26.5760 N.am  283  VAL283     -0.1963
     98  CA       117.9450   47.6870   26.0670 C.3   283  VAL283      0.1727
     99  C        117.1590   48.9960   26.1580 C.2   283  VAL283      0.2616
    100  O        117.3770   49.7990   27.0680 O.2   283  VAL283     -0.2715
    101  CB       117.2350   46.4990   26.8380 C.3   283  VAL283      0.0290
    102  CG1      116.7760   46.8860   28.2440 C.3   283  VAL283      0.0023
    103  CG2      116.0920   45.9450   26.0700 C.3   283  VAL283      0.0023
    104  N        116.2630   49.1590   25.2050 N.am  284  VAL284     -0.1977
    105  CA       115.2420   50.2140   25.1880 C.3   284  VAL284      0.1596
    106  C        113.8800   49.5490   25.1570 C.2   284  VAL284      0.2287
    107  O        113.7030   48.5550   24.3910 O.2   284  VAL284     -0.2864
    108  CB       115.4270   51.1640   24.0080 C.3   284  VAL284      0.0276
    109  CG1      114.2390   52.1720   23.9110 C.3   284  VAL284      0.0022
    110  CG2      116.7550   51.9250   24.1440 C.3   284  VAL284      0.0022
@<TRIPOS>BOND
     1    54    55    2
     2    54    53    1
     3    67    66    2
     4    56    53    1
     5    56    57    1
     6    53    52    1
     7    58    57   ar
     8    58    60   ar
     9    64    65    1
    10    57    59   ar
    11    66    65    1
    12    17    14    1
    13    68    65    1
    14    68    69    1
    15    68    70    1
    16    60    62   ar
    17    69    71    1
    18    59    61   ar
    19    62    61   ar
    20    62    63    1
    21    14    15    1
    22    14    13    1
    23     1     2    1
    24    15    16    2
    25    13     8   am
    26    76    73    1
    27     2     3    1
    28     2     5    1
    29     8     7    1
    30     8     9    2
    31    80    79    2
    32     6     3   am
    33     6     7    1
    34    72    73    1
    35    10     7    1
    36    10    11    1
    37    10    12    1
    38    51    49    1
    39    46    45    1
    40    46    47    2
    41     3     4    2
    42    50    49    1
    43    48    45    1
    44    48    49    1
    45    73    74    1
    46    45    44    1
    47    77    74   am
    48    77    78    1
    49    79    78    1
    50    74    75    2
    51    18    19    1
    52    27    25   ar
    53    27    26   ar
    54    25    23   ar
    55    19    20    1
    56    19    22    1
    57    26    24   ar
    58    23    24   ar
    59    23    22    1
    60   109   108    1
    61   108   110    1
    62   108   105    1
    63    20    21    2
    64   107   106    2
    65    92    91    2
    66   106   105    1
    67   105   104    1
    68   104    99   am
    69    28    29    1
    70    91    90    1
    71    91    97   am
    72    93    90    1
    73    93    94    1
    74    96    94   am
    75    98    99    1
    76    98    97    1
    77    98   101    1
    78   103   101    1
    79    34    32    1
    80    99   100    2
    81    90    89    1
    82    94    95    2
    83   101   102    1
    84    29    32    1
    85    29    30    1
    86    32    33    1
    87    84    83    2
    88    89    83   am
    89    35    30   am
    90    35    36    1
    91    30    31    2
    92    43    42    1
    93    42    41    1
    94    83    82    1
    95    39    36    1
    96    39    40    1
    97    36    37    1
    98    37    38    2
    99    41    40    1
   100    87    86   ar
   101    82    85    1
   102    82    81    1
   103    86    85    1
   104    86    88   ar
