@<TRIPOS>MOLECULE
tmp/5aovA02.pdb
 107 106 0 0 0
SMALL
GASTEIGER

@<TRIPOS>ATOM
      1  N        120.5640   52.2470   19.2470 N.3   116  ALA116     -0.1245
      2  CA       121.8800   52.4150   18.6480 C.3   116  ALA116      0.1562
      3  C        122.6510   53.6150   19.1770 C.2   116  ALA116      0.2260
      4  O        123.8970   53.5620   19.1800 O.2   116  ALA116     -0.2867
      5  CB       121.7000   52.5900   17.1280 C.3   116  ALA116      0.0290
      6  N        121.9330   55.3540   22.2210 N.3   118  HIS118     -0.1241
      7  CA       121.9160   55.5480   23.6940 C.3   118  HIS118      0.1621
      8  C        121.0160   56.6860   24.1250 C.2   118  HIS118      0.2264
      9  O        121.3210   57.3680   25.0820 O.2   118  HIS118     -0.2867
     10  CB       123.2970   55.7340   24.2830 C.3   118  HIS118      0.0745
     11  CG       124.2790   54.7200   23.8080 C.ar  118  HIS118      0.0817
     12  ND1      124.2750   53.4230   24.2760 N.ar  118  HIS118     -0.2268
     13  CD2      125.3500   54.8380   22.9970 C.ar  118  HIS118      0.1154
     14  CE1      125.2830   52.7650   23.7010 C.ar  118  HIS118      0.1986
     15  NE2      125.9360   53.6070   22.9100 N.ar  118  HIS118     -0.2212
     16  N        119.5070   56.1720   27.8880 N.3   121  LYS121     -0.1245
     17  CA       120.5810   56.3090   28.8960 C.3   121  LYS121      0.1561
     18  C        121.0610   57.7180   28.8970 C.2   121  LYS121      0.2260
     19  O        121.3650   58.3120   29.9690 O.2   121  LYS121     -0.2867
     20  CB       121.7190   55.3170   28.5430 C.3   121  LYS121      0.0271
     21  CG       122.8900   55.3820   29.5000 C.3   121  LYS121      0.0035
     22  CD       123.7710   54.1940   29.3610 C.3   121  LYS121      0.0206
     23  CE       124.7860   54.3790   28.2890 C.3   121  LYS121      0.1093
     24  NZ       125.6670   53.0840   28.1990 N.3   121  LYS121     -0.1314
     25  N        121.0140   60.4830   32.0470 N.3   125  PHE125     -0.1241
     26  CA       122.2620   61.1370   32.4650 C.3   125  PHE125      0.1605
     27  C        122.0830   62.6350   32.5740 C.2   125  PHE125      0.2264
     28  O        122.5670   63.2520   33.5550 O.2   125  PHE125     -0.2867
     29  CB       123.4020   60.7280   31.4510 C.3   125  PHE125      0.0534
     30  CG       124.7750   61.2820   31.7480 C.ar  125  PHE125     -0.0203
     31  CD1      125.4650   60.9420   32.8810 C.ar  125  PHE125     -0.0042
     32  CD2      125.3360   62.1340   30.8560 C.ar  125  PHE125     -0.0042
     33  CE1      126.7820   61.4350   33.1090 C.ar  125  PHE125     -0.0003
     34  CE2      126.6320   62.5730   31.0370 C.ar  125  PHE125     -0.0003
     35  CZ       127.3420   62.2630   32.1580 C.ar  125  PHE125     -0.0000
     36  N        128.8460   65.9270   37.4640 N.3   134  LYS134     -0.1245
     37  CA       130.2020   65.4250   37.1650 C.3   134  LYS134      0.1561
     38  C        131.0430   66.5330   36.5550 C.2   134  LYS134      0.2260
     39  O        132.2810   66.4990   36.6260 O.2   134  LYS134     -0.2867
     40  CB       130.0270   64.2420   36.2200 C.3   134  LYS134      0.0271
     41  CG       131.2040   63.4130   35.8410 C.3   134  LYS134      0.0035
     42  CD       130.6620   62.0570   35.1020 C.3   134  LYS134      0.0206
     43  CE       131.7850   61.0160   34.9320 C.3   134  LYS134      0.1093
     44  NZ       132.4080   60.5920   36.2130 N.3   134  LYS134     -0.1314
     45  N        135.0400   59.4650   24.0760 N.3   141  LYS141     -0.1231
     46  CA       134.6920   58.0610   24.2090 C.3   141  LYS141      0.1693
     47  C        133.3310   57.8080   24.8230 C.2   141  LYS141      0.2592
     48  O        132.8670   56.6530   24.9660 O.2   141  LYS141     -0.2718
     49  CB       135.7760   57.3640   25.0680 C.3   141  LYS141      0.0285
     50  CG       137.1530   57.3400   24.3820 C.3   141  LYS141      0.0035
     51  CD       138.1570   56.4530   25.1830 C.3   141  LYS141      0.0206
     52  CE       139.6010   56.6910   24.7200 C.3   141  LYS141      0.1093
     53  NZ       139.8250   56.1350   23.3150 N.3   141  LYS141     -0.1314
     54  N        132.5900   58.8750   25.1550 N.am  142  TRP142     -0.1962
     55  CA       131.3080   58.7000   25.8060 C.3   142  TRP142      0.1771
     56  C        130.1780   58.4450   24.8160 C.2   142  TRP142      0.2620
     57  O        130.0440   59.1000   23.7470 O.2   142  TRP142     -0.2715
     58  CB       130.8990   59.9740   26.5970 C.3   142  TRP142      0.0590
     59  CG       131.6550   60.1860   27.8620 C.ar  142  TRP142      0.0006
     60  CD1      132.6790   59.4300   28.3800 C.ar  142  TRP142      0.0946
     61  CD2      131.3800   61.2120   28.8280 C.ar  142  TRP142      0.0152
     62  NE1      133.1050   59.9660   29.6050 N.ar  142  TRP142     -0.2442
     63  CE2      132.3070   61.0480   29.8750 C.ar  142  TRP142      0.0810
     64  CE3      130.4600   62.2660   28.8660 C.ar  142  TRP142      0.0012
     65  CZ2      132.2960   61.8640   31.0190 C.ar  142  TRP142      0.0191
     66  CZ3      130.4940   63.1040   29.9890 C.ar  142  TRP142      0.0001
     67  CH2      131.3940   62.8980   31.0010 C.ar  142  TRP142      0.0015
     68  N        129.2640   57.5380   25.1900 N.am  143  PHE143     -0.1960
     69  CA       128.0150   57.3010   24.5060 C.3   143  PHE143      0.1771
     70  C        128.1800   56.9190   23.0260 C.2   143  PHE143      0.2619
     71  O        127.3500   57.2630   22.1850 O.2   143  PHE143     -0.2715
     72  CB       127.0570   58.5130   24.6120 C.3   143  PHE143      0.0574
     73  CG       126.5830   58.7910   26.0510 C.ar  143  PHE143     -0.0200
     74  CD1      125.6680   57.9560   26.6180 C.ar  143  PHE143     -0.0042
     75  CD2      127.0800   59.8300   26.7470 C.ar  143  PHE143     -0.0042
     76  CE1      125.2390   58.1860   27.9550 C.ar  143  PHE143     -0.0003
     77  CE2      126.6770   60.0770   28.0730 C.ar  143  PHE143     -0.0003
     78  CZ       125.7730   59.2700   28.6380 C.ar  143  PHE143     -0.0000
     79  N        129.2590   56.2310   22.7150 N.am  144  LEU144     -0.1963
     80  CA       129.4940   55.8650   21.2980 C.3   144  LEU144      0.1728
     81  C        128.5300   54.8340   20.8270 C.2   144  LEU144      0.2617
     82  O        128.3450   53.7900   21.4560 O.2   144  LEU144     -0.2715
     83  CB       130.9070   55.4130   21.1130 C.3   144  LEU144      0.0311
     84  CG       131.9830   56.4480   21.4480 C.3   144  LEU144      0.0022
     85  CD1      133.3700   55.9320   21.0830 C.3   144  LEU144      0.0001
     86  CD2      131.7290   57.7580   20.6970 C.3   144  LEU144      0.0001
     87  N        127.8790   55.1210   19.7250 N.am  145  GLY145     -0.1940
     88  CA       126.9310   54.2200   19.1100 C.3   145  GLY145      0.2014
     89  C        127.2870   53.8590   17.7090 C.2   145  GLY145      0.2638
     90  O        128.4160   54.0210   17.2700 O.2   145  GLY145     -0.2714
     91  N        126.2810   53.2980   17.0350 N.am  146  TYR146     -0.1973
     92  CA       126.5160   52.6750   15.7130 C.3   146  TYR146      0.1639
     93  C        125.8750   53.4980   14.5700 C.2   146  TYR146      0.2290
     94  O        124.7580   53.9670   14.7070 O.2   146  TYR146     -0.2864
     95  CB       125.9020   51.2670   15.6990 C.3   146  TYR146      0.0560
     96  CG       126.6310   50.3650   16.6530 C.ar  146  TYR146     -0.0198
     97  CD1      127.8450   49.9290   16.3320 C.ar  146  TYR146     -0.0009
     98  CD2      126.0830   49.9900   17.8190 C.ar  146  TYR146     -0.0009
     99  CE1      128.6240   49.1240   17.1900 C.ar  146  TYR146      0.0417
    100  CE2      126.8590   49.1510   18.6810 C.ar  146  TYR146      0.0417
    101  CZ       128.0730   48.7490   18.3240 C.ar  146  TYR146      0.1957
    102  OH       128.8190   47.9220   19.1950 O.3   146  TYR146     -0.2866
    103  N        124.8550   43.6930   20.5920 N.3   260  ALA260     -0.1245
    104  CA       125.1440   44.9540   21.2710 C.3   260  ALA260      0.1562
    105  C        123.9710   45.5650   21.9840 C.2   260  ALA260      0.2260
    106  O        124.2080   46.3060   22.9680 O.2   260  ALA260     -0.2867
    107  CB       125.6210   45.9620   20.2490 C.3   260  ALA260      0.0290
@<TRIPOS>BOND
     1    93    94    2
     2    93    92    1
     3    95    92    1
     4    95    96    1
     5    92    91    1
     6    97    96   ar
     7    97    99   ar
     8    96    98   ar
     9    91    89   am
    10     5     2    1
    11    99   101   ar
    12    90    89    2
    13    89    88    1
    14    98   100   ar
    15   101   100   ar
    16   101   102    1
    17     2     3    1
    18     2     1    1
    19    88    87    1
    20     3     4    2
    21    87    81   am
    22   107   104    1
    23   103   104    1
    24    86    84    1
    25    81    80    1
    26    81    82    2
    27    85    84    1
    28    83    80    1
    29    83    84    1
    30   104   105    1
    31    80    79    1
    32   105   106    2
    33    71    70    2
    34     6     7    1
    35    79    70   am
    36    15    13   ar
    37    15    14   ar
    38    13    11   ar
    39    70    69    1
    40    53    52    1
    41     7     8    1
    42     7    10    1
    43    14    12   ar
    44    57    56    2
    45    11    12   ar
    46    11    10    1
    47    45    46    1
    48     8     9    2
    49    46    47    1
    50    46    49    1
    51    50    49    1
    52    50    51    1
    53    69    72    1
    54    69    68    1
    55    72    73    1
    56    52    51    1
    57    56    68   am
    58    56    55    1
    59    47    48    2
    60    47    54   am
    61    54    55    1
    62    55    58    1
    63    73    74   ar
    64    73    75   ar
    65    58    59    1
    66    74    76   ar
    67    75    77   ar
    68    59    60   ar
    69    59    61   ar
    70    16    17    1
    71    76    78   ar
    72    77    78   ar
    73    24    23    1
    74    23    22    1
    75    60    62   ar
    76    20    17    1
    77    20    21    1
    78    61    64   ar
    79    61    63   ar
    80    64    66   ar
    81    17    18    1
    82    18    19    2
    83    22    21    1
    84    62    63   ar
    85    63    65   ar
    86    66    67   ar
    87    32    34   ar
    88    32    30   ar
    89    67    65   ar
    90    34    35   ar
    91    29    30    1
    92    29    26    1
    93    30    31   ar
    94    25    26    1
    95    35    33   ar
    96    26    27    1
    97    27    28    2
    98    31    33   ar
    99    43    42    1
   100    43    44    1
   101    42    41    1
   102    41    40    1
   103    40    37    1
   104    38    39    2
   105    38    37    1
   106    37    36    1
