@<TRIPOS>MOLECULE
tmp/5ap0A00.pdb
 164 152 0 0 0
SMALL
GASTEIGER

@<TRIPOS>ATOM
      1  N         -6.1920    2.9520  -15.0200 N.3    15  LYS15      -0.1231
      2  CA        -6.1300    3.6250  -13.7170 C.3    15  LYS15       0.1693
      3  C         -6.3440    5.1280  -13.8660 C.2    15  LYS15       0.2592
      4  O         -6.2310    5.6570  -14.9710 O.2    15  LYS15      -0.2718
      5  CB        -4.7880    3.3420  -12.9930 C.3    15  LYS15       0.0285
      6  CG        -3.5560    3.8740  -13.7000 C.3    15  LYS15       0.0035
      7  CD        -2.2420    3.4580  -13.0830 C.3    15  LYS15       0.0206
      8  CE        -2.1330    3.8380  -11.6090 C.3    15  LYS15       0.1093
      9  NZ        -2.1820    5.2890  -11.3120 N.3    15  LYS15      -0.1314
     10  N         -6.6390    5.8100  -12.7520 N.am   16  GLN16      -0.1966
     11  CA        -6.7820    7.2550  -12.7200 C.3    16  GLN16       0.1733
     12  C         -5.4160    7.8060  -12.3040 C.2    16  GLN16       0.2616
     13  O         -4.8930    7.4160  -11.2550 O.2    16  GLN16      -0.2715
     14  CB        -7.8760    7.6850  -11.7320 C.3    16  GLN16       0.0408
     15  CG        -8.2910    9.1420  -11.9210 C.3    16  GLN16       0.0908
     16  CD        -9.3750    9.6110  -10.9830 C.2    16  GLN16       0.2608
     17  OE1       -9.2650   10.6740  -10.3600 O.2    16  GLN16      -0.2717
     18  NE2      -10.4740    8.8720  -10.9040 N.am   16  GLN16      -0.0878
     19  N         -4.8200    8.6680  -13.1510 N.am   17  ILE17      -0.1963
     20  CA        -3.5120    9.2920  -12.9170 C.3    17  ILE17       0.1727
     21  C         -3.6690   10.5060  -11.9830 C.2    17  ILE17       0.2616
     22  O         -2.9300   10.6310  -11.0020 O.2    17  ILE17      -0.2715
     23  CB        -2.8020    9.7040  -14.2520 C.3    17  ILE17       0.0290
     24  CG1       -2.5850    8.5200  -15.2170 C.3    17  ILE17       0.0022
     25  CG2       -1.4910   10.4150  -13.9640 C.3    17  ILE17       0.0023
     26  CD1       -2.2070    8.9510  -16.6860 C.3    17  ILE17       0.0001
     27  N         -4.5850   11.4060  -12.3350 N.am   18  GLY18      -0.1955
     28  CA        -4.8160   12.6330  -11.5860 C.3    18  GLY18       0.1869
     29  C         -6.2550   13.1050  -11.5740 C.2    18  GLY18       0.2309
     30  O         -7.1060   12.5490  -12.2750 O.2    18  GLY18      -0.2863
     31  N         -7.7810   12.5880  -15.0630 N.3    25  VAL25      -0.1245
     32  CA        -6.8720   12.0930  -16.0940 C.3    25  VAL25       0.1561
     33  C         -6.7600   10.6000  -15.8760 C.2    25  VAL25       0.2260
     34  O         -6.4550   10.1570  -14.7620 O.2    25  VAL25      -0.2867
     35  CB        -5.4860   12.7960  -16.1310 C.3    25  VAL25       0.0252
     36  CG1       -4.5700   12.1750  -17.1930 C.3    25  VAL25       0.0019
     37  CG2       -5.6280   14.3000  -16.3590 C.3    25  VAL25       0.0019
     38  N         -5.2730    6.6890  -17.3640 N.3    27  GLN27      -0.1245
     39  CA        -4.3320    5.9420  -18.1830 C.3    27  GLN27       0.1566
     40  C         -5.2130    4.9090  -18.8710 C.2    27  GLN27       0.2260
     41  O         -5.9990    4.2450  -18.2020 O.2    27  GLN27      -0.2867
     42  CB        -3.2540    5.2840  -17.3350 C.3    27  GLN27       0.0367
     43  CG        -2.1740    4.6670  -18.1970 C.3    27  GLN27       0.0905
     44  CD        -1.1620    3.9540  -17.3670 C.2    27  GLN27       0.2608
     45  OE1        0.0470    3.9920  -17.6250 O.2    27  GLN27      -0.2717
     46  NE2       -1.6410    3.3010  -16.3390 N.am   27  GLN27      -0.0878
     47  N         -3.2940    8.7450  -22.4820 N.3    37  ALA37      -0.1245
     48  CA        -3.8060    9.4190  -21.2980 C.3    37  ALA37       0.1562
     49  C         -5.0890   10.1010  -21.7620 C.2    37  ALA37       0.2260
     50  O         -5.0810   10.7420  -22.8050 O.2    37  ALA37      -0.2867
     51  CB        -2.8090   10.4400  -20.7860 C.3    37  ALA37       0.0290
     52  N         -7.8470   12.8610  -20.7930 N.3    39  LYS39      -0.1245
     53  CA        -8.2780   13.8870  -19.8700 C.3    39  LYS39       0.1561
     54  C         -9.8160   14.0780  -20.0240 C.2    39  LYS39       0.2260
     55  O        -10.3070   14.4160  -21.1050 O.2    39  LYS39      -0.2867
     56  CB        -7.5050   15.1970  -20.0610 C.3    39  LYS39       0.0271
     57  CG        -8.0510   16.3540  -19.2170 C.3    39  LYS39       0.0035
     58  CD        -7.1330   17.5630  -19.3440 C.3    39  LYS39       0.0206
     59  CE        -7.6380   18.7110  -18.5480 C.3    39  LYS39       0.1093
     60  NZ        -6.8580   19.9300  -18.8190 N.3    39  LYS39      -0.1314
     61  N          3.1200   18.3740  -25.1970 N.3    72  ILE72      -0.1245
     62  CA         2.3820   17.1070  -25.1020 C.3    72  ILE72       0.1561
     63  C          1.4990   16.8810  -26.3520 C.2    72  ILE72       0.2260
     64  O          0.8630   17.8260  -26.8300 O.2    72  ILE72      -0.2867
     65  CB         1.5110   17.0810  -23.8050 C.3    72  ILE72       0.0252
     66  CG1        0.9330   15.6640  -23.5470 C.3    72  ILE72       0.0019
     67  CG2        0.3960   18.1880  -23.8200 C.3    72  ILE72       0.0019
     68  CD1        0.4740   15.3960  -22.1620 C.3    72  ILE72       0.0001
     69  N         -4.7230   11.9220  -25.2460 N.3    88  MET88      -0.1230
     70  CA        -3.3910   12.4740  -25.1880 C.3    88  MET88       0.1702
     71  C         -2.3080   11.4600  -24.9990 C.2    88  MET88       0.2592
     72  O         -2.5450   10.2840  -24.7470 O.2    88  MET88      -0.2718
     73  CB        -3.3160   13.5540  -24.0910 C.3    88  MET88       0.0401
     74  CG        -4.3410   14.6800  -24.2970 C.3    88  MET88       0.0596
     75  SD        -4.4280   15.8640  -22.9560 S.3    88  MET88      -0.1393
     76  CE        -3.0890   16.8290  -23.3510 C.3    88  MET88       0.0692
     77  N         -1.0880   11.9590  -25.0840 N.am   89  GLU89      -0.1966
     78  CA         0.1190   11.2090  -24.8610 C.3    89  GLU89       0.1733
     79  C          0.1750   10.8460  -23.3800 C.2    89  GLU89       0.2616
     80  O         -0.1260   11.6850  -22.5220 O.2    89  GLU89      -0.2715
     81  CB         1.2800   12.1500  -25.1840 C.3    89  GLU89       0.0429
     82  CG         2.5870   11.4710  -25.4480 C.3    89  GLU89       0.1163
     83  CD         3.6850   12.3950  -25.9200 C.2    89  GLU89       0.3649
     84  OE1        3.5040   13.6370  -25.9120 O.co2  89  GLU89      -0.2457
     85  OE2        4.7490   11.8580  -26.2900 O.co2  89  GLU89      -0.2457
     86  N          0.5840    9.6200  -23.0810 N.am   90  CYS90      -0.1954
     87  CA         0.7810    9.2110  -21.7010 C.3    90  CYS90       0.1843
     88  C          2.2880    9.2860  -21.4090 C.2    90  CYS90       0.2626
     89  O          3.1020    8.7690  -22.1780 O.2    90  CYS90      -0.2714
     90  CB         0.2190    7.8140  -21.4340 C.3    90  CYS90       0.0997
     91  SG        -0.0380    7.4480  -19.6750 S.3    90  CYS90      -0.0797
     92  N          2.6330    9.9930  -20.3440 N.am   91  GLY91      -0.1940
     93  CA         4.0100   10.1240  -19.9000 C.3    91  GLY91       0.2014
     94  C          4.2730    9.1730  -18.7570 C.2    91  GLY91       0.2639
     95  O          3.3490    8.5390  -18.2600 O.2    91  GLY91      -0.2714
     96  N          5.5210    9.0870  -18.3220 N.am   92  ASN92      -0.1958
     97  CA         5.9270    8.2110  -17.2280 C.3    92  ASN92       0.1819
     98  C          5.5320    8.7840  -15.8690 C.2    92  ASN92       0.2621
     99  O          5.0770    8.0520  -14.9960 O.2    92  ASN92      -0.2715
    100  CB         7.4470    7.9600  -17.2830 C.3    92  ASN92       0.1195
    101  CG         7.9060    7.3630  -18.5890 C.2    92  ASN92       0.2630
    102  OD1        8.2960    8.0570  -19.5290 O.2    92  ASN92      -0.2716
    103  ND2        7.8190    6.0600  -18.6940 N.am   92  ASN92      -0.0877
    104  N          5.7350   10.0950  -15.6890 N.am   93  ILE93      -0.1963
    105  CA         5.5260   10.7950  -14.4230 C.3    93  ILE93       0.1727
    106  C          5.6470   12.2930  -14.7000 C.2    93  ILE93       0.2616
    107  O          6.2770   12.6940  -15.6830 O.2    93  ILE93      -0.2715
    108  CB         6.6130   10.2850  -13.3770 C.3    93  ILE93       0.0290
    109  CG1        6.2550   10.6810  -11.9220 C.3    93  ILE93       0.0022
    110  CG2        8.0630   10.6970  -13.7540 C.3    93  ILE93       0.0023
    111  CD1        7.1800   10.1170  -10.8660 C.3    93  ILE93       0.0001
    112  N          5.0590   13.1200  -13.8380 N.am   94  ASP94      -0.1971
    113  CA         5.2480   14.5560  -13.9610 C.3    94  ASP94       0.1709
    114  C          6.5830   14.8880  -13.2770 C.2    94  ASP94       0.2293
    115  O          7.0500   14.1320  -12.4260 O.2    94  ASP94      -0.2864
    116  CB         4.0900   15.3410  -13.3180 C.3    94  ASP94       0.1436
    117  CG         3.9600   15.0590  -11.8390 C.2    94  ASP94       0.3671
    118  OD1        3.5090   13.9360  -11.4820 O.co2  94  ASP94      -0.2456
    119  OD2        4.3960   15.9110  -11.0380 O.co2  94  ASP94      -0.2456
    120  N          6.4920   15.1330   -9.1000 N.3    97  SER97      -0.1217
    121  CA         6.5470   13.8230   -8.4390 C.3    97  SER97       0.1889
    122  C          7.9400   13.2060   -8.5800 C.2    97  SER97       0.2288
    123  O          8.4640   12.6950   -7.5920 O.2    97  SER97      -0.2866
    124  CB         5.4790   12.8860   -8.9890 C.3    97  SER97       0.2089
    125  OG         4.2000   13.4930   -8.9050 O.3    97  SER97      -0.2183
    126  N         10.4270   15.1560   -6.2370 N.3   100  LYS100     -0.1231
    127  CA        10.1050   14.8360   -4.8390 C.3   100  LYS100      0.1693
    128  C         10.6060   13.4360   -4.4460 C.2   100  LYS100      0.2591
    129  O         10.9840   13.2260   -3.2910 O.2   100  LYS100     -0.2718
    130  CB         8.5930   14.9560   -4.5790 C.3   100  LYS100      0.0285
    131  CG         8.0780   16.3780   -4.5610 C.3   100  LYS100      0.0035
    132  CD         6.6190   16.4650   -4.1630 C.3   100  LYS100      0.0206
    133  CE         5.7730   15.4590   -4.8120 C.3   100  LYS100      0.1093
    134  NZ         4.3380   15.9490   -4.9490 N.3   100  LYS100     -0.1314
    135  N         10.6110   12.4890   -5.4120 N.am  101  LYS101     -0.1980
    136  CA        11.0620   11.1050   -5.2280 C.3   101  LYS101      0.1596
    137  C         12.6000   10.9460   -5.3090 C.2   101  LYS101      0.2287
    138  O         13.1570   10.1090   -4.6010 O.2   101  LYS101     -0.2864
    139  CB        10.3530   10.1710   -6.2280 C.3   101  LYS101      0.0298
    140  CG         9.0220    9.6530   -5.7600 C.3   101  LYS101      0.0038
    141  CD         8.4660    8.6930   -6.7790 C.3   101  LYS101      0.0206
    142  CE         7.0060    8.4650   -6.5200 C.3   101  LYS101      0.1093
    143  NZ         6.2380    9.7210   -6.7470 N.3   101  LYS101     -0.1314
    144  N          4.9800   20.6700  -11.9130 N.3   137  ALA137     -0.1245
    145  CA         3.7690   19.8770  -12.2400 C.3   137  ALA137      0.1562
    146  C          3.2130   20.1110  -13.6640 C.2   137  ALA137      0.2260
    147  O          2.4180   19.3010  -14.1400 O.2   137  ALA137     -0.2867
    148  CB         2.6770   20.0980  -11.2020 C.3   137  ALA137      0.0290
    149  N          5.9840   17.0300  -17.9640 N.3   140  LEU140     -0.1245
    150  CA         5.8480   15.5810  -17.9650 C.3   140  LEU140      0.1561
    151  C          7.0700   14.9480  -18.5790 C.2   140  LEU140      0.2260
    152  O          7.5630   15.4150  -19.6070 O.2   140  LEU140     -0.2867
    153  CB         4.6010   15.2190  -18.7800 C.3   140  LEU140      0.0270
    154  CG         4.0350   13.8190  -18.7610 C.3   140  LEU140      0.0019
    155  CD1        3.4850   13.4660  -17.3870 C.3   140  LEU140      0.0001
    156  CD2        2.9200   13.7120  -19.7860 C.3   140  LEU140      0.0001
    157  N          2.6520   20.3790  -20.4640 N.3   149  ILE149     -0.1245
    158  CA         1.3430   19.7310  -20.5730 C.3   149  ILE149      0.1561
    159  C          0.1810   20.7200  -20.7080 C.2   149  ILE149      0.2260
    160  O         -0.8830   20.3430  -21.2290 O.2   149  ILE149     -0.2867
    161  CB         1.0800   18.6620  -19.4570 C.3   149  ILE149      0.0252
    162  CG1        0.9060   19.2830  -18.0550 C.3   149  ILE149      0.0019
    163  CG2        2.1950   17.6290  -19.4600 C.3   149  ILE149      0.0019
    164  CD1        0.0350   18.4560  -17.1250 C.3   149  ILE149      0.0001
@<TRIPOS>BOND
     1    64    63    2
     2    63    62    1
     3    85    83   ar
     4    83    84   ar
     5    83    82    1
     6    82    81    1
     7    69    70    1
     8    61    62    1
     9    70    71    1
    10    70    73    1
    11    81    78    1
    12    62    65    1
    13    77    71   am
    14    77    78    1
    15    71    72    2
    16    78    79    1
    17    74    73    1
    18    74    75    1
    19    67    65    1
    20    65    66    1
    21    66    68    1
    22    79    86   am
    23    79    80    2
    24    76    75    1
    25    86    87    1
    26    50    49    2
    27    47    48    1
    28    89    88    2
    29    49    48    1
    30    87    90    1
    31    87    88    1
    32    90    91    1
    33    88    92   am
    34    48    51    1
    35   160   159    2
    36    55    54    2
    37    52    53    1
    38   159   158    1
    39   158   157    1
    40   158   161    1
    41    92    93    1
    42    56    53    1
    43    56    57    1
    44    54    53    1
    45    93    94    1
    46   156   154    1
    47   152   151    2
    48   102   101    2
    49   163   161    1
    50   161   162    1
    51    58    57    1
    52    58    59    1
    53    40    41    2
    54    40    39    1
    55    60    59    1
    56   153   154    1
    57   153   150    1
    58   154   155    1
    59    94    96   am
    60    94    95    2
    61   103   101   am
    62   101   100    1
    63   151   150    1
    64    96    97    1
    65    43    44    1
    66    43    42    1
    67    39    38    1
    68    39    42    1
    69   162   164    1
    70   150   149    1
    71    45    44    2
    72    44    46   am
    73   100    97    1
    74    97    98    1
    75    36    35    1
    76    26    24    1
    77    37    35    1
    78    35    32    1
    79    32    33    1
    80    32    31    1
    81    33    34    2
    82    98   104   am
    83    98    99    2
    84   104   105    1
    85   107   106    2
    86    24    23    1
    87     1     2    1
    88     4     3    2
    89   106   105    1
    90   106   112   am
    91   105   108    1
    92    23    25    1
    93    23    20    1
    94   147   146    2
    95   113   112    1
    96   113   116    1
    97   113   114    1
    98     3     2    1
    99     3    10   am
   100   110   108    1
   101     2     5    1
   102     6     7    1
   103     6     5    1
   104   146   145    1
   105   108   109    1
   106   116   117    1
   107   114   115    2
   108    19    20    1
   109    19    12   am
   110     7     8    1
   111    20    21    1
   112    10    11    1
   113    11    12    1
   114    11    14    1
   115    27    21   am
   116    27    28    1
   117    12    13    2
   118    30    29    2
   119   145   144    1
   120   145   148    1
   121    21    22    2
   122   109   111    1
   123    15    14    1
   124    15    16    1
   125   117   118   ar
   126   117   119   ar
   127     8     9    1
   128    28    29    1
   129    16    18   am
   130    16    17    2
   131   120   121    1
   132   124   125    1
   133   124   121    1
   134   122   121    1
   135   122   123    2
   136   141   142    1
   137   141   140    1
   138   143   142    1
   139   126   127    1
   140   139   140    1
   141   139   136    1
   142   135   136    1
   143   135   128   am
   144   137   136    1
   145   137   138    2
   146   134   133    1
   147   127   130    1
   148   127   128    1
   149   133   132    1
   150   130   131    1
   151   131   132    1
   152   128   129    2
