@<TRIPOS>MOLECULE
tmp/5ap0A02.pdb
 86 84 0 0 0
SMALL
GASTEIGER

@<TRIPOS>ATOM
      1  N         23.7700   16.0970  -16.1250 N.3   108  TRP108     -0.1241
      2  CA        23.4590   15.8970  -17.5360 C.3   108  TRP108      0.1605
      3  C         21.9290   15.8540  -17.7360 C.2   108  TRP108      0.2264
      4  O         21.4150   16.4680  -18.6800 O.2   108  TRP108     -0.2867
      5  CB        24.1380   14.6180  -18.0550 C.3   108  TRP108      0.0550
      6  CG        24.1410   14.4820  -19.5460 C.ar  108  TRP108      0.0003
      7  CD1       25.1490   14.8270  -20.4010 C.ar  108  TRP108      0.0946
      8  CD2       23.0950   13.9330  -20.3570 C.ar  108  TRP108      0.0152
      9  NE1       24.7810   14.5520  -21.7000 N.ar  108  TRP108     -0.2442
     10  CE2       23.5200   14.0150  -21.7020 C.ar  108  TRP108      0.0810
     11  CE3       21.8340   13.3780  -20.0760 C.ar  108  TRP108      0.0012
     12  CZ2       22.7370   13.5420  -22.7630 C.ar  108  TRP108      0.0191
     13  CZ3       21.0290   12.9780  -21.1320 C.ar  108  TRP108      0.0001
     14  CH2       21.4910   13.0360  -22.4550 C.ar  108  TRP108      0.0015
     15  N         20.4190   19.3470  -17.2760 N.3   111  LYS111     -0.1231
     16  CA        20.6790   20.1470  -18.4700 C.3   111  LYS111      0.1693
     17  C         19.7500   19.8030  -19.6290 C.2   111  LYS111      0.2592
     18  O         19.2670   20.7270  -20.2790 O.2   111  LYS111     -0.2718
     19  CB        22.1490   20.0360  -18.8760 C.3   111  LYS111      0.0285
     20  CG        22.5990   21.1120  -19.8590 C.3   111  LYS111      0.0035
     21  CD        24.1070   20.9970  -20.1860 C.3   111  LYS111      0.0206
     22  CE        25.0300   21.5550  -19.1320 C.3   111  LYS111      0.1093
     23  NZ        26.3930   21.8240  -19.6820 N.3   111  LYS111     -0.1314
     24  N         19.5360   18.5000  -19.9240 N.am  112  SER112     -0.1952
     25  CA        18.6340   18.0900  -21.0140 C.3   112  SER112      0.1924
     26  C         17.2050   18.5150  -20.6990 C.2   112  SER112      0.2314
     27  O         16.5300   19.0110  -21.5920 O.2   112  SER112     -0.2863
     28  CB        18.7110   16.5910  -21.2990 C.3   112  SER112      0.2116
     29  OG        18.0040   15.8390  -20.3350 O.3   112  SER112     -0.2180
     30  N         16.9690   22.2700  -21.2390 N.3   115  LYS115     -0.1231
     31  CA        16.8380   22.5170  -22.6880 C.3   115  LYS115      0.1693
     32  C         15.3780   22.3200  -23.1690 C.2   115  LYS115      0.2592
     33  O         14.8800   23.1620  -23.9000 O.2   115  LYS115     -0.2718
     34  CB        17.7670   21.6200  -23.5150 C.3   115  LYS115      0.0285
     35  CG        19.2550   21.9240  -23.3790 C.3   115  LYS115      0.0035
     36  CD        20.0530   20.9100  -24.1750 C.3   115  LYS115      0.0206
     37  CE        21.5130   20.9240  -23.8310 C.3   115  LYS115      0.1093
     38  NZ        22.2540   20.0130  -24.7270 N.3   115  LYS115     -0.1314
     39  N         14.7220   21.2180  -22.7660 N.am  116  ASN116     -0.1974
     40  CA        13.3340   20.8720  -23.1090 C.3   116  ASN116      0.1688
     41  C         12.3290   21.9100  -22.6260 C.2   116  ASN116      0.2292
     42  O         11.4220   22.2780  -23.3780 O.2   116  ASN116     -0.2864
     43  CB        12.9400   19.4760  -22.5570 C.3   116  ASN116      0.1181
     44  CG        13.7210   18.2830  -23.0650 C.2   116  ASN116      0.2629
     45  OD1       13.5740   17.1760  -22.5580 O.2   116  ASN116     -0.2716
     46  ND2       14.5600   18.4510  -24.0640 N.am  116  ASN116     -0.0877
     47  N         23.6480   25.8280  -21.9580 N.3   251  VAL251     -0.1231
     48  CA        22.9430   24.8770  -22.8310 C.3   251  VAL251      0.1692
     49  C         23.7490   24.5210  -24.0930 C.2   251  VAL251      0.2592
     50  O         23.4460   23.5160  -24.7500 O.2   251  VAL251     -0.2718
     51  CB        21.4710   25.2820  -23.1710 C.3   251  VAL251      0.0266
     52  CG1       20.6160   25.3090  -21.9160 C.3   251  VAL251      0.0020
     53  CG2       21.3720   26.6080  -23.9150 C.3   251  VAL251      0.0020
     54  N         24.7960   25.3100  -24.4060 N.am  252  GLN252     -0.1966
     55  CA        25.5640   25.1470  -25.6390 C.3   252  GLN252      0.1733
     56  C         26.9010   24.4730  -25.5050 C.2   252  GLN252      0.2616
     57  O         27.2850   23.7410  -26.4180 O.2   252  GLN252     -0.2715
     58  CB        25.7520   26.4990  -26.3510 C.3   252  GLN252      0.0408
     59  CG        24.4490   27.1760  -26.8120 C.3   252  GLN252      0.0908
     60  CD        23.6760   26.3770  -27.8420 C.2   252  GLN252      0.2608
     61  OE1       24.2070   25.5120  -28.5550 O.2   252  GLN252     -0.2717
     62  NE2       22.3820   26.5810  -27.8720 N.am  252  GLN252     -0.0878
     63  N         27.6640   24.7960  -24.4530 N.am  253  ILE253     -0.1963
     64  CA        29.0020   24.2260  -24.2530 C.3   253  ILE253      0.1727
     65  C         28.8400   22.7750  -23.7840 C.2   253  ILE253      0.2616
     66  O         28.1190   22.5020  -22.8070 O.2   253  ILE253     -0.2715
     67  CB        29.8840   25.0730  -23.2810 C.3   253  ILE253      0.0290
     68  CG1       29.9240   26.5940  -23.6460 C.3   253  ILE253      0.0022
     69  CG2       31.2970   24.5000  -23.1310 C.3   253  ILE253      0.0023
     70  CD1       30.3010   27.0260  -25.0420 C.3   253  ILE253      0.0001
     71  N         29.4600   21.8530  -24.5370 N.am  254  GLN254     -0.1963
     72  CA        29.4450   20.4170  -24.2500 C.3   254  GLN254      0.1733
     73  C         30.6570   20.0420  -23.4080 C.2   254  GLN254      0.2617
     74  O         31.7880   20.3040  -23.8620 O.2   254  GLN254     -0.2715
     75  CB        29.3500   19.5560  -25.5350 C.3   254  GLN254      0.0408
     76  CG        30.1660   20.0490  -26.7300 C.3   254  GLN254      0.0908
     77  CD        29.3980   19.9140  -28.0260 C.2   254  GLN254      0.2608
     78  OE1       28.2910   20.4540  -28.1920 O.2   254  GLN254     -0.2717
     79  NE2       29.9870   19.2130  -28.9870 N.am  254  GLN254     -0.0878
     80  N         30.4200   19.5490  -22.2090 N.am  255  THR255     -0.1951
     81  CA        31.4600   19.1960  -21.2400 C.3   255  THR255      0.1897
     82  C         30.9060   18.1590  -20.2740 C.2   255  THR255      0.2313
     83  O         29.6810   18.0020  -20.2090 O.2   255  THR255     -0.2863
     84  CB        31.9550   20.4510  -20.5210 C.3   255  THR255      0.1794
     85  OG1       33.1120   20.1680  -19.7180 O.3   255  THR255     -0.2208
     86  CG2       30.9330   21.0990  -19.6400 C.3   255  THR255      0.0378
@<TRIPOS>BOND
     1    79    77   am
     2    61    60    2
     3    78    77    2
     4    77    76    1
     5    62    60   am
     6    60    59    1
     7    59    58    1
     8    76    75    1
     9    57    56    2
    10    58    55    1
    11    55    56    1
    12    55    54    1
    13    75    72    1
    14    56    63   am
    15    70    68    1
    16    50    49    2
    17    38    37    1
    18    71    72    1
    19    71    65   am
    20    63    64    1
    21    54    49   am
    22    64    65    1
    23    64    67    1
    24    72    73    1
    25    36    37    1
    26    36    35    1
    27    49    48    1
    28    46    44   am
    29    53    51    1
    30    33    32    2
    31    74    73    2
    32    65    66    2
    33    68    67    1
    34    34    35    1
    35    34    31    1
    36    73    80   am
    37    42    41    2
    38    67    69    1
    39    51    48    1
    40    51    52    1
    41    32    39   am
    42    32    31    1
    43    40    39    1
    44    40    41    1
    45    40    43    1
    46    44    45    2
    47    44    43    1
    48    48    47    1
    49    12    14   ar
    50    12    10   ar
    51    31    30    1
    52    14    13   ar
    53    80    81    1
    54    10     9   ar
    55    10     8   ar
    56     9     7   ar
    57    27    26    2
    58    28    25    1
    59    28    29    1
    60    81    84    1
    61    81    82    1
    62    13    11   ar
    63    25    26    1
    64    25    24    1
    65    84    85    1
    66    84    86    1
    67     7     6   ar
    68     8    11   ar
    69     8     6   ar
    70    18    17    2
    71    82    83    2
    72    21    20    1
    73    21    22    1
    74    24    17   am
    75    20    19    1
    76    23    22    1
    77    17    16    1
    78     6     5    1
    79    19    16    1
    80     4     3    2
    81    16    15    1
    82     5     2    1
    83     3     2    1
    84     2     1    1
