@<TRIPOS>MOLECULE
tmp/5ap0A01.pdb
 137 125 0 0 0
SMALL
GASTEIGER

@<TRIPOS>ATOM
      1  N         -4.5850   11.4060  -12.3350 N.3    18  GLY18      -0.1210
      2  CA        -4.8160   12.6330  -11.5860 C.3    18  GLY18       0.1956
      3  C         -6.2550   13.1050  -11.5740 C.2    18  GLY18       0.2613
      4  O         -7.1060   12.5490  -12.2750 O.2    18  GLY18      -0.2717
      5  N         -6.5240   14.1340  -10.7510 N.am   19  SER19      -0.1938
      6  CA        -7.8350   14.7550  -10.5750 C.3    19  SER19       0.2055
      7  C         -7.6720   16.2440  -10.2370 C.2    19  SER19       0.2644
      8  O         -7.1110   16.5850   -9.1900 O.2    19  SER19      -0.2714
      9  CB        -8.6430   14.0280   -9.5010 C.3    19  SER19       0.2130
     10  OG        -9.8410   14.5720   -9.2540 O.3    19  SER19      -0.2179
     11  N         -8.1320   17.1020  -11.1520 N.am   20  GLY20      -0.1939
     12  CA        -8.0700   18.5550  -11.0200 C.3    20  GLY20       0.2014
     13  C         -9.4340   19.1980  -10.8610 C.2    20  GLY20       0.2639
     14  O        -10.3420   18.5950  -10.2740 O.2    20  GLY20      -0.2714
     15  N         -9.5620   20.4240  -11.3760 N.am   21  GLY21      -0.1954
     16  CA       -10.7940   21.2100  -11.3250 C.3    21  GLY21       0.1869
     17  C        -11.8540   20.6990  -12.2820 C.2    21  GLY21       0.2309
     18  O        -11.7760   20.9780  -13.4860 O.2    21  GLY21      -0.2863
     19  N        -12.1360   17.9090  -13.3550 N.3    23  SER23      -0.1217
     20  CA       -11.3660   17.0820  -14.2680 C.3    23  SER23       0.1889
     21  C        -10.7490   15.8290  -13.6460 C.2    23  SER23       0.2288
     22  O        -10.4490   15.7960  -12.4510 O.2    23  SER23      -0.2866
     23  CB       -10.2640   17.9320  -14.8900 C.3    23  SER23       0.2089
     24  OG       -10.0820   17.6040  -16.2540 O.3    23  SER23      -0.2183
     25  N         -7.7810   12.5880  -15.0630 N.3    25  VAL25      -0.1245
     26  CA        -6.8720   12.0930  -16.0940 C.3    25  VAL25       0.1561
     27  C         -6.7600   10.6000  -15.8760 C.2    25  VAL25       0.2260
     28  O         -6.4550   10.1570  -14.7620 O.2    25  VAL25      -0.2867
     29  CB        -5.4860   12.7960  -16.1310 C.3    25  VAL25       0.0252
     30  CG1       -4.5700   12.1750  -17.1930 C.3    25  VAL25       0.0019
     31  CG2       -5.6280   14.3000  -16.3590 C.3    25  VAL25       0.0019
     32  N         -7.8470   12.8610  -20.7930 N.3    39  LYS39      -0.1245
     33  CA        -8.2780   13.8870  -19.8700 C.3    39  LYS39       0.1561
     34  C         -9.8160   14.0780  -20.0240 C.2    39  LYS39       0.2260
     35  O        -10.3070   14.4160  -21.1050 O.2    39  LYS39      -0.2867
     36  CB        -7.5050   15.1970  -20.0610 C.3    39  LYS39       0.0271
     37  CG        -8.0510   16.3540  -19.2170 C.3    39  LYS39       0.0035
     38  CD        -7.1330   17.5630  -19.3440 C.3    39  LYS39       0.0206
     39  CE        -7.6380   18.7110  -18.5480 C.3    39  LYS39       0.1093
     40  NZ        -6.8580   19.9300  -18.8190 N.3    39  LYS39      -0.1314
     41  N        -13.1450   16.1680  -18.7630 N.3    41  VAL41      -0.1245
     42  CA       -13.5550   17.4500  -18.1980 C.3    41  VAL41       0.1561
     43  C        -15.0820   17.4690  -18.1280 C.2    41  VAL41       0.2260
     44  O        -15.7630   17.2750  -19.1410 O.2    41  VAL41      -0.2867
     45  CB       -12.9710   18.6910  -18.9390 C.3    41  VAL41       0.0252
     46  CG1      -13.3220   19.9840  -18.2020 C.3    41  VAL41       0.0019
     47  CG2      -11.4510   18.5800  -19.1370 C.3    41  VAL41       0.0019
     48  N        -11.4810   26.9570  -21.8190 N.3    54  TYR54      -0.1241
     49  CA       -11.2520   25.5420  -22.1370 C.3    54  TYR54       0.1605
     50  C        -11.0560   25.3410  -23.6480 C.2    54  TYR54       0.2264
     51  O        -10.1380   24.6320  -24.0560 O.2    54  TYR54      -0.2867
     52  CB       -12.4460   24.6910  -21.6520 C.3    54  TYR54       0.0534
     53  CG       -12.5950   24.5090  -20.1540 C.ar   54  TYR54      -0.0201
     54  CD1      -11.6450   25.0130  -19.2690 C.ar   54  TYR54      -0.0009
     55  CD2      -13.6830   23.8250  -19.6210 C.ar   54  TYR54      -0.0009
     56  CE1      -11.7750   24.8400  -17.8910 C.ar   54  TYR54       0.0417
     57  CE2      -13.8170   23.6350  -18.2440 C.ar   54  TYR54       0.0417
     58  CZ       -12.8400   24.1160  -17.3860 C.ar   54  TYR54       0.1957
     59  OH       -12.9570   23.9510  -16.0270 O.3    54  TYR54      -0.2866
     60  N         -7.7140   26.9900  -24.8560 N.3    57  GLU57      -0.1231
     61  CA        -6.5610   26.1740  -24.5550 C.3    57  GLU57       0.1699
     62  C         -6.4840   24.9420  -25.4730 C.2    57  GLU57       0.2592
     63  O         -5.3820   24.5570  -25.8840 O.2    57  GLU57      -0.2718
     64  CB        -6.5060   25.7600  -23.0740 C.3    57  GLU57       0.0402
     65  CG        -5.2680   24.9150  -22.8120 C.3    57  GLU57       0.1161
     66  CD        -4.4070   25.1660  -21.5950 C.2    57  GLU57       0.3649
     67  OE1       -4.6170   26.1590  -20.8660 O.co2  57  GLU57      -0.2457
     68  OE2       -3.5380   24.3110  -21.3460 O.co2  57  GLU57      -0.2457
     69  N         -7.6450   24.3340  -25.8060 N.am   58  ILE58      -0.1980
     70  CA        -7.6560   23.1630  -26.6890 C.3    58  ILE58       0.1595
     71  C         -7.1450   23.5580  -28.0750 C.2    58  ILE58       0.2287
     72  O         -6.3290   22.8420  -28.6360 O.2    58  ILE58      -0.2864
     73  CB        -9.0510   22.4540  -26.7020 C.3    58  ILE58       0.0276
     74  CG1       -9.2820   21.7060  -25.3600 C.3    58  ILE58       0.0022
     75  CG2       -9.2030   21.4830  -27.9090 C.3    58  ILE58       0.0022
     76  CD1      -10.8070   21.3660  -25.0630 C.3    58  ILE58       0.0001
     77  N         -3.3550   24.1320  -27.9290 N.3    61  LEU61      -0.1245
     78  CA        -2.7280   22.8310  -27.7990 C.3    61  LEU61       0.1561
     79  C         -2.7130   22.1110  -29.1470 C.2    61  LEU61       0.2260
     80  O         -1.6650   21.6270  -29.5710 O.2    61  LEU61      -0.2867
     81  CB        -3.4170   21.9710  -26.7200 C.3    61  LEU61       0.0270
     82  CG        -2.6810   20.6570  -26.3970 C.3    61  LEU61       0.0019
     83  CD1       -1.2460   20.9180  -25.9780 C.3    61  LEU61       0.0001
     84  CD2       -3.4050   19.8720  -25.3310 C.3    61  LEU61       0.0001
     85  N        -15.7860   17.0810  -22.0310 N.3    84  ILE84      -0.1245
     86  CA       -14.6550   17.0600  -22.9450 C.3    84  ILE84       0.1561
     87  C        -13.8890   15.7680  -22.6270 C.2    84  ILE84       0.2260
     88  O        -13.6400   15.4830  -21.4540 O.2    84  ILE84      -0.2867
     89  CB       -13.6930   18.2770  -22.8270 C.3    84  ILE84       0.0252
     90  CG1      -14.4260   19.6220  -22.9020 C.3    84  ILE84       0.0019
     91  CG2      -12.5830   18.1750  -23.9020 C.3    84  ILE84       0.0019
     92  CD1      -13.6560   20.8500  -22.3400 C.3    84  ILE84       0.0001
     93  N        -10.2310   14.2570  -23.9170 N.3    86  MET86      -0.1245
     94  CA        -9.0500   14.5420  -24.7250 C.3    86  MET86       0.1570
     95  C         -8.1320   13.3390  -24.7240 C.2    86  MET86       0.2261
     96  O         -7.6830   12.9000  -23.6570 O.2    86  MET86      -0.2867
     97  CB        -8.3140   15.7790  -24.2110 C.3    86  MET86       0.0387
     98  CG        -9.0800   17.0630  -24.4480 C.3    86  MET86       0.0595
     99  SD        -8.3310   18.4690  -23.6320 S.3    86  MET86      -0.1393
    100  CE        -9.1150   18.4170  -22.1680 C.3    86  MET86       0.0692
    101  N         -4.7230   11.9220  -25.2460 N.3    88  MET88      -0.1245
    102  CA        -3.3910   12.4740  -25.1880 C.3    88  MET88       0.1570
    103  C         -2.3080   11.4600  -24.9990 C.2    88  MET88       0.2261
    104  O         -2.5450   10.2840  -24.7470 O.2    88  MET88      -0.2867
    105  CB        -3.3160   13.5540  -24.0910 C.3    88  MET88       0.0387
    106  CG        -4.3410   14.6800  -24.2970 C.3    88  MET88       0.0595
    107  SD        -4.4280   15.8640  -22.9560 S.3    88  MET88      -0.1393
    108  CE        -3.0890   16.8290  -23.3510 C.3    88  MET88       0.0692
    109  N          2.6520   20.3790  -20.4640 N.3   149  ILE149     -0.1231
    110  CA         1.3430   19.7310  -20.5730 C.3   149  ILE149      0.1692
    111  C          0.1810   20.7200  -20.7080 C.2   149  ILE149      0.2592
    112  O         -0.8830   20.3430  -21.2290 O.2   149  ILE149     -0.2718
    113  CB         1.0800   18.6620  -19.4570 C.3   149  ILE149      0.0266
    114  CG1        0.9060   19.2830  -18.0550 C.3   149  ILE149      0.0019
    115  CG2        2.1950   17.6290  -19.4600 C.3   149  ILE149      0.0020
    116  CD1        0.0350   18.4560  -17.1250 C.3   149  ILE149      0.0001
    117  N          0.3830   21.9720  -20.2690 N.am  150  ASP150     -0.1974
    118  CA        -0.6780   22.9710  -20.3550 C.3   150  ASP150      0.1709
    119  C         -0.1130   24.3860  -20.6060 C.2   150  ASP150      0.2293
    120  O          1.1020   24.6210  -20.4530 O.2   150  ASP150     -0.2864
    121  CB        -1.6120   22.8900  -19.1340 C.3   150  ASP150      0.1436
    122  CG        -0.9300   23.2770  -17.8500 C.2   150  ASP150      0.3671
    123  OD1       -0.8280   24.4890  -17.5790 O.co2 150  ASP150     -0.2456
    124  OD2       -0.5290   22.3760  -17.1050 O.co2 150  ASP150     -0.2456
    125  N         -6.6150   27.7860  -19.6190 N.3   154  ALA154     -0.1231
    126  CA        -7.8570   27.2660  -19.0220 C.3   154  ALA154      0.1694
    127  C         -7.9330   27.5460  -17.5190 C.2   154  ALA154      0.2592
    128  O         -6.9040   27.4520  -16.8390 O.2   154  ALA154     -0.2718
    129  CB        -7.9900   25.7740  -19.2850 C.3   154  ALA154      0.0304
    130  N         -9.1580   27.8860  -17.0120 N.am  155  ASN155     -0.1974
    131  CA        -9.4720   28.1850  -15.6050 C.3   155  ASN155      0.1688
    132  C         -9.0600   27.0540  -14.6500 C.2   155  ASN155      0.2292
    133  O         -9.3340   25.8810  -14.9070 O.2   155  ASN155     -0.2864
    134  CB       -10.9730   28.4920  -15.4380 C.3   155  ASN155      0.1181
    135  CG       -11.4050   29.9150  -15.7320 C.2   155  ASN155      0.2629
    136  OD1      -10.6910   30.7190  -16.3480 O.2   155  ASN155     -0.2716
    137  ND2      -12.6130   30.2530  -15.3030 N.am  155  ASN155     -0.0877
@<TRIPOS>BOND
     1    80    79    2
     2    79    78    1
     3    72    71    2
     4    71    70    1
     5    77    78    1
     6    75    73    1
     7    78    81    1
     8    81    82    1
     9    73    70    1
    10    73    74    1
    11    70    69    1
    12    82    83    1
    13    82    84    1
    14    63    62    2
    15    69    62   am
    16    62    61    1
    17    74    76    1
    18   101   102    1
    19   102   103    1
    20   102   105    1
    21   103   104    2
    22    60    61    1
    23    94    95    1
    24    94    97    1
    25    94    93    1
    26    95    96    2
    27    61    64    1
    28    98    97    1
    29    98    99    1
    30   106   105    1
    31   106   107    1
    32    51    50    2
    33    91    89    1
    34    50    49    1
    35    99   100    1
    36   108   107    1
    37    64    65    1
    38    86    89    1
    39    86    87    1
    40    86    85    1
    41    90    89    1
    42    90    92    1
    43    65    66    1
    44    87    88    2
    45    49    48    1
    46    49    52    1
    47    52    53    1
    48    66    68   ar
    49    66    67   ar
    50   112   111    2
    51    35    34    2
    52    32    33    1
    53   111   110    1
    54   111   117   am
    55   119   120    2
    56   119   118    1
    57   110   109    1
    58   110   113    1
    59   118   117    1
    60   118   121    1
    61    53    55   ar
    62    53    54   ar
    63    36    33    1
    64    36    37    1
    65    34    33    1
    66    55    57   ar
    67   125   126    1
    68   115   113    1
    69   113   114    1
    70    38    37    1
    71    38    39    1
    72   129   126    1
    73    54    56   ar
    74    44    43    2
    75    47    45    1
    76   121   122    1
    77   126   127    1
    78    45    46    1
    79    45    42    1
    80    40    39    1
    81    41    42    1
    82    57    58   ar
    83    42    43    1
    84   114   116    1
    85    56    58   ar
    86   122   123   ar
    87   122   124   ar
    88   127   130   am
    89   127   128    2
    90    58    59    1
    91    30    29    1
    92   130   131    1
    93    31    29    1
    94   136   135    2
    95    24    23    1
    96    29    26    1
    97    26    27    1
    98    26    25    1
    99    27    28    2
   100   135   134    1
   101   135   137   am
   102   131   134    1
   103   131   132    1
   104   133   132    2
   105    23    20    1
   106    20    21    1
   107    20    19    1
   108    21    22    2
   109    18    17    2
   110     1     2    1
   111    17    16    1
   112     4     3    2
   113     2     3    1
   114     3     5   am
   115    15    16    1
   116    15    13   am
   117    11    12    1
   118    11     7   am
   119    12    13    1
   120    13    14    2
   121     5     6    1
   122     6     7    1
   123     6     9    1
   124     7     8    2
   125     9    10    1
