@<TRIPOS>MOLECULE
tmp/5ap2A00.pdb
 202 187 0 0 0
SMALL
GASTEIGER

@<TRIPOS>ATOM
      1  N          5.0350  -37.8630   -6.2730 N.3    16  ILE16      -0.1231
      2  CA         3.8240  -38.2380   -6.9900 C.3    16  ILE16       0.1692
      3  C          4.0210  -39.3940   -7.9600 C.2    16  ILE16       0.2592
      4  O          3.2130  -40.3180   -8.0090 O.2    16  ILE16      -0.2718
      5  CB         3.2570  -37.0430   -7.7710 C.3    16  ILE16       0.0266
      6  CG1        3.0720  -35.8440   -6.8430 C.3    16  ILE16       0.0019
      7  CG2        1.9430  -37.4180   -8.4330 C.3    16  ILE16       0.0020
      8  CD1        2.7030  -34.5680   -7.5650 C.3    16  ILE16       0.0001
      9  N          5.0980  -39.3350   -8.7330 N.am   17  GLY17      -0.1957
     10  CA         5.3940  -40.3770   -9.6970 C.3    17  GLY17       0.1869
     11  C          6.8400  -40.3810  -10.1430 C.2    17  GLY17       0.2309
     12  O          7.5360  -39.3750  -10.0180 O.2    17  GLY17      -0.2863
     13  N          8.6190  -36.8450  -10.3460 N.3    24  VAL24      -0.1245
     14  CA         7.6340  -35.8240   -9.9970 C.3    24  VAL24       0.1561
     15  C          7.3630  -35.8330   -8.4980 C.2    24  VAL24       0.2260
     16  O          7.2010  -36.8960   -7.9050 O.2    24  VAL24      -0.2867
     17  CB         6.3120  -36.0300  -10.7530 C.3    24  VAL24       0.0252
     18  CG1        5.5510  -34.7180  -10.8460 C.3    24  VAL24       0.0019
     19  CG2        6.5740  -36.5970  -12.1380 C.3    24  VAL24       0.0019
     20  N          5.4580  -33.8160   -4.9140 N.3    26  GLN26      -0.1245
     21  CA         4.5070  -32.8960   -4.2810 C.3    26  GLN26       0.1566
     22  C          5.3810  -32.0100   -3.3880 C.2    26  GLN26       0.2260
     23  O          6.0790  -32.5300   -2.5160 O.2    26  GLN26      -0.2867
     24  CB         3.4870  -33.6850   -3.4490 C.3    26  GLN26       0.0367
     25  CG         2.2220  -32.9100   -3.1740 C.3    26  GLN26       0.0905
     26  CD         1.1790  -33.7530   -2.4980 C.2    26  GLN26       0.2608
     27  OE1        1.2930  -34.0980   -1.3040 O.2    26  GLN26      -0.2717
     28  NE2        0.1180  -34.0690   -3.2360 N.am   26  GLN26      -0.0878
     29  N          3.8200  -29.0830   -8.0810 N.3    36  ALA36      -0.1245
     30  CA         4.4370  -30.3250   -8.5520 C.3    36  ALA36       0.1562
     31  C          5.7530  -29.9500   -9.2420 C.2    36  ALA36       0.2260
     32  O          5.7910  -28.9420   -9.9660 O.2    36  ALA36      -0.2867
     33  CB         3.5330  -31.0440   -9.5310 C.3    36  ALA36       0.0290
     34  N          8.6610  -31.4540  -11.7770 N.3    38  LYS38      -0.1245
     35  CA         9.1920  -32.5140  -12.6220 C.3    38  LYS38       0.1561
     36  C         10.6920  -32.2560  -12.7300 C.2    38  LYS38       0.2260
     37  O         11.1170  -31.2640  -13.3510 O.2    38  LYS38      -0.2867
     38  CB         8.5420  -32.5620  -14.0170 C.3    38  LYS38       0.0271
     39  CG         9.1090  -33.6560  -14.9280 C.3    38  LYS38       0.0035
     40  CD         8.6060  -33.5040  -16.3510 C.3    38  LYS38       0.0206
     41  CE         8.2890  -34.8340  -16.9840 C.3    38  LYS38       0.1093
     42  NZ         7.5320  -34.6580  -18.2580 N.3    38  LYS38      -0.1314
     43  N          8.5190  -30.0290  -25.4770 N.3    56  GLU56      -0.1245
     44  CA         7.4460  -30.1340  -24.4670 C.3    56  GLU56       0.1567
     45  C          7.3690  -28.9050  -23.5670 C.2    56  GLU56       0.2260
     46  O          6.2660  -28.4360  -23.3150 O.2    56  GLU56      -0.2867
     47  CB         7.5540  -31.4180  -23.6230 C.3    56  GLU56       0.0388
     48  CG         6.2430  -31.7950  -22.9390 C.3    56  GLU56       0.1160
     49  CD         6.3320  -32.7390  -21.7510 C.2    56  GLU56       0.3649
     50  OE1        7.1070  -32.4510  -20.8070 O.co2  56  GLU56      -0.2457
     51  OE2        5.6050  -33.7610  -21.7560 O.co2  56  GLU56      -0.2457
     52  N          4.2290  -26.2190  -23.6660 N.3    60  LEU60      -0.1245
     53  CA         3.6440  -26.0140  -22.3470 C.3    60  LEU60       0.1561
     54  C          3.6920  -24.5480  -21.9690 C.2    60  LEU60       0.2260
     55  O          2.8260  -24.0580  -21.2790 O.2    60  LEU60      -0.2867
     56  CB         4.4150  -26.8790  -21.3420 C.3    60  LEU60       0.0270
     57  CG         3.8600  -27.1270  -19.9450 C.3    60  LEU60       0.0019
     58  CD1        2.3550  -27.1300  -19.9220 C.3    60  LEU60       0.0001
     59  CD2        4.3680  -28.4530  -19.4110 C.3    60  LEU60       0.0001
     60  N         -2.0940  -27.5140  -17.9680 N.3    71  ILE71      -0.1245
     61  CA        -1.3980  -27.4340  -16.6780 C.3    71  ILE71       0.1561
     62  C         -0.5400  -26.1510  -16.5850 C.2    71  ILE71       0.2260
     63  O          0.1530  -25.8350  -17.5480 O.2    71  ILE71      -0.2867
     64  CB        -0.5830  -28.7470  -16.4870 C.3    71  ILE71       0.0252
     65  CG1       -0.1340  -28.9410  -15.0580 C.3    71  ILE71       0.0019
     66  CG2        0.5880  -28.8960  -17.4680 C.3    71  ILE71       0.0019
     67  CD1       -0.0880  -30.3480  -14.7370 C.3    71  ILE71       0.0001
     68  N         11.0350  -28.2690  -13.2120 N.3    85  MET85      -0.1245
     69  CA         9.8220  -27.6470  -13.7790 C.3    85  MET85       0.1570
     70  C          8.8010  -27.4240  -12.6960 C.2    85  MET85       0.2261
     71  O          8.2820  -28.3960  -12.1630 O.2    85  MET85      -0.2867
     72  CB         9.1920  -28.5360  -14.8530 C.3    85  MET85       0.0387
     73  CG         9.8950  -28.5180  -16.1760 C.3    85  MET85       0.0595
     74  SD         9.0410  -29.6990  -17.2220 S.3    85  MET85      -0.1393
     75  CE         7.8450  -28.6360  -18.0010 C.3    85  MET85       0.0692
     76  N          5.2530  -26.7240  -11.6660 N.3    87  MET87      -0.1230
     77  CA         3.8810  -26.6970  -12.1690 C.3    87  MET87       0.1702
     78  C          2.8150  -26.7400  -11.0560 C.2    87  MET87       0.2595
     79  O          3.1480  -26.9970   -9.8940 O.2    87  MET87      -0.2718
     80  CB         3.6410  -27.8590  -13.1450 C.3    87  MET87       0.0401
     81  CG         4.5720  -27.9210  -14.3290 C.3    87  MET87       0.0596
     82  SD         4.4470  -29.5970  -15.0110 S.3    87  MET87      -0.1393
     83  CE         5.4730  -30.4680  -13.8840 C.3    87  MET87       0.0692
     84  N          1.5210  -26.4900  -11.4270 N.am   88  GLU88      -0.1920
     85  CA         0.3820  -26.5380  -10.5000 C.3    88  GLU88       0.1949
     86  C          0.0690  -27.9890  -10.1340 C.2    88  GLU88       0.2659
     87  O          0.2500  -28.8770  -10.9690 O.2    88  GLU88      -0.2711
     88  CB        -0.8450  -25.7680  -11.0240 C.2    88  GLU88       0.0111
     89  CG        -1.6220  -26.4310  -12.1500 C.2    88  GLU88       0.0838
     90  CD        -2.7610  -25.6160  -12.7360 C.2    88  GLU88       0.3877
     91  OE1       -3.4680  -24.9180  -11.9710 O.co2  88  GLU88      -0.2406
     92  OE2       -2.9560  -25.6880  -13.9710 O.co2  88  GLU88      -0.2406
     93  N         -0.3210  -28.2280   -8.8650 N.am   89  CYS89      -0.1951
     94  CA        -0.5650  -29.5580   -8.3130 C.3    89  CYS89       0.1843
     95  C         -2.0250  -29.9780   -8.3600 C.2    89  CYS89       0.2626
     96  O         -2.8960  -29.3690   -7.7060 O.2    89  CYS89      -0.2714
     97  CB         0.0100  -29.6780   -6.9010 C.3    89  CYS89       0.0997
     98  SG         0.2320  -31.3860   -6.3270 S.3    89  CYS89      -0.0797
     99  N         -2.2690  -31.0300   -9.1350 N.am   90  GLY90      -0.1940
    100  CA        -3.5820  -31.6460   -9.2530 C.3    90  GLY90       0.2014
    101  C         -3.8460  -32.5910   -8.0890 C.2    90  GLY90       0.2639
    102  O         -2.9250  -32.9540   -7.3440 O.2    90  GLY90      -0.2714
    103  N         -5.1090  -32.9870   -7.9230 N.am   91  ASN91      -0.1958
    104  CA        -5.5350  -33.8940   -6.8620 C.3    91  ASN91       0.1819
    105  C         -5.2190  -35.3460   -7.2620 C.2    91  ASN91       0.2621
    106  O         -4.5600  -36.0590   -6.4970 O.2    91  ASN91      -0.2715
    107  CB        -7.0280  -33.6960   -6.5560 C.3    91  ASN91       0.1195
    108  CG        -7.4070  -32.2900   -6.1220 C.2    91  ASN91       0.2630
    109  OD1       -6.9130  -31.2780   -6.6460 O.2    91  ASN91      -0.2716
    110  ND2       -8.3290  -32.1950   -5.1700 N.am   91  ASN91      -0.0877
    111  N         -5.6380  -35.7570   -8.4850 N.am   92  ILE92      -0.1963
    112  CA        -5.4240  -37.1000   -9.0470 C.3    92  ILE92       0.1727
    113  C         -5.4480  -37.0700  -10.5810 C.2    92  ILE92       0.2616
    114  O         -6.0590  -36.1700  -11.1550 O.2    92  ILE92      -0.2715
    115  CB        -6.4750  -38.1050   -8.4630 C.3    92  ILE92       0.0290
    116  CG1       -6.2450  -39.5490   -8.9750 C.3    92  ILE92       0.0022
    117  CG2       -7.9240  -37.6330   -8.6900 C.3    92  ILE92       0.0023
    118  CD1       -6.9340  -40.6150   -8.2110 C.3    92  ILE92       0.0001
    119  N         -4.8160  -38.0560  -11.2460 N.am   93  ASP93      -0.1971
    120  CA        -4.9040  -38.1770  -12.7090 C.3    93  ASP93       0.1709
    121  C         -6.2450  -38.8690  -13.0750 C.2    93  ASP93       0.2293
    122  O         -6.8080  -39.5720  -12.2360 O.2    93  ASP93      -0.2864
    123  CB        -3.6970  -38.9260  -13.3060 C.3    93  ASP93       0.1436
    124  CG        -3.5910  -40.3760  -12.9060 C.2    93  ASP93       0.3671
    125  OD1       -3.0660  -40.6460  -11.8100 O.co2  93  ASP93      -0.2456
    126  OD2       -4.0040  -41.2420  -13.7020 O.co2  93  ASP93      -0.2456
    127  N         -6.0800  -43.0930  -12.7280 N.3    96  SER96      -0.1217
    128  CA        -6.1420  -43.5760  -11.3390 C.3    96  SER96       0.1889
    129  C         -7.5390  -43.3480  -10.7620 C.2    96  SER96       0.2288
    130  O         -8.0690  -44.2270  -10.0950 O.2    96  SER96      -0.2866
    131  CB        -5.1060  -42.8690  -10.4730 C.3    96  SER96       0.2089
    132  OG        -3.7860  -43.1580  -10.9010 O.3    96  SER96      -0.2183
    133  N        -10.4520  -46.1610   -9.6710 N.3   100  LYS100     -0.1245
    134  CA       -11.0380  -46.0610   -8.3400 C.3   100  LYS100      0.1561
    135  C        -12.5430  -45.8210   -8.3770 C.2   100  LYS100      0.2260
    136  O        -13.2970  -46.3820   -7.5850 O.2   100  LYS100     -0.2867
    137  CB       -10.3560  -44.9520   -7.5370 C.3   100  LYS100      0.0271
    138  CG        -9.1160  -45.3850   -6.8060 C.3   100  LYS100      0.0035
    139  CD        -8.5810  -44.2360   -5.9910 C.3   100  LYS100      0.0206
    140  CE        -7.1720  -44.5240   -5.5680 C.3   100  LYS100      0.1093
    141  NZ        -6.2750  -44.5740   -6.7570 N.3   100  LYS100     -0.1314
    142  N         -4.6440  -41.0360  -18.7170 N.3   136  ALA136     -0.1245
    143  CA        -3.5010  -40.6300  -17.9030 C.3   136  ALA136      0.1562
    144  C         -3.0440  -39.2150  -18.2410 C.2   136  ALA136      0.2260
    145  O         -2.7400  -38.4440  -17.3260 O.2   136  ALA136     -0.2867
    146  CB        -2.3580  -41.6130  -18.0620 C.3   136  ALA136      0.0290
    147  N         -5.5150  -34.6210  -15.8890 N.3   139  LEU139     -0.1245
    148  CA        -5.3460  -34.4030  -14.4740 C.3   139  LEU139      0.1561
    149  C         -6.4710  -33.5830  -13.8630 C.2   139  LEU139      0.2260
    150  O         -6.8260  -32.5230  -14.4000 O.2   139  LEU139     -0.2867
    151  CB        -3.9750  -33.7420  -14.2330 C.3   139  LEU139      0.0270
    152  CG        -3.5740  -33.3690  -12.7840 C.3   139  LEU139      0.0019
    153  CD1       -3.3530  -34.5850  -11.9070 C.3   139  LEU139      0.0001
    154  CD2       -2.3290  -32.5420  -12.7810 C.3   139  LEU139      0.0001
    155  N         -1.9630  -32.8280  -18.9630 N.3   148  ILE148     -0.1231
    156  CA        -0.6350  -32.9360  -18.3500 C.3   148  ILE148      0.1692
    157  C          0.4800  -32.8080  -19.4050 C.2   148  ILE148      0.2592
    158  O          1.4070  -32.0420  -19.1790 O.2   148  ILE148     -0.2718
    159  CB        -0.5350  -34.2320  -17.4790 C.3   148  ILE148      0.0266
    160  CG1       -0.7760  -33.9150  -16.0280 C.3   148  ILE148      0.0019
    161  CG2        0.7980  -34.9940  -17.6330 C.3   148  ILE148      0.0020
    162  CD1       -0.8680  -35.2040  -15.1290 C.3   148  ILE148      0.0001
    163  N          0.3830  -33.5300  -20.5470 N.am  149  ASP149     -0.1974
    164  CA         1.4130  -33.5010  -21.5970 C.3   149  ASP149      0.1709
    165  C          0.8530  -33.5200  -23.0190 C.2   149  ASP149      0.2293
    166  O         -0.3490  -33.7220  -23.2050 O.2   149  ASP149     -0.2864
    167  CB         2.3980  -34.6690  -21.4070 C.3   149  ASP149      0.1436
    168  CG         1.8840  -36.0020  -21.9280 C.2   149  ASP149      0.3671
    169  OD1        0.7810  -36.4180  -21.5060 O.co2 149  ASP149     -0.2456
    170  OD2        2.5810  -36.6210  -22.7710 O.co2 149  ASP149     -0.2456
    171  N          4.9420  -40.7680  -17.7890 N.3   156  MET156     -0.1230
    172  CA         5.2700  -41.2220  -16.4390 C.3   156  MET156      0.1702
    173  C          4.1710  -42.1090  -15.8260 C.2   156  MET156      0.2592
    174  O          3.1090  -42.2960  -16.4380 O.2   156  MET156     -0.2718
    175  CB         5.5630  -40.0060  -15.5450 C.3   156  MET156      0.0401
    176  CG         6.6320  -39.0930  -16.1170 C.3   156  MET156      0.0596
    177  SD         7.2680  -37.8740  -14.9610 S.3   156  MET156     -0.1393
    178  CE         8.3620  -38.8020  -14.1330 C.3   156  MET156      0.0692
    179  N          4.4460  -42.6660  -14.6250 N.am  157  GLN157     -0.1966
    180  CA         3.5410  -43.5440  -13.8920 C.3   157  GLN157      0.1718
    181  C          3.6080  -43.2600  -12.3750 C.2   157  GLN157      0.2458
    182  O          4.7160  -43.1270  -11.8380 O.2   157  GLN157     -0.2730
    183  CB         3.8730  -45.0150  -14.1940 C.3   157  GLN157      0.0407
    184  CG         5.3310  -45.3480  -13.9220 C.3   157  GLN157      0.0908
    185  CD         5.5810  -46.8380  -13.9880 C.2   157  GLN157      0.2608
    186  OE1        4.8970  -47.6120  -14.6970 O.2   157  GLN157     -0.2717
    187  NE2        6.5870  -47.2530  -13.2360 N.am  157  GLN157     -0.0878
    188  N          2.4380  -43.1810  -11.6680 N.am  158  PRO158     -0.2716
    189  CA         2.4530  -42.8680  -10.2160 C.3   158  PRO158      0.1536
    190  C          3.2550  -43.8220   -9.3200 C.2   158  PRO158      0.2598
    191  O          3.6260  -44.9110   -9.7590 O.2   158  PRO158     -0.2715
    192  CB         0.9700  -42.8630   -9.8390 C.3   158  PRO158      0.0310
    193  CG         0.2370  -42.6420  -11.1030 C.3   158  PRO158      0.0237
    194  CD         1.0520  -43.2990  -12.1740 C.3   158  PRO158      0.0939
    195  N          3.5250  -43.4080   -8.0580 N.am  159  ASP159     -0.1972
    196  CA         4.2920  -44.1910   -7.0860 C.3   159  ASP159      0.1709
    197  C          3.4820  -44.5100   -5.8200 C.2   159  ASP159      0.2293
    198  O          3.2260  -43.6370   -4.9880 O.2   159  ASP159     -0.2864
    199  CB         5.6270  -43.4870   -6.7420 C.3   159  ASP159      0.1436
    200  CG         6.7730  -43.6780   -7.7300 C.2   159  ASP159      0.3671
    201  OD1        6.5020  -44.0110   -8.9060 O.co2 159  ASP159     -0.2456
    202  OD2        7.9400  -43.4660   -7.3330 O.co2 159  ASP159     -0.2456
@<TRIPOS>BOND
     1    43    44    1
     2    44    47    1
     3    44    45    1
     4    52    53    1
     5    47    48    1
     6    45    46    2
     7   166   165    2
     8   165   164    1
     9    48    49    1
    10   170   168   ar
    11    53    54    1
    12    53    56    1
    13    54    55    2
    14   168   169   ar
    15   168   167    1
    16    51    49   ar
    17    49    50   ar
    18   164   167    1
    19   164   163    1
    20    56    57    1
    21   163   157   am
    22    57    58    1
    23    57    59    1
    24   157   158    2
    25   157   156    1
    26   155   156    1
    27   142   143    1
    28   156   159    1
    29    42    41    1
    30   144   143    1
    31   144   145    2
    32   146   143    1
    33    75    74    1
    34    60    61    1
    35   171   172    1
    36   161   159    1
    37    63    62    2
    38   159   160    1
    39    66    64    1
    40    74    73    1
    41    41    40    1
    42    61    62    1
    43    61    64    1
    44    64    65    1
    45   172   173    1
    46   172   175    1
    47   174   173    2
    48    40    39    1
    49    73    72    1
    50   176   175    1
    51   176   177    1
    52   160   162    1
    53   147   148    1
    54   173   179   am
    55    65    67    1
    56    82    81    1
    57    82    83    1
    58   177   178    1
    59    39    38    1
    60    72    69    1
    61   186   185    2
    62   179   180    1
    63   148   151    1
    64   148   149    1
    65   150   149    2
    66    81    80    1
    67   151   152    1
    68   183   184    1
    69   183   180    1
    70    38    35    1
    71   185   184    1
    72   185   187   am
    73    92    90   ar
    74   180   181    1
    75    69    68    1
    76    69    70    1
    77   126   124   ar
    78    37    36    2
    79   123   124    1
    80   123   120    1
    81    80    77    1
    82   121   120    1
    83   121   122    2
    84   124   125   ar
    85   152   154    1
    86   152   153    1
    87    90    89    1
    88    90    91   ar
    89    36    35    1
    90   127   128    1
    91   120   119    1
    92    70    71    2
    93    35    34    1
    94   181   182    2
    95   181   188   am
    96   194   188    1
    97   194   193    1
    98    77    76    1
    99    77    78    1
   100    89    88    2
   101    19    17    1
   102   188   189    1
   103    84    78   am
   104    84    85    1
   105   128   129    1
   106   128   131    1
   107   119   113   am
   108   114   113    2
   109   193   192    1
   110    78    79    2
   111    88    85    1
   112    87    86    2
   113   132   131    1
   114    18    17    1
   115   129   130    2
   116    17    14    1
   117   113   112    1
   118    85    86    1
   119    13    14    1
   120   189   192    1
   121   189   190    1
   122    11    12    2
   123    11    10    1
   124    86    93   am
   125    14    15    1
   126    32    31    2
   127   191   190    2
   128    10     9    1
   129   133   134    1
   130    33    30    1
   131   190   195   am
   132   100    99    1
   133   100   101    1
   134    31    30    1
   135    99    95   am
   136   112   111    1
   137   112   115    1
   138   116   115    1
   139   116   118    1
   140   201   200   ar
   141    93    94    1
   142     9     3   am
   143   117   115    1
   144    30    29    1
   145    15    16    2
   146   111   105   am
   147     7     5    1
   148   135   134    1
   149   135   136    2
   150    95    94    1
   151    95    96    2
   152   134   137    1
   153    94    97    1
   154   101   103   am
   155   101   102    2
   156   195   196    1
   157     4     3    2
   158     3     2    1
   159   103   104    1
   160     5     2    1
   161     5     6    1
   162   200   202   ar
   163   200   199    1
   164     8     6    1
   165   137   138    1
   166   105   104    1
   167   105   106    2
   168   196   199    1
   169   196   197    1
   170     2     1    1
   171    97    98    1
   172   104   107    1
   173   138   139    1
   174   141   140    1
   175   109   108    2
   176   107   108    1
   177   108   110   am
   178   139   140    1
   179   197   198    2
   180    20    21    1
   181    21    24    1
   182    21    22    1
   183    24    25    1
   184    22    23    2
   185    28    26   am
   186    25    26    1
   187    26    27    2
