@<TRIPOS>MOLECULE
tmp/5ap3A03.pdb
 92 89 0 0 0
SMALL
GASTEIGER

@<TRIPOS>ATOM
      1  N        -17.8100   23.8390  131.3000 N.3    48  GLN48      -0.1245
      2  CA       -16.4410   23.3070  131.2610 C.3    48  GLN48       0.1566
      3  C        -15.4480   24.4560  131.0580 C.2    48  GLN48       0.2260
      4  O        -14.4160   24.4960  131.7330 O.2    48  GLN48      -0.2867
      5  CB       -16.2780   22.2520  130.1560 C.3    48  GLN48       0.0367
      6  CG       -17.0920   20.9710  130.3260 C.3    48  GLN48       0.0905
      7  CD       -16.7880   20.2650  131.6230 C.2    48  GLN48       0.2608
      8  OE1      -15.6020   20.0090  131.9090 O.2    48  GLN48      -0.2717
      9  NE2      -17.7640   20.0590  132.4490 N.am   48  GLN48      -0.0878
     10  N        -15.2950   26.6800  134.3050 N.3    51  ASP51      -0.1225
     11  CA       -14.4690   26.0710  135.3340 C.3    51  ASP51       0.1805
     12  C        -12.9790   26.1230  135.0080 C.2    51  ASP51       0.2598
     13  O        -12.1800   26.2690  135.9350 O.2    51  ASP51      -0.2718
     14  CB       -14.9360   24.6590  135.6750 C.3    51  ASP51       0.1424
     15  CG       -15.0790   24.5020  137.1670 C.2    51  ASP51       0.3668
     16  OD1      -16.1660   24.8360  137.6980 O.co2  51  ASP51      -0.2456
     17  OD2      -14.0730   24.1570  137.8200 O.co2  51  ASP51      -0.2456
     18  N        -12.6020   26.0770  133.7090 N.am   52  SER52      -0.1952
     19  CA       -11.1960   26.1980  133.2970 C.3    52  SER52       0.1924
     20  C        -10.6750   27.6200  133.6220 C.2    52  SER52       0.2314
     21  O         -9.5230   27.7880  134.0360 O.2    52  SER52      -0.2863
     22  CB       -11.0210   25.8520  131.8170 C.3    52  SER52       0.2116
     23  OG       -11.1730   26.9560  130.9380 O.3    52  SER52      -0.2180
     24  N        -10.4000   28.0690  137.5290 N.3    55  ASN55      -0.1240
     25  CA        -9.2070   27.3330  137.9200 C.3    55  ASN55       0.1653
     26  C         -7.9430   28.1560  137.6870 C.2    55  ASN55       0.2266
     27  O         -7.1370   28.2910  138.6040 O.2    55  ASN55      -0.2867
     28  CB        -9.1380   26.0020  137.1740 C.3    55  ASN55       0.1155
     29  CG        -8.3150   24.9640  137.8770 C.2    55  ASN55       0.2627
     30  OD1       -7.2300   24.6050  137.4230 O.2    55  ASN55      -0.2716
     31  ND2       -8.8110   24.4610  139.0050 N.am   55  ASN55      -0.0877
     32  N         -5.3340   29.7300  140.5410 N.3    59  TYR59      -0.1241
     33  CA        -3.9220   29.4140  140.5010 C.3    59  TYR59       0.1605
     34  C         -3.0830   30.6650  140.3990 C.2    59  TYR59       0.2264
     35  O         -2.1340   30.8020  141.1660 O.2    59  TYR59      -0.2867
     36  CB        -3.5910   28.3750  139.4160 C.3    59  TYR59       0.0534
     37  CG        -3.7300   26.9500  139.9210 C.ar   59  TYR59      -0.0201
     38  CD1       -2.8560   26.4400  140.8790 C.ar   59  TYR59      -0.0009
     39  CD2       -4.7580   26.1260  139.4710 C.ar   59  TYR59      -0.0009
     40  CE1       -2.9920   25.1410  141.3620 C.ar   59  TYR59       0.0417
     41  CE2       -4.9040   24.8260  139.9490 C.ar   59  TYR59       0.0417
     42  CZ        -4.0250   24.3420  140.9040 C.ar   59  TYR59       0.1957
     43  OH        -4.1630   23.0640  141.3830 O.3    59  TYR59      -0.2866
     44  N          5.3510   24.4330  138.0850 N.3   124  HIS124     -0.1226
     45  CA         5.6400   22.9950  138.2330 C.3   124  HIS124      0.1752
     46  C          5.5450   22.5450  139.6880 C.2   124  HIS124      0.2596
     47  O          5.0670   21.4470  139.9610 O.2   124  HIS124     -0.2718
     48  CB         7.0440   22.6580  137.6940 C.3   124  HIS124      0.0759
     49  CG         7.1750   22.6530  136.2010 C.ar  124  HIS124      0.0818
     50  ND1        8.3960   22.4210  135.5910 N.ar  124  HIS124     -0.2268
     51  CD2        6.2400   22.8300  135.2410 C.ar  124  HIS124      0.1154
     52  CE1        8.1690   22.4950  134.2910 C.ar  124  HIS124      0.1986
     53  NE2        6.8840   22.7310  134.0340 N.ar  124  HIS124     -0.2212
     54  N          6.0020   23.3970  140.6160 N.am  125  GLN125     -0.1965
     55  CA         5.9890   23.1280  142.0460 C.3   125  GLN125      0.1733
     56  C          4.5880   22.9540  142.5920 C.2   125  GLN125      0.2616
     57  O          4.4260   22.3100  143.6290 O.2   125  GLN125     -0.2715
     58  CB         6.7620   24.2010  142.8120 C.3   125  GLN125      0.0408
     59  CG         8.2510   24.0840  142.5960 C.3   125  GLN125      0.0908
     60  CD         9.0490   25.0410  143.4300 C.2   125  GLN125      0.2608
     61  OE1        8.8700   26.2620  143.3570 O.2   125  GLN125     -0.2717
     62  NE2       10.0040   24.5030  144.1900 N.am  125  GLN125     -0.0878
     63  N          3.5730   23.4710  141.8680 N.am  126  HIS126     -0.1959
     64  CA         2.1430   23.3780  142.2170 C.3   126  HIS126      0.1787
     65  C          1.3790   22.3590  141.3380 C.2   126  HIS126      0.2621
     66  O          0.1470   22.2910  141.3720 O.2   126  HIS126     -0.2715
     67  CB         1.5020   24.7800  142.2000 C.3   126  HIS126      0.0785
     68  CG         2.1240   25.7060  143.2080 C.ar  126  HIS126      0.0821
     69  ND1        3.3780   26.2820  142.9910 N.ar  126  HIS126     -0.2267
     70  CD2        1.6760   26.0890  144.4280 C.ar  126  HIS126      0.1154
     71  CE1        3.6360   27.0020  144.0730 C.ar  126  HIS126      0.1986
     72  NE2        2.6370   26.9250  144.9630 N.ar  126  HIS126     -0.2212
     73  N          2.1320   21.5470  140.6020 N.am  127  GLY127     -0.1940
     74  CA         1.6090   20.5030  139.7310 C.3   127  GLY127      0.2014
     75  C          1.1280   20.9760  138.3740 C.2   127  GLY127      0.2638
     76  O          0.4300   20.2330  137.6790 O.2   127  GLY127     -0.2714
     77  N          1.5170   22.1780  137.9720 N.am  128  ILE128     -0.1977
     78  CA         1.0450   22.7180  136.7070 C.3   128  ILE128      0.1596
     79  C          2.0930   22.6470  135.6080 C.2   128  ILE128      0.2287
     80  O          3.2160   23.1120  135.7720 O.2   128  ILE128     -0.2864
     81  CB         0.5950   24.1810  136.8460 C.3   128  ILE128      0.0276
     82  CG1       -0.3140   24.3480  138.0590 C.3   128  ILE128      0.0022
     83  CG2       -0.1160   24.6350  135.5850 C.3   128  ILE128      0.0022
     84  CD1       -0.4410   25.7800  138.5230 C.3   128  ILE128      0.0001
     85  N         -4.1330   26.6720  131.5660 N.3   152  ILE152     -0.1245
     86  CA        -5.3520   26.1020  132.1520 C.3   152  ILE152      0.1561
     87  C         -6.5990   26.6030  131.3980 C.2   152  ILE152      0.2260
     88  O         -7.4170   25.7810  130.9650 O.2   152  ILE152     -0.2867
     89  CB        -5.4350   26.3410  133.6960 C.3   152  ILE152      0.0252
     90  CG1       -4.1960   25.7870  134.4310 C.3   152  ILE152      0.0019
     91  CG2       -6.7360   25.7620  134.2850 C.3   152  ILE152      0.0019
     92  CD1       -3.9600   26.3590  135.8200 C.3   152  ILE152      0.0001
@<TRIPOS>BOND
     1     5     6    1
     2     5     2    1
     3     6     7    1
     4    23    22    1
     5    88    87    2
     6     3     2    1
     7     3     4    2
     8     2     1    1
     9    87    86    1
    10    85    86    1
    11     7     8    2
    12     7     9   am
    13    22    19    1
    14    86    89    1
    15    19    20    1
    16    19    18    1
    17    20    21    2
    18    89    91    1
    19    89    90    1
    20    18    12   am
    21    53    52   ar
    22    53    51   ar
    23    52    50   ar
    24    10    11    1
    25    90    92    1
    26    12    11    1
    27    12    13    2
    28    51    49   ar
    29    11    14    1
    30    83    81    1
    31    50    49   ar
    32    79    80    2
    33    79    78    1
    34    14    15    1
    35    49    48    1
    36    78    81    1
    37    78    77    1
    38    81    82    1
    39    15    16   ar
    40    15    17   ar
    41    28    29    1
    42    28    25    1
    43    30    29    2
    44    24    25    1
    45    76    75    2
    46    26    25    1
    47    26    27    2
    48    48    45    1
    49    29    31   am
    50    77    75   am
    51    82    84    1
    52    44    45    1
    53    45    46    1
    54    75    74    1
    55    36    37    1
    56    36    33    1
    57    39    37   ar
    58    39    41   ar
    59    46    47    2
    60    46    54   am
    61    74    73    1
    62    37    38   ar
    63    41    42   ar
    64    34    33    1
    65    34    35    2
    66    33    32    1
    67    73    65   am
    68    54    55    1
    69    38    40   ar
    70    42    40   ar
    71    42    43    1
    72    65    66    2
    73    65    64    1
    74    63    64    1
    75    63    56   am
    76    55    56    1
    77    55    58    1
    78    67    64    1
    79    67    68    1
    80    56    57    2
    81    59    58    1
    82    59    60    1
    83    69    68   ar
    84    69    71   ar
    85    68    70   ar
    86    61    60    2
    87    60    62   am
    88    71    72   ar
    89    70    72   ar
