@<TRIPOS>MOLECULE
tmp/5ap3A00.pdb
 133 121 0 0 0
SMALL
GASTEIGER

@<TRIPOS>ATOM
      1  N        -13.3410   35.7460  123.3550 N.3    21  SER21      -0.1202
      2  CA       -14.2850   36.2720  124.3370 C.3    21  SER21       0.2020
      3  C        -13.5680   37.2990  125.2120 C.2    21  SER21       0.2619
      4  O        -14.2130   38.0450  125.9500 O.2    21  SER21      -0.2717
      5  CB       -14.8170   35.1360  125.2050 C.3    21  SER21       0.2103
      6  OG       -13.7620   34.4690  125.8800 O.3    21  SER21      -0.2182
      7  N        -12.2250   37.3370  125.1030 N.am   22  SER22      -0.1951
      8  CA       -11.3240   38.1890  125.8750 C.3    22  SER22       0.1924
      9  C        -10.8680   39.4720  125.1740 C.2    22  SER22       0.2314
     10  O        -10.7160   39.4960  123.9540 O.2    22  SER22      -0.2863
     11  CB       -10.1100   37.3850  126.3220 C.3    22  SER22       0.2116
     12  OG        -9.5640   36.6680  125.2270 O.3    22  SER22      -0.2180
     13  N         -8.0010   42.7800  126.3360 N.3    24  VAL24      -0.1245
     14  CA        -7.0820   43.3680  127.3210 C.3    24  VAL24       0.1561
     15  C         -6.9300   44.8660  127.0420 C.2    24  VAL24       0.2260
     16  O         -6.6850   45.2550  125.9000 O.2    24  VAL24      -0.2867
     17  CB        -5.7170   42.6350  127.4340 C.3    24  VAL24       0.0252
     18  CG1       -4.9000   43.1750  128.6030 C.3    24  VAL24       0.0019
     19  CG2       -5.9070   41.1260  127.5790 C.3    24  VAL24       0.0019
     20  N         -8.1520   42.6920  131.9960 N.3    38  LYS38      -0.1245
     21  CA        -8.5550   41.6220  131.0960 C.3    38  LYS38       0.1561
     22  C        -10.0720   41.4540  131.2470 C.2    38  LYS38       0.2260
     23  O        -10.5660   41.2020  132.3500 O.2    38  LYS38      -0.2867
     24  CB        -7.8090   40.3110  131.3950 C.3    38  LYS38       0.0271
     25  CG        -7.9730   39.2530  130.3100 C.3    38  LYS38       0.0035
     26  CD        -7.6220   37.8640  130.8240 C.3    38  LYS38       0.0206
     27  CE        -7.6690   36.8320  129.7280 C.3    38  LYS38       0.1093
     28  NZ        -6.9420   35.5900  130.1000 N.3    38  LYS38      -0.1314
     29  N        -13.3550   39.3340  130.0580 N.3    40  VAL40      -0.1245
     30  CA       -13.7690   38.0380  129.5080 C.3    40  VAL40       0.1561
     31  C        -15.3120   38.0130  129.4000 C.2    40  VAL40       0.2260
     32  O        -15.9930   38.2970  130.3810 O.2    40  VAL40      -0.2867
     33  CB       -13.2100   36.8500  130.3420 C.3    40  VAL40       0.0252
     34  CG1      -13.6140   35.5040  129.7500 C.3    40  VAL40       0.0019
     35  CG2      -11.6960   36.9380  130.4810 C.3    40  VAL40       0.0019
     36  N        -11.5640   28.6210  133.4750 N.3    53  TYR53      -0.1241
     37  CA       -11.3340   30.0340  133.7500 C.3    53  TYR53       0.1605
     38  C        -11.2110   30.2920  135.2580 C.2    53  TYR53       0.2264
     39  O        -10.3720   31.0780  135.6630 O.2    53  TYR53      -0.2867
     40  CB       -12.5100   30.8660  133.2000 C.3    53  TYR53       0.0534
     41  CG       -12.6160   30.9890  131.6950 C.ar   53  TYR53      -0.0201
     42  CD1      -11.6920   30.3740  130.8550 C.ar   53  TYR53      -0.0009
     43  CD2      -13.6340   31.7360  131.1100 C.ar   53  TYR53      -0.0009
     44  CE1      -11.7860   30.4890  129.4690 C.ar   53  TYR53       0.0417
     45  CE2      -13.7360   31.8600  129.7250 C.ar   53  TYR53       0.0417
     46  CZ       -12.7890   31.2630  128.9090 C.ar   53  TYR53       0.1957
     47  OH       -12.8770   31.3860  127.5430 O.3    53  TYR53      -0.2866
     48  N         -7.7900   28.7280  136.4750 N.3    56  GLU56      -0.1231
     49  CA        -6.6540   29.5550  136.0700 C.3    56  GLU56       0.1699
     50  C         -6.5160   30.7800  136.9980 C.2    56  GLU56       0.2592
     51  O         -5.4000   31.0540  137.4540 O.2    56  GLU56      -0.2718
     52  CB        -6.7960   29.9460  134.5870 C.3    56  GLU56       0.0402
     53  CG        -5.7770   30.9530  134.0850 C.3    56  GLU56       0.1161
     54  CD        -4.5780   30.4000  133.3470 C.2    56  GLU56       0.3649
     55  OE1       -4.7290   29.9680  132.1820 O.co2  56  GLU56      -0.2457
     56  OE2       -3.4650   30.4860  133.9090 O.co2  56  GLU56      -0.2457
     57  N         -7.6520   31.4770  137.3030 N.am   57  ILE57      -0.1980
     58  CA        -7.7340   32.6370  138.2030 C.3    57  ILE57       0.1595
     59  C         -7.2310   32.2460  139.5950 C.2    57  ILE57       0.2287
     60  O         -6.3650   32.9300  140.1320 O.2    57  ILE57      -0.2864
     61  CB        -9.1750   33.2180  138.2480 C.3    57  ILE57       0.0276
     62  CG1       -9.5140   33.9560  136.9430 C.3    57  ILE57       0.0022
     63  CG2       -9.4050   34.1140  139.4850 C.3    57  ILE57       0.0022
     64  CD1      -11.0090   34.2210  136.7030 C.3    57  ILE57       0.0001
     65  N         -3.4770   31.6180  139.5260 N.3    60  LEU60      -0.1245
     66  CA        -2.7890   32.9030  139.3490 C.3    60  LEU60       0.1561
     67  C         -2.8250   33.7200  140.6500 C.2    60  LEU60       0.2260
     68  O         -1.8460   34.3780  140.9990 O.2    60  LEU60      -0.2867
     69  CB        -3.4260   33.6550  138.1790 C.3    60  LEU60       0.0270
     70  CG        -2.8190   34.9810  137.7860 C.3    60  LEU60       0.0019
     71  CD1       -1.5130   34.7830  137.0630 C.3    60  LEU60       0.0001
     72  CD2       -3.7780   35.7570  136.9440 C.3    60  LEU60       0.0001
     73  N          2.8450   37.2330  136.6650 N.3    71  ILE71      -0.1245
     74  CA         2.0790   38.4750  136.4770 C.3    71  ILE71       0.1561
     75  C          1.2010   38.8030  137.7020 C.2    71  ILE71       0.2260
     76  O          0.5260   37.9140  138.2280 O.2    71  ILE71      -0.2867
     77  CB         1.2770   38.4430  135.1340 C.3    71  ILE71       0.0252
     78  CG1        0.7480   39.8260  134.7550 C.3    71  ILE71       0.0019
     79  CG2        0.1610   37.3830  135.1120 C.3    71  ILE71       0.0019
     80  CD1        0.3450   39.9760  133.3050 C.3    71  ILE71       0.0001
     81  N        -15.9720   38.5520  133.4270 N.3    83  ILE83      -0.1245
     82  CA       -14.8250   38.5570  134.3330 C.3    83  ILE83       0.1561
     83  C        -14.0550   39.8260  133.9870 C.2    83  ILE83       0.2260
     84  O        -13.8450   40.1140  132.8050 O.2    83  ILE83      -0.2867
     85  CB       -13.8610   37.3360  134.2430 C.3    83  ILE83       0.0252
     86  CG1      -14.5930   35.9800  134.0890 C.3    83  ILE83       0.0019
     87  CG2      -12.8990   37.3240  135.4490 C.3    83  ILE83       0.0019
     88  CD1      -13.6710   34.7910  133.5850 C.3    83  ILE83       0.0001
     89  N        -10.4020   41.5650  135.3020 N.3    85  MET85      -0.1245
     90  CA        -9.1980   41.3010  136.0930 C.3    85  MET85       0.1570
     91  C         -8.2550   42.4910  136.0440 C.2    85  MET85       0.2261
     92  O         -7.8050   42.8540  134.9620 O.2    85  MET85      -0.2867
     93  CB        -8.4890   40.0250  135.6080 C.3    85  MET85       0.0387
     94  CG        -9.3190   38.7660  135.7790 C.3    85  MET85       0.0595
     95  SD        -8.6460   37.3600  134.8750 S.3    85  MET85      -0.1393
     96  CE        -7.3560   36.8590  135.9920 C.3    85  MET85       0.0692
     97  N         -4.8220   43.7090  136.5800 N.3    87  MET87      -0.1245
     98  CA        -3.4900   43.1130  136.5700 C.3    87  MET87       0.1570
     99  C         -2.3780   44.1420  136.3220 C.2    87  MET87       0.2261
    100  O         -2.6560   45.3110  136.0190 O.2    87  MET87      -0.2867
    101  CB        -3.4370   42.0090  135.5050 C.3    87  MET87       0.0387
    102  CG        -4.2960   40.8350  135.8450 C.3    87  MET87       0.0595
    103  SD        -4.5710   39.7520  134.4490 S.3    87  MET87      -0.1393
    104  CE        -3.3420   38.5890  134.7390 C.3    87  MET87       0.0692
    105  N          2.4160   35.1370  131.8010 N.3   148  ILE148     -0.1231
    106  CA         1.0500   35.6440  131.6510 C.3   148  ILE148      0.1692
    107  C         -0.0050   34.6140  132.1030 C.2   148  ILE148      0.2592
    108  O         -0.8500   34.9510  132.9320 O.2   148  ILE148     -0.2718
    109  CB         0.8210   36.1780  130.1940 C.3   148  ILE148      0.0266
    110  CG1        1.4020   37.5900  130.0260 C.3   148  ILE148      0.0019
    111  CG2       -0.6430   36.1530  129.7620 C.3   148  ILE148      0.0020
    112  CD1        1.5030   38.0680  128.5660 C.3   148  ILE148      0.0001
    113  N          0.0380   33.3830  131.5590 N.am  149  ASP149     -0.1974
    114  CA        -0.9340   32.3330  131.8540 C.3   149  ASP149      0.1709
    115  C         -0.2700   30.9870  132.1000 C.2   149  ASP149      0.2293
    116  O          0.9190   30.8280  131.8240 O.2   149  ASP149     -0.2864
    117  CB        -1.9310   32.2210  130.6990 C.3   149  ASP149      0.1436
    118  CG        -1.2740   31.8040  129.4020 C.2   149  ASP149      0.3671
    119  OD1       -0.4180   32.5630  128.9020 O.co2 149  ASP149     -0.2456
    120  OD2       -1.6080   30.7080  128.8940 O.co2 149  ASP149     -0.2456
    121  N         -6.7420   27.9480  131.2510 N.3   153  ALA153     -0.1231
    122  CA        -7.8730   28.5840  130.5560 C.3   153  ALA153      0.1694
    123  C         -7.8140   28.3590  129.0310 C.2   153  ALA153      0.2592
    124  O         -6.7380   28.4450  128.4250 O.2   153  ALA153     -0.2718
    125  CB        -7.9220   30.0690  130.8780 C.3   153  ALA153      0.0304
    126  N         -8.9800   28.0550  128.4290 N.am  154  ASN154     -0.1974
    127  CA        -9.1650   27.7810  126.9960 C.3   154  ASN154      0.1688
    128  C         -8.8030   28.9810  126.1150 C.2   154  ASN154      0.2292
    129  O         -7.8180   28.9330  125.3760 O.2   154  ASN154     -0.2864
    130  CB       -10.6100   27.3260  126.7120 C.3   154  ASN154      0.1181
    131  CG       -11.0760   26.0910  127.4640 C.2   154  ASN154      0.2629
    132  OD1      -10.2920   25.3070  128.0150 O.2   154  ASN154     -0.2716
    133  ND2      -12.3800   25.8750  127.4810 N.am  154  ASN154     -0.0877
@<TRIPOS>BOND
     1     1     2    1
     2    10     9    2
     3     2     5    1
     4     2     3    1
     5     7     3   am
     6     7     8    1
     7     9     8    1
     8     5     6    1
     9     3     4    2
    10    12    11    1
    11   129   128    2
    12     8    11    1
    13    16    15    2
    14   128   127    1
    15    13    14    1
    16   130   127    1
    17   130   131    1
    18   127   126    1
    19    15    14    1
    20    14    17    1
    21    17    19    1
    22    17    18    1
    23   131   133   am
    24   131   132    2
    25    47    46    1
    26   124   123    2
    27   126   123   am
    28   112   110    1
    29   120   118   ar
    30   119   118   ar
    31    46    44   ar
    32    46    45   ar
    33   123   122    1
    34    31    30    1
    35    31    32    2
    36   118   117    1
    37    44    42   ar
    38    30    29    1
    39    30    33    1
    40    45    43   ar
    41    27    28    1
    42    27    26    1
    43    34    33    1
    44   111   109    1
    45   110   109    1
    46   109   106    1
    47    25    26    1
    48    25    24    1
    49    33    35    1
    50   122   125    1
    51   122   121    1
    52   117   114    1
    53    42    41   ar
    54    21    22    1
    55    21    24    1
    56    21    20    1
    57    43    41   ar
    58    22    23    2
    59   113   114    1
    60   113   107   am
    61   106   105    1
    62   106   107    1
    63    41    40    1
    64   116   115    2
    65   114   115    1
    66   107   108    2
    67    55    54   ar
    68    84    83    2
    69    40    37    1
    70    80    78    1
    71    54    56   ar
    72    54    53    1
    73    81    82    1
    74    36    37    1
    75    88    86    1
    76    37    38    1
    77    83    82    1
    78    53    52    1
    79    86    85    1
    80    85    82    1
    81    85    87    1
    82   103   104    1
    83   103   102    1
    84    52    49    1
    85    78    77    1
    86    95    94    1
    87    95    96    1
    88    92    91    2
    89    79    77    1
    90    77    74    1
    91    38    39    2
    92    89    90    1
    93   101   102    1
    94   101    98    1
    95    93    94    1
    96    93    90    1
    97   100    99    2
    98    91    90    1
    99    49    48    1
   100    49    50    1
   101    99    98    1
   102    74    73    1
   103    74    75    1
   104    98    97    1
   105    64    62    1
   106    62    61    1
   107    72    70    1
   108    50    57   am
   109    50    51    2
   110    71    70    1
   111    57    58    1
   112    75    76    2
   113    70    69    1
   114    69    66    1
   115    58    61    1
   116    58    59    1
   117    61    63    1
   118    66    65    1
   119    66    67    1
   120    59    60    2
   121    67    68    2
