@<TRIPOS>MOLECULE
tmp/5ap5A00.pdb
 174 159 0 0 0
SMALL
GASTEIGER

@<TRIPOS>ATOM
      1  N          6.1630   -2.7690  -14.7850 N.3    15  LYS15      -0.1245
      2  CA         6.0730   -3.4450  -13.4950 C.3    15  LYS15       0.1561
      3  C          6.5010   -4.9020  -13.6650 C.2    15  LYS15       0.2260
      4  O          6.6120   -5.3930  -14.7940 O.2    15  LYS15      -0.2867
      5  CB         4.6220   -3.4020  -12.9740 C.3    15  LYS15       0.0271
      6  CG         3.6260   -4.2160  -13.7340 C.3    15  LYS15       0.0035
      7  CD         2.2480   -3.8310  -13.1500 C.3    15  LYS15       0.0206
      8  CE         1.1750   -4.8200  -13.3710 C.3    15  LYS15       0.1093
      9  NZ         0.6100   -5.1780  -12.0400 N.3    15  LYS15      -0.1314
     10  N          5.2760   -8.6340  -13.0630 N.3    17  ILE17      -0.1231
     11  CA         4.0410   -9.3960  -12.8940 C.3    17  ILE17       0.1692
     12  C          4.2890  -10.5240  -11.8840 C.2    17  ILE17       0.2593
     13  O          3.5450  -10.6690  -10.9180 O.2    17  ILE17      -0.2718
     14  CB         3.5160   -9.9180  -14.2640 C.3    17  ILE17       0.0266
     15  CG1        3.0620   -8.7620  -15.1750 C.3    17  ILE17       0.0019
     16  CG2        2.3980  -10.9510  -14.0820 C.3    17  ILE17       0.0020
     17  CD1        2.8650   -9.1670  -16.6640 C.3    17  ILE17       0.0001
     18  N          5.3210  -11.3100  -12.1250 N.am   18  GLY18      -0.1942
     19  CA         5.6600  -12.4320  -11.2640 C.3    18  GLY18       0.2014
     20  C          7.1020  -12.8530  -11.4110 C.2    18  GLY18       0.2639
     21  O          7.8440  -12.2640  -12.2060 O.2    18  GLY18      -0.2714
     22  N          7.5090  -13.8640  -10.6180 N.am   19  SER19      -0.1949
     23  CA         8.8720  -14.3970  -10.6300 C.3    19  SER19       0.1924
     24  C          8.9540  -15.8630  -10.2110 C.2    19  SER19       0.2314
     25  O          8.7240  -16.1920   -9.0440 O.2    19  SER19      -0.2863
     26  CB         9.8290  -13.5270   -9.8070 C.3    19  SER19       0.2116
     27  OG         9.3370  -13.2380   -8.5080 O.3    19  SER19      -0.2180
     28  N          8.4490  -12.5320  -14.9370 N.3    25  VAL25      -0.1245
     29  CA         7.4710  -12.0610  -15.9220 C.3    25  VAL25       0.1561
     30  C          7.2980  -10.5650  -15.6530 C.2    25  VAL25       0.2260
     31  O          7.0910  -10.1830  -14.5040 O.2    25  VAL25      -0.2867
     32  CB         6.1260  -12.8410  -15.8510 C.3    25  VAL25       0.0252
     33  CG1        5.1120  -12.3110  -16.8670 C.3    25  VAL25       0.0019
     34  CG2        6.3400  -14.3390  -16.0450 C.3    25  VAL25       0.0019
     35  N          5.6420   -6.5760  -17.1630 N.3    27  GLN27      -0.1245
     36  CA         4.6830   -5.9100  -18.0260 C.3    27  GLN27       0.1566
     37  C          5.5040   -4.8330  -18.7300 C.2    27  GLN27       0.2260
     38  O          6.2500   -4.1140  -18.0650 O.2    27  GLN27      -0.2867
     39  CB         3.5340   -5.3190  -17.2290 C.3    27  GLN27       0.0367
     40  CG         2.4940   -4.6880  -18.1290 C.3    27  GLN27       0.0905
     41  CD         1.3200   -4.1910  -17.3410 C.2    27  GLN27       0.2608
     42  OE1        1.4630   -3.4400  -16.3660 O.2    27  GLN27      -0.2717
     43  NE2        0.1320   -4.6410  -17.7290 N.am   27  GLN27      -0.0878
     44  N          3.8050   -8.7240  -22.3710 N.3    37  ALA37      -0.1245
     45  CA         4.3260   -9.4250  -21.2000 C.3    37  ALA37       0.1562
     46  C          5.5880  -10.1150  -21.6300 C.2    37  ALA37       0.2260
     47  O          5.5730  -10.8710  -22.6100 O.2    37  ALA37      -0.2867
     48  CB         3.3400  -10.4450  -20.6850 C.3    37  ALA37       0.0290
     49  N          8.6090  -12.6270  -20.4890 N.3    39  LYS39      -0.1245
     50  CA         9.0950  -13.5800  -19.5110 C.3    39  LYS39       0.1561
     51  C         10.5830  -13.7400  -19.7460 C.2    39  LYS39       0.2260
     52  O         11.0020  -14.0770  -20.8510 O.2    39  LYS39      -0.2867
     53  CB         8.3640  -14.9260  -19.6320 C.3    39  LYS39       0.0271
     54  CG         8.7410  -15.9520  -18.5790 C.3    39  LYS39       0.0035
     55  CD         8.4690  -17.3140  -19.1490 C.3    39  LYS39       0.0206
     56  CE         8.2550  -18.3480  -18.1110 C.3    39  LYS39       0.1093
     57  NZ         7.5520  -19.5130  -18.6810 N.3    39  LYS39      -0.1314
     58  N          8.3100  -26.7050  -24.2630 N.3    57  GLU57      -0.1245
     59  CA         7.1310  -25.9190  -23.9720 C.3    57  GLU57       0.1567
     60  C          7.0560  -24.6660  -24.8570 C.2    57  GLU57       0.2260
     61  O          5.9430  -24.2960  -25.2230 O.2    57  GLU57      -0.2867
     62  CB         6.9390  -25.6140  -22.4780 C.3    57  GLU57       0.0388
     63  CG         5.4560  -25.6510  -22.1010 C.3    57  GLU57       0.1160
     64  CD         5.0130  -25.0420  -20.7830 C.2    57  GLU57       0.3649
     65  OE1        4.9630  -25.7680  -19.7640 O.co2  57  GLU57      -0.2457
     66  OE2        4.6190  -23.8540  -20.7960 O.co2  57  GLU57      -0.2457
     67  N          4.0280  -23.9690  -27.3470 N.3    61  LEU61      -0.1245
     68  CA         3.3820  -22.6510  -27.2730 C.3    61  LEU61       0.1561
     69  C          3.3790  -21.9660  -28.6660 C.2    61  LEU61       0.2260
     70  O          2.4040  -21.3510  -29.0620 O.2    61  LEU61      -0.2867
     71  CB         4.1060  -21.8040  -26.2200 C.3    61  LEU61       0.0270
     72  CG         3.6130  -20.3910  -25.9660 C.3    61  LEU61       0.0019
     73  CD1        2.1630  -20.3700  -25.5470 C.3    61  LEU61       0.0001
     74  CD2        4.4710  -19.7080  -24.9330 C.3    61  LEU61       0.0001
     75  N         -2.1940  -18.4730  -25.0740 N.3    72  ILE72      -0.1245
     76  CA        -1.5270  -17.1640  -24.9610 C.3    72  ILE72       0.1561
     77  C         -0.6380  -16.8740  -26.1870 C.2    72  ILE72       0.2260
     78  O          0.2220  -17.7030  -26.4980 O.2    72  ILE72      -0.2867
     79  CB        -0.7700  -16.9990  -23.5970 C.3    72  ILE72       0.0252
     80  CG1       -0.0650  -15.6490  -23.4930 C.3    72  ILE72       0.0019
     81  CG2        0.1980  -18.1390  -23.3000 C.3    72  ILE72       0.0019
     82  CD1       -0.2720  -14.9760  -22.2200 C.3    72  ILE72       0.0001
     83  N         10.6500  -14.1270  -23.8410 N.3    86  MET86      -0.1245
     84  CA         9.4560  -14.4660  -24.6070 C.3    86  MET86       0.1570
     85  C          8.5690  -13.2470  -24.5610 C.2    86  MET86       0.2261
     86  O          8.3370  -12.7090  -23.4720 O.2    86  MET86      -0.2867
     87  CB         8.7360  -15.6910  -24.0180 C.3    86  MET86       0.0387
     88  CG         9.5010  -16.9910  -24.2220 C.3    86  MET86       0.0595
     89  SD         9.2410  -18.1830  -22.8980 S.3    86  MET86      -0.1393
     90  CE         7.5960  -18.7850  -23.2970 C.3    86  MET86       0.0692
     91  N          5.0200  -11.9980  -25.1110 N.3    88  MET88      -0.1230
     92  CA         3.6460  -12.4900  -25.1690 C.3    88  MET88       0.1702
     93  C          2.6300  -11.3730  -25.0240 C.2    88  MET88       0.2595
     94  O          3.0200  -10.2450  -24.7310 O.2    88  MET88      -0.2718
     95  CB         3.4220  -13.5590  -24.0820 C.3    88  MET88       0.0401
     96  CG         4.2400  -14.8100  -24.3150 C.3    88  MET88       0.0596
     97  SD         4.4410  -15.8310  -22.8510 S.3    88  MET88      -0.1393
     98  CE         5.2660  -14.7250  -21.7900 C.3    88  MET88       0.0692
     99  N          1.3330  -11.6820  -25.2370 N.am   89  GLU89      -0.1920
    100  CA         0.2410  -10.7240  -25.0770 C.3    89  GLU89       0.1949
    101  C          0.0160  -10.5160  -23.5750 C.2    89  GLU89       0.2659
    102  O          0.3760  -11.3940  -22.7890 O.2    89  GLU89      -0.2711
    103  CB        -1.0350  -11.1850  -25.8290 C.2    89  GLU89       0.0111
    104  CG        -1.9520  -12.1590  -25.0980 C.2    89  GLU89       0.0838
    105  CD        -2.9960  -12.8700  -25.9400 C.2    89  GLU89       0.3877
    106  OE1       -3.7980  -12.2020  -26.6320 O.co2  89  GLU89      -0.2406
    107  OE2       -2.9870  -14.1180  -25.9290 O.co2  89  GLU89      -0.2406
    108  N         -0.5160   -9.3440  -23.1710 N.am   90  CYS90      -0.1951
    109  CA        -0.7150   -9.0540  -21.7520 C.3    90  CYS90       0.1843
    110  C         -2.1420   -9.2410  -21.3070 C.2    90  CYS90       0.2626
    111  O         -3.0690   -8.6390  -21.8670 O.2    90  CYS90      -0.2714
    112  CB        -0.1870   -7.6750  -21.3640 C.3    90  CYS90       0.0997
    113  SG         0.2570   -7.5230  -19.6090 S.3    90  CYS90      -0.0797
    114  N         -2.2980  -10.0660  -20.2840 N.am   91  GLY91      -0.1940
    115  CA        -3.5920  -10.2950  -19.6660 C.3    91  GLY91       0.2014
    116  C         -3.8080   -9.3450  -18.5060 C.2    91  GLY91       0.2639
    117  O         -2.8760   -8.6730  -18.0620 O.2    91  GLY91      -0.2714
    118  N         -5.0320   -9.3160  -17.9890 N.am   92  ASN92      -0.1958
    119  CA        -5.4220   -8.4550  -16.8680 C.3    92  ASN92       0.1819
    120  C         -5.0010   -9.1000  -15.5180 C.2    92  ASN92       0.2621
    121  O         -4.3320   -8.4560  -14.7070 O.2    92  ASN92      -0.2715
    122  CB        -6.9570   -8.1690  -16.8710 C.3    92  ASN92       0.1195
    123  CG        -7.6950   -7.9840  -18.1970 C.2    92  ASN92       0.2630
    124  OD1       -7.1350   -7.7540  -19.2710 O.2    92  ASN92      -0.2716
    125  ND2       -9.0140   -8.0630  -18.1360 N.am   92  ASN92      -0.0877
    126  N         -5.4050  -10.3760  -15.2930 N.am   93  ILE93      -0.1963
    127  CA        -5.1720  -11.1500  -14.0670 C.3    93  ILE93       0.1727
    128  C         -5.3800  -12.6380  -14.3810 C.2    93  ILE93       0.2616
    129  O         -6.0110  -12.9580  -15.3840 O.2    93  ILE93      -0.2715
    130  CB        -6.1540  -10.6350  -12.9580 C.3    93  ILE93       0.0290
    131  CG1       -5.9250  -11.3310  -11.5930 C.3    93  ILE93       0.0022
    132  CG2       -7.6230  -10.7150  -13.4080 C.3    93  ILE93       0.0023
    133  CD1       -6.7410  -10.7560  -10.4050 C.3    93  ILE93       0.0001
    134  N         -4.8540  -13.5380  -13.5340 N.am   94  ASP94      -0.1971
    135  CA        -5.0450  -14.9840  -13.6700 C.3    94  ASP94       0.1709
    136  C         -6.3690  -15.3780  -13.0080 C.2    94  ASP94       0.2293
    137  O         -6.8130  -14.7010  -12.0810 O.2    94  ASP94      -0.2864
    138  CB        -3.8470  -15.7750  -13.0930 C.3    94  ASP94       0.1436
    139  CG        -3.6910  -15.7720  -11.5830 C.2    94  ASP94       0.3671
    140  OD1       -3.7670  -14.6870  -10.9780 O.co2  94  ASP94      -0.2456
    141  OD2       -3.4220  -16.8450  -11.0160 O.co2  94  ASP94      -0.2456
    142  N         -6.4670  -15.6810   -9.1010 N.3    97  GLY97      -0.1225
    143  CA        -6.4930  -14.4000   -8.4110 C.3    97  GLY97       0.1811
    144  C         -7.8540  -13.7560   -8.5470 C.2    97  GLY97       0.2280
    145  O         -8.4320  -13.2860   -7.5610 O.2    97  GLY97      -0.2866
    146  N         -4.7080  -20.9340  -11.7270 N.3   137  ALA137     -0.1245
    147  CA        -3.5410  -20.0950  -12.0360 C.3   137  ALA137      0.1562
    148  C         -2.9650  -20.3360  -13.4410 C.2   137  ALA137      0.2260
    149  O         -2.1500  -19.5320  -13.8990 O.2   137  ALA137     -0.2867
    150  CB        -2.4560  -20.3120  -10.9980 C.3   137  ALA137      0.0290
    151  N         -5.5880  -17.3040  -17.7240 N.3   140  LEU140     -0.1245
    152  CA        -5.4130  -15.8630  -17.6410 C.3   140  LEU140      0.1561
    153  C         -6.5180  -15.1800  -18.3970 C.2   140  LEU140      0.2260
    154  O         -6.8890  -15.6180  -19.4930 O.2   140  LEU140     -0.2867
    155  CB        -4.0700  -15.5420  -18.2900 C.3   140  LEU140      0.0270
    156  CG        -3.6350  -14.1170  -18.3810 C.3   140  LEU140      0.0019
    157  CD1       -3.0990  -13.6410  -17.0510 C.3   140  LEU140      0.0001
    158  CD2       -2.5710  -14.0010  -19.4110 C.3   140  LEU140      0.0001
    159  N         -1.8400  -20.4360  -20.1010 N.3   149  ILE149     -0.1231
    160  CA        -0.4690  -19.9350  -19.9360 C.3   149  ILE149      0.1692
    161  C          0.5370  -21.0690  -20.1720 C.2   149  ILE149      0.2592
    162  O          1.4500  -20.8810  -20.9660 O.2   149  ILE149     -0.2718
    163  CB        -0.3130  -19.2310  -18.5460 C.3   149  ILE149      0.0266
    164  CG1       -0.8060  -17.8070  -18.6020 C.3   149  ILE149      0.0019
    165  CG2        1.1120  -19.2560  -18.0020 C.3   149  ILE149      0.0020
    166  CD1       -1.0240  -17.1890  -17.1940 C.3   149  ILE149      0.0001
    167  N          0.3840  -22.2390  -19.4970 N.am  150  ASP150     -0.1974
    168  CA         1.3410  -23.3300  -19.6630 C.3   150  ASP150      0.1709
    169  C          0.7170  -24.6970  -20.0210 C.2   150  ASP150      0.2293
    170  O         -0.5060  -24.8630  -19.9930 O.2   150  ASP150     -0.2864
    171  CB         2.2360  -23.4460  -18.4170 C.3   150  ASP150      0.1436
    172  CG         1.6550  -24.2940  -17.3040 C.2   150  ASP150      0.3671
    173  OD1        0.4090  -24.3270  -17.1750 O.co2 150  ASP150     -0.2456
    174  OD2        2.4480  -24.9370  -16.5700 O.co2 150  ASP150     -0.2456
@<TRIPOS>BOND
     1    70    69    2
     2    69    68    1
     3    67    68    1
     4    68    71    1
     5   106   105   ar
     6    78    77    2
     7    71    72    1
     8    77    76    1
     9    72    73    1
    10    72    74    1
    11   105   107   ar
    12   105   104    1
    13   103   104    2
    14   103   100    1
    15    99   100    1
    16    99    93   am
    17    61    60    2
    18    92    91    1
    19    92    93    1
    20    92    95    1
    21   100   101    1
    22    75    76    1
    23    93    94    2
    24    76    79    1
    25    60    59    1
    26    84    85    1
    27    84    87    1
    28    84    83    1
    29    85    86    2
    30    96    95    1
    31    96    97    1
    32    58    59    1
    33    88    87    1
    34    88    89    1
    35    59    62    1
    36    79    80    1
    37    79    81    1
    38   101   108   am
    39   101   102    2
    40    80    82    1
    41    90    89    1
    42   108   109    1
    43    97    98    1
    44    47    46    2
    45    62    63    1
    46    44    45    1
    47    63    64    1
    48   111   110    2
    49   109   112    1
    50   109   110    1
    51    46    45    1
    52   112   113    1
    53   110   114   am
    54    45    48    1
    55   162   161    2
    56    52    51    2
    57    66    64   ar
    58    64    65   ar
    59    49    50    1
    60   114   115    1
    61   161   160    1
    62   161   167   am
    63   159   160    1
    64   169   170    2
    65   169   168    1
    66   160   163    1
    67    51    50    1
    68   115   116    1
    69   168   167    1
    70   168   171    1
    71    53    50    1
    72    53    54    1
    73   154   153    2
    74   158   156    1
    75   124   123    2
    76    55    54    1
    77    55    56    1
    78    37    38    2
    79    37    36    1
    80    57    56    1
    81   164   163    1
    82   164   166    1
    83   163   165    1
    84   116   117    2
    85   116   118   am
    86   171   172    1
    87   153   152    1
    88   156   155    1
    89   156   157    1
    90   155   152    1
    91   123   125   am
    92   123   122    1
    93    40    41    1
    94    40    39    1
    95    36    39    1
    96    36    35    1
    97   118   119    1
    98    43    41   am
    99   151   152    1
   100    41    42    2
   101   172   173   ar
   102   172   174   ar
   103   122   119    1
   104   119   120    1
   105    33    32    1
   106    17    15    1
   107    34    32    1
   108    29    32    1
   109    29    30    1
   110    29    28    1
   111    30    31    2
   112   120   126   am
   113   120   121    2
   114   129   128    2
   115   126   127    1
   116    15    14    1
   117     4     3    2
   118     1     2    1
   119   128   127    1
   120   128   134   am
   121    14    16    1
   122    14    11    1
   123   127   130    1
   124   149   148    2
   125     6     7    1
   126     6     5    1
   127   135   134    1
   128   135   138    1
   129   135   136    1
   130     3     2    1
   131     2     5    1
   132   148   147    1
   133   132   130    1
   134     8     7    1
   135     8     9    1
   136   138   139    1
   137    10    11    1
   138   136   137    2
   139   130   131    1
   140    11    12    1
   141    21    20    2
   142    18    12   am
   143    18    19    1
   144   147   146    1
   145   147   150    1
   146    12    13    2
   147   131   133    1
   148   139   141   ar
   149   139   140   ar
   150    20    19    1
   151    20    22   am
   152    23    22    1
   153    23    24    1
   154    23    26    1
   155    24    25    2
   156    26    27    1
   157   142   143    1
   158   144   143    1
   159   144   145    2
