@<TRIPOS>MOLECULE
tmp/5ap5A01.pdb
 96 87 0 0 0
SMALL
GASTEIGER

@<TRIPOS>ATOM
      1  N         13.0480  -17.5170  -13.2620 N.3    23  SER23      -0.1217
      2  CA        12.1570  -16.8000  -14.1730 C.3    23  SER23       0.1889
      3  C         11.6530  -15.4740  -13.5780 C.2    23  SER23       0.2288
      4  O         11.6690  -15.3080  -12.3580 O.2    23  SER23      -0.2866
      5  CB        10.9800  -17.6940  -14.5590 C.3    23  SER23       0.2089
      6  OG        10.1200  -17.0730  -15.4900 O.3    23  SER23      -0.2183
      7  N          8.6090  -12.6270  -20.4890 N.3    39  LYS39      -0.1245
      8  CA         9.0950  -13.5800  -19.5110 C.3    39  LYS39       0.1561
      9  C         10.5830  -13.7400  -19.7460 C.2    39  LYS39       0.2260
     10  O         11.0020  -14.0770  -20.8510 O.2    39  LYS39      -0.2867
     11  CB         8.3640  -14.9260  -19.6320 C.3    39  LYS39       0.0271
     12  CG         8.7410  -15.9520  -18.5790 C.3    39  LYS39       0.0035
     13  CD         8.4690  -17.3140  -19.1490 C.3    39  LYS39       0.0206
     14  CE         8.2550  -18.3480  -18.1110 C.3    39  LYS39       0.1093
     15  NZ         7.5520  -19.5130  -18.6810 N.3    39  LYS39      -0.1314
     16  N         13.9540  -15.7460  -18.4840 N.3    41  VAL41      -0.1245
     17  CA        14.3660  -16.9670  -17.8070 C.3    41  VAL41       0.1561
     18  C         15.9010  -17.0170  -17.7690 C.2    41  VAL41       0.2260
     19  O         16.5630  -16.6340  -18.7340 O.2    41  VAL41      -0.2867
     20  CB        13.7100  -18.2240  -18.4290 C.3    41  VAL41       0.0252
     21  CG1       14.3080  -19.5110  -17.8620 C.3    41  VAL41       0.0019
     22  CG2       12.1940  -18.2000  -18.2290 C.3    41  VAL41       0.0019
     23  N         12.0490  -26.6390  -21.3610 N.3    54  TYR54      -0.1241
     24  CA        11.8740  -25.2290  -21.7280 C.3    54  TYR54       0.1605
     25  C         11.7090  -25.0710  -23.2310 C.2    54  TYR54       0.2264
     26  O         10.8150  -24.3500  -23.6790 O.2    54  TYR54      -0.2867
     27  CB        13.0940  -24.4060  -21.2770 C.3    54  TYR54       0.0534
     28  CG        13.2040  -24.1490  -19.7910 C.ar   54  TYR54      -0.0201
     29  CD1       12.3610  -24.7880  -18.8840 C.ar   54  TYR54      -0.0009
     30  CD2       14.1730  -23.2930  -19.2860 C.ar   54  TYR54      -0.0009
     31  CE1       12.4470  -24.5380  -17.5170 C.ar   54  TYR54       0.0417
     32  CE2       14.2860  -23.0550  -17.9180 C.ar   54  TYR54       0.0417
     33  CZ        13.4000  -23.6560  -17.0400 C.ar   54  TYR54       0.1957
     34  OH        13.5050  -23.4170  -15.6940 O.3    54  TYR54      -0.2866
     35  N          8.3100  -26.7050  -24.2630 N.3    57  GLU57      -0.1231
     36  CA         7.1310  -25.9190  -23.9720 C.3    57  GLU57       0.1699
     37  C          7.0560  -24.6660  -24.8570 C.2    57  GLU57       0.2592
     38  O          5.9430  -24.2960  -25.2230 O.2    57  GLU57      -0.2718
     39  CB         6.9390  -25.6140  -22.4780 C.3    57  GLU57       0.0402
     40  CG         5.4560  -25.6510  -22.1010 C.3    57  GLU57       0.1161
     41  CD         5.0130  -25.0420  -20.7830 C.2    57  GLU57       0.3649
     42  OE1        4.9630  -25.7680  -19.7640 O.co2  57  GLU57      -0.2457
     43  OE2        4.6190  -23.8540  -20.7960 O.co2  57  GLU57      -0.2457
     44  N          8.2040  -24.0800  -25.2740 N.am   58  ILE58      -0.1980
     45  CA         8.2490  -22.9200  -26.1910 C.3    58  ILE58       0.1595
     46  C          7.7180  -23.3310  -27.5710 C.2    58  ILE58       0.2287
     47  O          6.9080  -22.6070  -28.1500 O.2    58  ILE58      -0.2864
     48  CB         9.6730  -22.2910  -26.3020 C.3    58  ILE58       0.0276
     49  CG1       10.0550  -21.5530  -25.0030 C.3    58  ILE58       0.0022
     50  CG2        9.7960  -21.3420  -27.5240 C.3    58  ILE58       0.0022
     51  CD1       11.5340  -21.2620  -24.8320 C.3    58  ILE58       0.0001
     52  N          4.0280  -23.9690  -27.3470 N.3    61  LEU61      -0.1245
     53  CA         3.3820  -22.6510  -27.2730 C.3    61  LEU61       0.1561
     54  C          3.3790  -21.9660  -28.6660 C.2    61  LEU61       0.2260
     55  O          2.4040  -21.3510  -29.0620 O.2    61  LEU61      -0.2867
     56  CB         4.1060  -21.8040  -26.2200 C.3    61  LEU61       0.0270
     57  CG         3.6130  -20.3910  -25.9660 C.3    61  LEU61       0.0019
     58  CD1        2.1630  -20.3700  -25.5470 C.3    61  LEU61       0.0001
     59  CD2        4.4710  -19.7080  -24.9330 C.3    61  LEU61       0.0001
     60  N         16.4460  -16.7220  -21.8490 N.3    84  ILE84      -0.1245
     61  CA        15.2610  -16.7670  -22.7020 C.3    84  ILE84       0.1561
     62  C         14.4920  -15.4870  -22.4330 C.2    84  ILE84       0.2260
     63  O         14.4010  -15.0520  -21.2850 O.2    84  ILE84      -0.2867
     64  CB        14.3410  -17.9840  -22.3950 C.3    84  ILE84       0.0252
     65  CG1       15.0820  -19.3330  -22.5240 C.3    84  ILE84       0.0019
     66  CG2       13.0830  -17.9550  -23.2820 C.3    84  ILE84       0.0019
     67  CD1       14.3190  -20.5850  -21.9530 C.3    84  ILE84       0.0001
     68  N         10.6500  -14.1270  -23.8410 N.3    86  MET86      -0.1245
     69  CA         9.4560  -14.4660  -24.6070 C.3    86  MET86       0.1570
     70  C          8.5690  -13.2470  -24.5610 C.2    86  MET86       0.2261
     71  O          8.3370  -12.7090  -23.4720 O.2    86  MET86      -0.2867
     72  CB         8.7360  -15.6910  -24.0180 C.3    86  MET86       0.0387
     73  CG         9.5010  -16.9910  -24.2220 C.3    86  MET86       0.0595
     74  SD         9.2410  -18.1830  -22.8980 S.3    86  MET86      -0.1393
     75  CE         7.5960  -18.7850  -23.2970 C.3    86  MET86       0.0692
     76  N         -1.8400  -20.4360  -20.1010 N.3   149  ILE149     -0.1231
     77  CA        -0.4690  -19.9350  -19.9360 C.3   149  ILE149      0.1692
     78  C          0.5370  -21.0690  -20.1720 C.2   149  ILE149      0.2592
     79  O          1.4500  -20.8810  -20.9660 O.2   149  ILE149     -0.2718
     80  CB        -0.3130  -19.2310  -18.5460 C.3   149  ILE149      0.0266
     81  CG1       -0.8060  -17.8070  -18.6020 C.3   149  ILE149      0.0019
     82  CG2        1.1120  -19.2560  -18.0020 C.3   149  ILE149      0.0020
     83  CD1       -1.0240  -17.1890  -17.1940 C.3   149  ILE149      0.0001
     84  N          0.3840  -22.2390  -19.4970 N.am  150  ASP150     -0.1974
     85  CA         1.3410  -23.3300  -19.6630 C.3   150  ASP150      0.1709
     86  C          0.7170  -24.6970  -20.0210 C.2   150  ASP150      0.2293
     87  O         -0.5060  -24.8630  -19.9930 O.2   150  ASP150     -0.2864
     88  CB         2.2360  -23.4460  -18.4170 C.3   150  ASP150      0.1436
     89  CG         1.6550  -24.2940  -17.3040 C.2   150  ASP150      0.3671
     90  OD1        0.4090  -24.3270  -17.1750 O.co2 150  ASP150     -0.2456
     91  OD2        2.4480  -24.9370  -16.5700 O.co2 150  ASP150     -0.2456
     92  N          7.1960  -27.3140  -18.4600 N.3   154  ALA154     -0.1245
     93  CA         8.3170  -26.6230  -17.8020 C.3   154  ALA154      0.1562
     94  C          7.9810  -26.2440  -16.3520 C.2   154  ALA154      0.2260
     95  O          7.6640  -27.1110  -15.5340 O.2   154  ALA154     -0.2867
     96  CB         8.7050  -25.3860  -18.5900 C.3   154  ALA154      0.0290
@<TRIPOS>BOND
     1    55    54    2
     2    54    53    1
     3    47    46    2
     4    46    45    1
     5    50    48    1
     6    52    53    1
     7    53    56    1
     8    48    45    1
     9    48    49    1
    10    56    57    1
    11    45    44    1
    12    57    58    1
    13    57    59    1
    14    44    37   am
    15    38    37    2
    16    49    51    1
    17    37    36    1
    18    69    70    1
    19    69    72    1
    20    69    68    1
    21    70    71    2
    22    35    36    1
    23    73    72    1
    24    73    74    1
    25    36    39    1
    26    26    25    2
    27    75    74    1
    28    66    64    1
    29    25    24    1
    30    61    62    1
    31    61    64    1
    32    61    60    1
    33    65    64    1
    34    65    67    1
    35    39    40    1
    36    62    63    2
    37    40    41    1
    38    24    23    1
    39    24    27    1
    40    27    28    1
    41    79    78    2
    42    10     9    2
    43    43    41   ar
    44    41    42   ar
    45     7     8    1
    46    78    77    1
    47    78    84   am
    48    76    77    1
    49    86    87    2
    50    86    85    1
    51    77    80    1
    52    28    30   ar
    53    28    29   ar
    54     9     8    1
    55    85    84    1
    56    85    88    1
    57    11     8    1
    58    11    12    1
    59    30    32   ar
    60    13    12    1
    61    13    14    1
    62    29    31   ar
    63    19    18    2
    64    15    14    1
    65    81    80    1
    66    81    83    1
    67    96    93    1
    68    80    82    1
    69    16    17    1
    70    92    93    1
    71    20    22    1
    72    20    21    1
    73    20    17    1
    74    88    89    1
    75    32    33   ar
    76    17    18    1
    77    93    94    1
    78    31    33   ar
    79    89    90   ar
    80    89    91   ar
    81    33    34    1
    82    94    95    2
    83     6     5    1
    84     5     2    1
    85     2     3    1
    86     2     1    1
    87     3     4    2
