@<TRIPOS>MOLECULE
tmp/5apgA00.pdb
 184 180 0 0 0
SMALL
GASTEIGER

@<TRIPOS>ATOM
      1  N        122.5480  -12.1120  109.4050 N.3    12  ASP12      -0.1239
      2  CA       122.5040  -10.6540  109.2670 C.3    12  ASP12       0.1674
      3  C        122.1920  -10.2380  107.8290 C.2    12  ASP12       0.2266
      4  O        122.2110  -11.0780  106.9420 O.2    12  ASP12      -0.2867
      5  CB       123.8350  -10.0390  109.6970 C.3    12  ASP12       0.1410
      6  CG       124.1280  -10.1490  111.1450 C.2    12  ASP12       0.3668
      7  OD1      123.1850  -10.3520  111.9680 O.co2  12  ASP12      -0.2456
      8  OD2      125.3290   -9.9540  111.5310 O.co2  12  ASP12      -0.2456
      9  N        125.7770   -5.2060  105.2270 N.3    16  LYS16      -0.1231
     10  CA       126.4540   -4.6080  106.3740 C.3    16  LYS16       0.1693
     11  C        127.4330   -5.5910  107.0070 C.2    16  LYS16       0.2592
     12  O        128.0810   -5.2870  108.0080 O.2    16  LYS16      -0.2718
     13  CB       125.4330   -4.1320  107.4070 C.3    16  LYS16       0.0285
     14  CG       124.5360   -3.0090  106.9100 C.3    16  LYS16       0.0035
     15  CD       123.5910   -2.5210  107.9950 C.3    16  LYS16       0.0206
     16  CE       122.8710   -1.2530  107.5630 C.3    16  LYS16       0.1093
     17  NZ       121.8600   -0.8120  108.5630 N.3    16  LYS16      -0.1314
     18  N        127.5350   -6.7700  106.4090 N.am   17  ASN17      -0.1960
     19  CA       128.4230   -7.8180  106.8920 C.3    17  ASN17       0.1819
     20  C        129.8240   -7.6740  106.2920 C.2    17  ASN17       0.2621
     21  O        129.9640   -7.4490  105.0900 O.2    17  ASN17      -0.2715
     22  CB       127.8230   -9.1840  106.5600 C.3    17  ASN17       0.1195
     23  CG       128.7450  -10.3250  106.8980 C.2    17  ASN17       0.2630
     24  OD1      129.5180  -10.7820  106.0560 O.2    17  ASN17      -0.2716
     25  ND2      128.6660  -10.8030  108.1320 N.am   17  ASN17      -0.0877
     26  N        130.8630   -7.7960  107.1190 N.am   18  THR18      -0.1951
     27  CA       132.2180   -7.5150  106.6420 C.3    18  THR18       0.1897
     28  C        132.8190   -8.7010  105.8900 C.2    18  THR18       0.2313
     29  O        133.7330   -8.5250  105.0840 O.2    18  THR18      -0.2863
     30  CB       133.1750   -7.1030  107.7920 C.3    18  THR18       0.1794
     31  OG1      133.4250   -8.2140  108.6670 O.3    18  THR18      -0.2208
     32  CG2      132.5890   -5.9410  108.5930 C.3    18  THR18       0.0378
     33  N        139.9380  -19.6060  113.1110 N.3    44  LEU44      -0.1231
     34  CA       139.7290  -18.6340  114.1670 C.3    44  LEU44       0.1693
     35  C        138.5190  -19.0860  114.9640 C.2    44  LEU44       0.2592
     36  O        137.5150  -19.5290  114.4010 O.2    44  LEU44      -0.2718
     37  CB       139.5390  -17.2260  113.6070 C.3    44  LEU44       0.0284
     38  CG       140.7480  -16.6410  112.8650 C.3    44  LEU44       0.0019
     39  CD1      140.5090  -15.1800  112.5340 C.3    44  LEU44       0.0001
     40  CD2      142.0280  -16.8050  113.6710 C.3    44  LEU44       0.0001
     41  N        138.6320  -19.0050  116.2810 N.am   45  ASP45      -0.1960
     42  CA       137.5860  -19.4860  117.1650 C.3    45  ASP45       0.1825
     43  C        137.6930  -18.7190  118.4690 C.2    45  ASP45       0.2464
     44  O        138.5980  -18.9730  119.2610 O.2    45  ASP45      -0.2730
     45  CB       137.7260  -20.9970  117.3940 C.3    45  ASP45       0.1450
     46  CG       136.5940  -21.5810  118.2280 C.2    45  ASP45       0.3671
     47  OD1      135.9050  -20.8350  118.9620 O.co2  45  ASP45      -0.2456
     48  OD2      136.4010  -22.8110  118.1550 O.co2  45  ASP45      -0.2456
     49  N        136.7700  -17.7740  118.6940 N.am   46  PRO46      -0.2727
     50  CA       136.8120  -16.9460  119.9030 C.3    46  PRO46       0.1402
     51  C        136.4620  -17.7080  121.1810 C.2    46  PRO46       0.2269
     52  O        136.6480  -17.1520  122.2610 O.2    46  PRO46      -0.2865
     53  CB       135.7700  -15.8600  119.6100 C.3    46  PRO46       0.0296
     54  CG       134.7720  -16.5470  118.7360 C.3    46  PRO46       0.0237
     55  CD       135.5940  -17.4710  117.8570 C.3    46  PRO46       0.0939
     56  N        137.3820  -19.4240  108.7930 N.3    67  LEU67      -0.1231
     57  CA       136.5520  -18.7010  109.7500 C.3    67  LEU67       0.1693
     58  C        135.0850  -19.0500  109.5610 C.2    67  LEU67       0.2592
     59  O        134.6450  -19.3710  108.4560 O.2    67  LEU67      -0.2718
     60  CB       136.7130  -17.1800  109.6180 C.3    67  LEU67       0.0284
     61  CG       138.0230  -16.4500  109.9110 C.3    67  LEU67       0.0019
     62  CD1      138.9710  -16.4890  108.7170 C.3    67  LEU67       0.0001
     63  CD2      137.7130  -15.0160  110.3150 C.3    67  LEU67       0.0001
     64  N        134.3290  -18.9650  110.6460 N.am   68  ILE68      -0.1966
     65  CA       132.8800  -19.0130  110.5650 C.3    68  ILE68       0.1727
     66  C        132.3440  -17.6080  110.8020 C.2    68  ILE68       0.2616
     67  O        132.6460  -16.9850  111.8220 O.2    68  ILE68      -0.2715
     68  CB       132.2750  -19.9920  111.5900 C.3    68  ILE68       0.0290
     69  CG1      132.7040  -21.4290  111.2750 C.3    68  ILE68       0.0022
     70  CG2      130.7540  -19.8870  111.5870 C.3    68  ILE68       0.0023
     71  CD1      132.4330  -22.4120  112.4100 C.3    68  ILE68       0.0001
     72  N        131.5740  -17.0950  109.8490 N.am   69  ASP69      -0.1957
     73  CA       130.9350  -15.7980  110.0170 C.3    69  ASP69       0.1840
     74  C        129.4840  -15.9870  110.4480 C.2    69  ASP69       0.2622
     75  O        128.6880  -16.6010  109.7390 O.2    69  ASP69      -0.2715
     76  CB       131.0050  -14.9780  108.7250 C.3    69  ASP69       0.1450
     77  CG       130.2920  -13.6410  108.8400 C.2    69  ASP69       0.3671
     78  OD1      130.9080  -12.6750  109.3340 O.co2  69  ASP69      -0.2456
     79  OD2      129.1180  -13.5500  108.4360 O.co2  69  ASP69      -0.2456
     80  N        129.1500  -15.4640  111.6210 N.am   70  CYS70      -0.1954
     81  CA       127.8010  -15.5750  112.1650 C.3    70  CYS70       0.1843
     82  C        127.5590  -14.3840  113.0730 C.2    70  CYS70       0.2626
     83  O        128.4380  -13.5560  113.2310 O.2    70  CYS70      -0.2714
     84  CB       127.6300  -16.8890  112.9250 C.3    70  CYS70       0.0997
     85  SG       128.7410  -17.0670  114.3490 S.3    70  CYS70      -0.0797
     86  N        126.3800  -14.2780  113.6690 N.am   71  SER71      -0.1936
     87  CA       126.1540  -13.2110  114.6350 C.3    71  SER71       0.2055
     88  C        126.9010  -13.5370  115.9230 C.2    71  SER71       0.2643
     89  O        127.1260  -14.7070  116.2330 O.2    71  SER71      -0.2714
     90  CB       124.6620  -13.0280  114.9150 C.3    71  SER71       0.2130
     91  OG       124.1610  -14.1180  115.6670 O.3    71  SER71      -0.2179
     92  N        127.2920  -12.5120  116.6740 N.am   72  TRP72      -0.1973
     93  CA       127.9580  -12.7500  117.9510 C.3    72  TRP72       0.1640
     94  C        127.0110  -13.3960  118.9570 C.2    72  TRP72       0.2290
     95  O        127.4480  -14.1010  119.8670 O.2    72  TRP72      -0.2864
     96  CB       128.5370  -11.4510  118.5160 C.3    72  TRP72       0.0576
     97  CG       129.9310  -11.1860  118.0190 C.ar   72  TRP72       0.0006
     98  CD1      130.3130  -10.2540  117.1000 C.ar   72  TRP72       0.0946
     99  CD2      131.1220  -11.8890  118.3990 C.ar   72  TRP72       0.0152
    100  NE1      131.6720  -10.3240  116.8930 N.ar   72  TRP72      -0.2442
    101  CE2      132.1910  -11.3230  117.6750 C.ar   72  TRP72       0.0810
    102  CE3      131.3880  -12.9390  119.2850 C.ar   72  TRP72       0.0012
    103  CZ2      133.5040  -11.7640  117.8120 C.ar   72  TRP72       0.0191
    104  CZ3      132.6960  -13.3810  119.4180 C.ar   72  TRP72       0.0001
    105  CH2      133.7380  -12.7930  118.6850 C.ar   72  TRP72       0.0015
    106  N        127.5160  -16.9710  118.1880 N.3    75  ALA75      -0.1245
    107  CA       128.9040  -17.3930  117.9870 C.3    75  ALA75       0.1562
    108  C        129.3530  -18.5190  118.9180 C.2    75  ALA75       0.2260
    109  O        130.0070  -19.4650  118.4790 O.2    75  ALA75      -0.2867
    110  CB       129.8370  -16.2000  118.1330 C.3    75  ALA75       0.0290
    111  N        130.3600  -22.2860  117.3830 N.3    79  HIS79      -0.1241
    112  CA       131.7350  -22.7670  117.4650 C.3    79  HIS79       0.1621
    113  C        131.8760  -23.9710  118.3940 C.2    79  HIS79       0.2264
    114  O        132.6650  -24.8720  118.1250 O.2    79  HIS79      -0.2867
    115  CB       132.6740  -21.6510  117.9210 C.3    79  HIS79       0.0745
    116  CG       132.9480  -20.6250  116.8660 C.ar   79  HIS79       0.0817
    117  ND1      132.1260  -19.5410  116.6470 N.ar   79  HIS79      -0.2268
    118  CD2      133.9500  -20.5280  115.9570 C.ar   79  HIS79       0.1154
    119  CE1      132.6100  -18.8180  115.6510 C.ar   79  HIS79       0.1986
    120  NE2      133.7170  -19.3940  115.2190 N.ar   79  HIS79      -0.2212
    121  N        142.0840  -18.7420  119.2330 N.3    91  ARG91      -0.1231
    122  CA       141.4800  -17.4330  119.4430 C.3    91  ARG91       0.1694
    123  C        142.5050  -16.3890  119.0450 C.2    91  ARG91       0.2592
    124  O        143.6920  -16.6910  118.9160 O.2    91  ARG91      -0.2718
    125  CB       141.0410  -17.2220  120.9000 C.3    91  ARG91       0.0321
    126  CG       142.1880  -17.1670  121.9220 C.3    91  ARG91       0.0489
    127  CD       141.6710  -16.6620  123.2730 C.3    91  ARG91       0.2205
    128  NE       142.6860  -16.6290  124.3270 N.pl3  91  ARG91      -0.0865
    129  CZ       143.5100  -15.6090  124.5520 C.cat  91  ARG91       0.5346
    130  NH1      143.4680  -14.5320  123.7780 N.pl3  91  ARG91       0.1354
    131  NH2      144.3890  -15.6710  125.5450 N.pl3  91  ARG91       0.1354
    132  N        142.0530  -15.1620  118.8310 N.am   92  LEU92      -0.1966
    133  CA       142.9930  -14.0760  118.6420 C.3    92  LEU92       0.1713
    134  C        143.4500  -13.5890  120.0040 C.2    92  LEU92       0.2458
    135  O        142.6850  -13.6240  120.9620 O.2    92  LEU92      -0.2730
    136  CB       142.3700  -12.9280  117.8470 C.3    92  LEU92       0.0310
    137  CG       142.1460  -13.2140  116.3630 C.3    92  LEU92       0.0022
    138  CD1      141.2860  -12.1210  115.7770 C.3    92  LEU92       0.0001
    139  CD2      143.4810  -13.3150  115.6280 C.3    92  LEU92       0.0001
    140  N        144.7090  -13.1450  120.0960 N.am   93  PRO93      -0.2727
    141  CA       145.1380  -12.4310  121.2980 C.3    93  PRO93       0.1402
    142  C        144.3060  -11.1690  121.4590 C.2    93  PRO93       0.2269
    143  O        143.7160  -10.6870  120.4840 O.2    93  PRO93      -0.2865
    144  CB       146.6150  -12.1090  121.0250 C.3    93  PRO93       0.0296
    145  CG       146.7870  -12.2650  119.5680 C.3    93  PRO93       0.0237
    146  CD       145.8030  -13.3050  119.1260 C.3    93  PRO93       0.0939
    147  N        138.3200   -7.5550  122.4340 N.3   107  TYR107     -0.1241
    148  CA       138.1170   -8.9510  122.0290 C.3   107  TYR107      0.1605
    149  C        137.0530   -9.1900  120.9640 C.2   107  TYR107      0.2264
    150  O        137.2430  -10.0260  120.0800 O.2   107  TYR107     -0.2867
    151  CB       137.7870   -9.8160  123.2500 C.3   107  TYR107      0.0534
    152  CG       137.9990  -11.2960  123.0110 C.ar  107  TYR107     -0.0201
    153  CD1      139.2620  -11.7930  122.7140 C.ar  107  TYR107     -0.0009
    154  CD2      136.9410  -12.1940  123.0790 C.ar  107  TYR107     -0.0009
    155  CE1      139.4700  -13.1410  122.4970 C.ar  107  TYR107      0.0417
    156  CE2      137.1390  -13.5510  122.8610 C.ar  107  TYR107      0.0417
    157  CZ       138.4070  -14.0140  122.5640 C.ar  107  TYR107      0.1957
    158  OH       138.6210  -15.3550  122.3480 O.3   107  TYR107     -0.2866
    159  N        135.6480   -8.6780  117.8570 N.3   109  LEU109     -0.1231
    160  CA       136.0200   -8.0390  116.5990 C.3   109  LEU109      0.1693
    161  C        135.0710   -8.3890  115.4600 C.2   109  LEU109      0.2593
    162  O        134.4080   -9.4240  115.4900 O.2   109  LEU109     -0.2718
    163  CB       137.4470   -8.4370  116.2030 C.3   109  LEU109      0.0284
    164  CG       138.5230   -8.2830  117.2840 C.3   109  LEU109      0.0019
    165  CD1      139.8900   -8.6890  116.7410 C.3   109  LEU109      0.0001
    166  CD2      138.5550   -6.8520  117.8180 C.3   109  LEU109      0.0001
    167  N        135.0200   -7.5230  114.4520 N.am  110  SER110     -0.1938
    168  CA       134.3390   -7.8610  113.2090 C.3   110  SER110      0.2055
    169  C        135.1380   -8.9410  112.4930 C.2   110  SER110      0.2643
    170  O        136.3150   -9.1540  112.7900 O.2   110  SER110     -0.2714
    171  CB       134.1800   -6.6320  112.3100 C.3   110  SER110      0.2130
    172  OG       135.4340   -6.1930  111.8010 O.3   110  SER110     -0.2179
    173  N        134.4960   -9.6330  111.5600 N.am  111  THR111     -0.1950
    174  CA       135.1720  -10.6830  110.8160 C.3   111  THR111      0.1897
    175  C        136.3900  -10.1170  110.0760 C.2   111  THR111      0.2313
    176  O        137.4560  -10.7330  110.0650 O.2   111  THR111     -0.2863
    177  CB       134.2100  -11.3710  109.8300 C.3   111  THR111      0.1794
    178  OG1      133.1640  -12.0150  110.5690 O.3   111  THR111     -0.2208
    179  CG2      134.9460  -12.4200  108.9910 C.3   111  THR111      0.0378
    180  N        139.2390   -9.4190  112.4360 N.3   114  ALA114     -0.1245
    181  CA       139.8290  -10.6730  112.8730 C.3   114  ALA114      0.1562
    182  C        140.7640  -11.2490  111.8220 C.2   114  ALA114      0.2260
    183  O        141.8490  -11.7320  112.1470 O.2   114  ALA114     -0.2867
    184  CB       138.7600  -11.6610  113.2050 C.3   114  ALA114      0.0290
@<TRIPOS>BOND
     1    29    28    2
     2    21    20    2
     3     9    10    1
     4    28    27    1
     5    24    23    2
     6    20    19    1
     7    20    26   am
     8    10    11    1
     9    10    13    1
    10    18    19    1
    11    18    11   am
    12    22    19    1
    13    22    23    1
    14    27    26    1
    15    27    30    1
    16    23    25   am
    17    14    13    1
    18    14    15    1
    19     4     3    2
    20    11    12    2
    21    16    15    1
    22    16    17    1
    23    30    32    1
    24    30    31    1
    25     3     2    1
    26    79    77   ar
    27    59    58    2
    28    62    61    1
    29    76    77    1
    30    76    73    1
    31    56    57    1
    32    77    78   ar
    33   179   177    1
    34     2     1    1
    35     2     5    1
    36    58    57    1
    37    58    64   am
    38    60    57    1
    39    60    61    1
    40     5     6    1
    41    75    74    2
    42   177   178    1
    43   177   174    1
    44    72    73    1
    45    72    66   am
    46    61    63    1
    47    73    74    1
    48   176   175    2
    49   175   174    1
    50    74    80   am
    51    65    64    1
    52    65    66    1
    53    65    68    1
    54    66    67    2
    55   174   173    1
    56     6     8   ar
    57     6     7   ar
    58    69    68    1
    59    69    71    1
    60   173   169   am
    61    70    68    1
    62    80    81    1
    63   172   171    1
    64   182   183    2
    65   182   181    1
    66    81    84    1
    67    81    82    1
    68   171   168    1
    69   180   181    1
    70   169   170    2
    71   169   168    1
    72    39    38    1
    73    38    37    1
    74    38    40    1
    75   181   184    1
    76    84    85    1
    77    82    83    2
    78    82    86   am
    79    33    34    1
    80   168   167    1
    81    37    34    1
    82    86    87    1
    83    34    35    1
    84    36    35    2
    85   167   161   am
    86    87    90    1
    87    87    88    1
    88    90    91    1
    89    35    41   am
    90   120   119   ar
    91   120   118   ar
    92   161   162    2
    93   161   160    1
    94   139   137    1
    95   119   117   ar
    96   138   137    1
    97    88    89    2
    98    88    92   am
    99   118   116   ar
   100   163   160    1
   101   163   164    1
   102    41    42    1
   103   137   136    1
   104   160   159    1
   105   117   116   ar
   106    92    93    1
   107   165   164    1
   108   116   115    1
   109   100    98   ar
   110   100   101   ar
   111    98    97   ar
   112    42    45    1
   113    42    43    1
   114   164   166    1
   115   111   112    1
   116    45    46    1
   117   112   115    1
   118   112   113    1
   119   101   103   ar
   120   101    99   ar
   121   103   105   ar
   122   136   133    1
   123    55    49    1
   124    55    54    1
   125    93    96    1
   126    93    94    1
   127   107   110    1
   128   107   106    1
   129   107   108    1
   130    97    99   ar
   131    97    96    1
   132   114   113    2
   133    48    46   ar
   134    46    47   ar
   135    99   102   ar
   136    43    49   am
   137    43    44    2
   138   109   108    2
   139   133   132    1
   140   133   134    1
   141   105   104   ar
   142    49    50    1
   143    54    53    1
   144   132   123   am
   145   124   123    2
   146    94    95    2
   147   123   122    1
   148   146   145    1
   149   146   140    1
   150   121   122    1
   151   102   104   ar
   152   122   125    1
   153   145   144    1
   154    53    50    1
   155    50    51    1
   156   134   140   am
   157   134   135    2
   158   150   149    2
   159   140   141    1
   160   143   142    2
   161   125   126    1
   162   149   148    1
   163   144   141    1
   164    51    52    2
   165   141   142    1
   166   126   127    1
   167   148   147    1
   168   148   151    1
   169   158   157    1
   170   155   157   ar
   171   155   153   ar
   172   157   156   ar
   173   153   152   ar
   174   156   154   ar
   175   152   154   ar
   176   152   151    1
   177   127   128    1
   178   130   129    1
   179   128   129    2
   180   129   131    1
