@<TRIPOS>MOLECULE
tmp/5aphA00.pdb
 190 184 0 0 0
SMALL
GASTEIGER

@<TRIPOS>ATOM
      1  N        -26.5780   14.8030   -8.5530 N.3    60  TRP60      -0.1241
      2  CA       -25.3080   14.6360   -9.2850 C.3    60  TRP60       0.1605
      3  C        -24.3720   13.6660   -8.5780 C.2    60  TRP60       0.2264
      4  O        -23.7600   12.7890   -9.2140 O.2    60  TRP60      -0.2867
      5  CB       -24.6290   15.9820   -9.4520 C.3    60  TRP60       0.0550
      6  CG       -25.0110   16.6240  -10.7360 C.ar   60  TRP60       0.0003
      7  CD1      -26.0810   17.4440  -10.9710 C.ar   60  TRP60       0.0946
      8  CD2      -24.3160   16.4960  -11.9810 C.ar   60  TRP60       0.0152
      9  NE1      -26.0850   17.8490  -12.2900 N.ar   60  TRP60      -0.2442
     10  CE2      -25.0120   17.2790  -12.9320 C.ar   60  TRP60       0.0810
     11  CE3      -23.1380   15.8350  -12.3710 C.ar   60  TRP60       0.0012
     12  CZ2      -24.5710   17.4030  -14.2670 C.ar   60  TRP60       0.0191
     13  CZ3      -22.7230   15.9310  -13.6940 C.ar   60  TRP60       0.0001
     14  CH2      -23.4280   16.7180  -14.6190 C.ar   60  TRP60       0.0015
     15  N        -25.6730   10.0980   -9.1600 N.3    63  CYS63      -0.1221
     16  CA       -25.4500    9.6180  -10.5220 C.3    63  CYS63       0.1808
     17  C        -23.9510    9.3980  -10.8210 C.2    63  CYS63       0.2601
     18  O        -23.5850    8.4260  -11.5020 O.2    63  CYS63      -0.2717
     19  CB       -26.1420   10.5230  -11.5380 C.3    63  CYS63       0.0970
     20  SG       -27.9580   10.5170  -11.3980 S.3    63  CYS63      -0.0800
     21  N        -23.0770   10.2590  -10.2820 N.am   64  ALA64      -0.1979
     22  CA       -21.6130   10.0890  -10.4230 C.3    64  ALA64       0.1597
     23  C        -21.1670    8.7500   -9.7700 C.2    64  ALA64       0.2287
     24  O        -20.3700    8.0080  -10.3590 O.2    64  ALA64      -0.2864
     25  CB       -20.8660   11.2910   -9.8090 C.3    64  ALA64       0.0319
     26  N        -23.1420    6.0430   -9.2920 N.3    66  HIS66      -0.1226
     27  CA       -23.6810    4.9440  -10.1190 C.3    66  HIS66       0.1752
     28  C        -22.8220    4.7570  -11.3760 C.2    66  HIS66       0.2595
     29  O        -22.4650    3.6110  -11.7030 O.2    66  HIS66      -0.2718
     30  CB       -25.1240    5.1830  -10.4910 C.3    66  HIS66       0.0759
     31  CG       -26.0230    5.0620   -9.3190 C.ar   66  HIS66       0.0818
     32  ND1      -26.0150    3.9270   -8.5160 N.ar   66  HIS66      -0.2268
     33  CD2      -26.9790    5.9110   -8.8790 C.ar   66  HIS66       0.1154
     34  CE1      -26.9490    4.1310   -7.6060 C.ar   66  HIS66       0.1986
     35  NE2      -27.5450    5.3220   -7.7760 N.ar   66  HIS66      -0.2212
     36  N        -22.4020    5.8870  -12.0240 N.am   67  LEU67      -0.1980
     37  CA       -21.5200    5.7660  -13.1890 C.3    67  LEU67       0.1596
     38  C        -20.1710    5.1270  -12.8200 C.2    67  LEU67       0.2287
     39  O        -19.6830    4.2630  -13.5530 O.2    67  LEU67      -0.2864
     40  CB       -21.2790    7.1340  -13.8500 C.3    67  LEU67       0.0297
     41  CG       -20.3820    7.1320  -15.0980 C.3    67  LEU67       0.0022
     42  CD1      -20.8990    6.1500  -16.1830 C.3    67  LEU67       0.0001
     43  CD2      -20.2340    8.5560  -15.6600 C.3    67  LEU67       0.0001
     44  N        -20.5060    1.4030  -12.4570 N.3    70  ALA70      -0.1245
     45  CA       -20.5550    0.7940  -13.7890 C.3    70  ALA70       0.1562
     46  C        -19.1700    0.7290  -14.4540 C.2    70  ALA70       0.2260
     47  O        -18.8030   -0.3120  -15.0330 O.2    70  ALA70      -0.2867
     48  CB       -21.5580    1.5300  -14.6820 C.3    70  ALA70       0.0290
     49  N        -16.6030    5.1400  -20.5910 N.3   101  MET101     -0.1245
     50  CA       -17.9500    5.7430  -20.6060 C.3   101  MET101      0.1570
     51  C        -18.7270    5.2610  -21.8380 C.2   101  MET101      0.2261
     52  O        -19.9300    5.0110  -21.7580 O.2   101  MET101     -0.2867
     53  CB       -17.8610    7.2890  -20.5910 C.3   101  MET101      0.0387
     54  CG       -19.1910    7.9750  -20.6830 C.3   101  MET101      0.0595
     55  SD       -20.2130    7.6180  -19.2380 S.3   101  MET101     -0.1393
     56  CE       -21.3490    9.1200  -19.3070 C.3   101  MET101      0.0692
     57  N        -20.0900    1.8380  -21.0130 N.3   104  VAL104     -0.1231
     58  CA       -21.2550    1.9620  -20.1130 C.3   104  VAL104      0.1692
     59  C        -22.5030    2.4140  -20.8860 C.2   104  VAL104      0.2591
     60  O        -23.5900    1.8510  -20.6870 O.2   104  VAL104     -0.2718
     61  CB       -20.9600    2.9270  -18.9520 C.3   104  VAL104      0.0266
     62  CG1      -22.2210    3.1630  -18.1110 C.3   104  VAL104      0.0020
     63  CG2      -19.8230    2.3720  -18.0810 C.3   104  VAL104      0.0020
     64  N        -22.3700    3.4130  -21.7780 N.am  105  LEU105     -0.1980
     65  CA       -23.5010    3.8730  -22.5900 C.3   105  LEU105      0.1596
     66  C        -24.1040    2.7360  -23.4440 C.2   105  LEU105      0.2287
     67  O        -25.3070    2.7070  -23.6230 O.2   105  LEU105     -0.2864
     68  CB       -23.1130    5.0760  -23.4710 C.3   105  LEU105      0.0297
     69  CG       -22.8520    6.3610  -22.6780 C.3   105  LEU105      0.0022
     70  CD1      -22.0870    7.3650  -23.5030 C.3   105  LEU105      0.0001
     71  CD2      -24.1620    6.9850  -22.1650 C.3   105  LEU105      0.0001
     72  N        -25.7910    0.0430  -20.9650 N.3   108  MET108     -0.1245
     73  CA       -27.0060    0.4980  -20.2990 C.3   108  MET108      0.1570
     74  C        -28.2820    0.2170  -21.0990 C.2   108  MET108      0.2261
     75  O        -29.3530    0.1970  -20.4950 O.2   108  MET108     -0.2867
     76  CB       -26.8710    1.9620  -19.8770 C.3   108  MET108      0.0387
     77  CG       -26.7940    2.8820  -20.9920 C.3   108  MET108      0.0595
     78  SD       -26.6610    4.5810  -20.3760 S.3   108  MET108     -0.1393
     79  CE       -28.2980    4.7250  -19.6440 C.3   108  MET108      0.0692
     80  N        -35.6320    3.3960  -17.3390 N.3   119  VAL119     -0.1231
     81  CA       -34.3380    2.8030  -17.0490 C.3   119  VAL119      0.1692
     82  C        -34.3680    2.2740  -15.6010 C.2   119  VAL119      0.2592
     83  O        -35.0160    2.8790  -14.7330 O.2   119  VAL119     -0.2718
     84  CB       -33.1610    3.8220  -17.2730 C.3   119  VAL119      0.0266
     85  CG1      -33.1720    4.9530  -16.2480 C.3   119  VAL119      0.0020
     86  CG2      -31.8030    3.1210  -17.3200 C.3   119  VAL119      0.0020
     87  N        -33.6150    1.2040  -15.3420 N.am  120  PHE120     -0.1962
     88  CA       -33.4390    0.6080  -14.0230 C.3   120  PHE120      0.1771
     89  C        -32.4500    1.4850  -13.2580 C.2   120  PHE120      0.2619
     90  O        -31.2820    1.6500  -13.6510 O.2   120  PHE120     -0.2715
     91  CB       -32.9580   -0.8520  -14.1520 C.3   120  PHE120      0.0574
     92  CG       -32.9280   -1.5700  -12.8260 C.ar  120  PHE120     -0.0200
     93  CD1      -34.1120   -1.9240  -12.1830 C.ar  120  PHE120     -0.0042
     94  CD2      -31.7170   -1.9310  -12.2430 C.ar  120  PHE120     -0.0042
     95  CE1      -34.0820   -2.6030  -10.9570 C.ar  120  PHE120     -0.0003
     96  CE2      -31.6890   -2.6150  -11.0200 C.ar  120  PHE120     -0.0003
     97  CZ       -32.8730   -2.9220  -10.3790 C.ar  120  PHE120     -0.0000
     98  N        -32.9490    2.1110  -12.1950 N.am  121  PHE121     -0.1974
     99  CA       -32.1580    3.0350  -11.4060 C.3   121  PHE121      0.1639
    100  C        -32.5220    2.8380   -9.9500 C.2   121  PHE121      0.2290
    101  O        -33.6900    2.9960   -9.6060 O.2   121  PHE121     -0.2864
    102  CB       -32.5030    4.4780  -11.8370 C.3   121  PHE121      0.0560
    103  CG       -31.7900    5.5590  -11.0540 C.ar  121  PHE121     -0.0200
    104  CD1      -30.4550    5.8390  -11.2840 C.ar  121  PHE121     -0.0042
    105  CD2      -32.4540    6.2790  -10.0710 C.ar  121  PHE121     -0.0042
    106  CE1      -29.7930    6.8500  -10.5620 C.ar  121  PHE121     -0.0003
    107  CE2      -31.8000    7.2860   -9.3600 C.ar  121  PHE121     -0.0003
    108  CZ       -30.4660    7.5450   -9.5910 C.ar  121  PHE121     -0.0000
    109  N        -34.7550   12.2070  -13.3490 N.3   131  PHE131     -0.1241
    110  CA       -33.4780   12.9310  -13.3080 C.3   131  PHE131      0.1605
    111  C        -33.5880   14.4360  -13.4260 C.2   131  PHE131      0.2264
    112  O        -32.5740   15.1040  -13.5970 O.2   131  PHE131     -0.2867
    113  CB       -32.5250   12.3940  -14.4010 C.3   131  PHE131      0.0534
    114  CG       -32.3690   10.8940  -14.2830 C.ar  131  PHE131     -0.0203
    115  CD1      -31.4320   10.3460  -13.4200 C.ar  131  PHE131     -0.0042
    116  CD2      -33.1660   10.0290  -15.0450 C.ar  131  PHE131     -0.0042
    117  CE1      -31.3210    8.9550  -13.2730 C.ar  131  PHE131     -0.0003
    118  CE2      -33.0560    8.6400  -14.9030 C.ar  131  PHE131     -0.0003
    119  CZ       -32.1190    8.1140  -14.0310 C.ar  131  PHE131     -0.0000
    120  N        -31.1280   17.1590  -11.9090 N.3   134  LEU134     -0.1245
    121  CA       -29.7600   17.3440  -12.3710 C.3   134  LEU134      0.1561
    122  C        -29.5790   18.6240  -13.1600 C.2   134  LEU134      0.2260
    123  O        -28.4720   19.1370  -13.2050 O.2   134  LEU134     -0.2867
    124  CB       -29.3760   16.1790  -13.3030 C.3   134  LEU134      0.0270
    125  CG       -29.2170   14.8160  -12.6790 C.3   134  LEU134      0.0019
    126  CD1      -28.9210   13.7880  -13.7510 C.3   134  LEU134      0.0001
    127  CD2      -28.0780   14.7880  -11.7020 C.3   134  LEU134      0.0001
    128  N        -29.7210   18.8120  -16.5060 N.3   136  CYS136     -0.1235
    129  CA       -29.0420   18.5230  -17.7670 C.3   136  CYS136      0.1677
    130  C        -30.0180   17.6820  -18.6270 C.2   136  CYS136      0.2270
    131  O        -29.7060   16.5550  -19.0630 O.2   136  CYS136     -0.2867
    132  CB       -27.6940   17.8470  -17.5460 C.3   136  CYS136      0.0956
    133  SG       -27.7680   16.2880  -16.6220 S.3   136  CYS136     -0.0801
    134  N        -28.8990   16.2200  -22.0500 N.3   139  LEU139     -0.1231
    135  CA       -28.0090   15.0750  -21.9280 C.3   139  LEU139      0.1693
    136  C        -28.8310   13.8260  -21.5410 C.2   139  LEU139      0.2591
    137  O        -28.6380   12.7550  -22.1490 O.2   139  LEU139     -0.2718
    138  CB       -26.8970   15.3570  -20.9090 C.3   139  LEU139      0.0284
    139  CG       -26.0690   14.1450  -20.4030 C.3   139  LEU139      0.0019
    140  CD1      -25.2510   13.5460  -21.4810 C.3   139  LEU139      0.0001
    141  CD2      -25.2090   14.5370  -19.2280 C.3   139  LEU139      0.0001
    142  N        -29.7680   13.9570  -20.5730 N.am  140  ILE140     -0.1980
    143  CA       -30.5660   12.7820  -20.1780 C.3   140  ILE140      0.1595
    144  C        -31.4120   12.2960  -21.3450 C.2   140  ILE140      0.2287
    145  O        -31.4530   11.0990  -21.6160 O.2   140  ILE140     -0.2864
    146  CB       -31.4440   13.1230  -18.9380 C.3   140  ILE140      0.0276
    147  CG1      -30.5590   13.5240  -17.7380 C.3   140  ILE140      0.0022
    148  CG2      -32.4230   11.9960  -18.5730 C.3   140  ILE140      0.0022
    149  CD1      -29.5630   12.3770  -17.1930 C.3   140  ILE140      0.0001
    150  N        -29.2290   10.3870  -23.7690 N.3   143  ILE143     -0.1231
    151  CA       -28.8620    9.0620  -23.2590 C.3   143  ILE143      0.1692
    152  C        -30.0710    8.1120  -23.4510 C.2   143  ILE143      0.2592
    153  O        -29.8880    6.9800  -23.9130 O.2   143  ILE143     -0.2718
    154  CB       -28.4300    9.1620  -21.7750 C.3   143  ILE143      0.0266
    155  CG1      -27.0380    9.8290  -21.6720 C.3   143  ILE143      0.0019
    156  CG2      -28.4350    7.7890  -21.0870 C.3   143  ILE143      0.0020
    157  CD1      -26.6820   10.2750  -20.2500 C.3   143  ILE143      0.0001
    158  N        -31.2860    8.5900  -23.1200 N.am  144  PHE144     -0.1976
    159  CA       -32.4880    7.7560  -23.3010 C.3   144  PHE144      0.1639
    160  C        -32.6850    7.4340  -24.7730 C.2   144  PHE144      0.2290
    161  O        -32.9690    6.2680  -25.0850 O.2   144  PHE144     -0.2864
    162  CB       -33.7390    8.4290  -22.7180 C.3   144  PHE144      0.0560
    163  CG       -33.9830    8.1140  -21.2550 C.ar  144  PHE144     -0.0200
    164  CD1      -33.0630    8.4910  -20.2770 C.ar  144  PHE144     -0.0042
    165  CD2      -35.1500    7.4800  -20.8530 C.ar  144  PHE144     -0.0042
    166  CE1      -33.3110    8.2420  -18.9260 C.ar  144  PHE144     -0.0003
    167  CE2      -35.3760    7.1780  -19.5160 C.ar  144  PHE144     -0.0003
    168  CZ       -34.4570    7.5650  -18.5540 C.ar  144  PHE144     -0.0000
    169  N        -21.6000   14.8890  -21.6050 N.3   222  HIS222     -0.1241
    170  CA       -21.4550   14.5780  -20.1630 C.3   222  HIS222      0.1621
    171  C        -20.3470   15.4760  -19.5570 C.2   222  HIS222      0.2264
    172  O        -20.5690   16.1330  -18.5270 O.2   222  HIS222     -0.2867
    173  CB       -21.1230   13.0770  -19.9850 C.3   222  HIS222      0.0745
    174  CG       -20.6350   12.7010  -18.6100 C.ar  222  HIS222      0.0817
    175  ND1      -19.4500   12.0010  -18.4420 N.ar  222  HIS222     -0.2268
    176  CD2      -21.1990   12.9090  -17.3930 C.ar  222  HIS222      0.1154
    177  CE1      -19.3030   11.8470  -17.1270 C.ar  222  HIS222      0.1986
    178  NE2      -20.3270   12.3790  -16.4560 N.ar  222  HIS222     -0.2212
    179  N        -14.1140    8.7740  -10.9300 N.3   245  TYR245     -0.1241
    180  CA       -14.9340    9.6150  -11.7970 C.3   245  TYR245      0.1605
    181  C        -14.1290   10.8900  -12.1590 C.2   245  TYR245      0.2264
    182  O        -14.0980   11.2900  -13.3260 O.2   245  TYR245     -0.2867
    183  CB       -16.2670    9.9660  -11.0770 C.3   245  TYR245      0.0534
    184  CG       -17.1910   10.8570  -11.8820 C.ar  245  TYR245     -0.0201
    185  CD1      -17.0560   12.2380  -11.8530 C.ar  245  TYR245     -0.0009
    186  CD2      -18.2470   10.3190  -12.6130 C.ar  245  TYR245     -0.0009
    187  CE1      -17.9120   13.0640  -12.5810 C.ar  245  TYR245      0.0417
    188  CE2      -19.1540   11.1430  -13.2930 C.ar  245  TYR245      0.0417
    189  CZ       -18.9900   12.5180  -13.2520 C.ar  245  TYR245      0.1957
    190  OH       -19.8340   13.3500  -13.9390 O.3   245  TYR245     -0.2866
@<TRIPOS>BOND
     1   161   160    2
     2   160   159    1
     3   153   152    2
     4   150   151    1
     5    67    66    2
     6    70    69    1
     7    68    69    1
     8    68    65    1
     9   152   151    1
    10   152   158   am
    11    66    65    1
    12   159   158    1
    13   159   162    1
    14   151   154    1
    15   162   163    1
    16    69    71    1
    17    65    64    1
    18   137   136    2
    19   134   135    1
    20   135   136    1
    21   135   138    1
    22    51    52    2
    23    51    50    1
    24    64    59   am
    25   154   155    1
    26   154   156    1
    27   155   157    1
    28   145   144    2
    29   169   170    1
    30   136   142   am
    31   140   139    1
    32   144   143    1
    33   163   165   ar
    34   163   164   ar
    35    74    75    2
    36    74    73    1
    37    57    58    1
    38    77    78    1
    39    77    76    1
    40    72    73    1
    41   138   139    1
    42    59    60    2
    43    59    58    1
    44   165   167   ar
    45    54    53    1
    46    54    55    1
    47    50    49    1
    48    50    53    1
    49   142   143    1
    50   139   141    1
    51    78    79    1
    52    73    76    1
    53   164   166   ar
    54   143   146    1
    55   170   173    1
    56   170   171    1
    57    58    61    1
    58   173   174    1
    59   171   172    2
    60   167   168   ar
    61    56    55    1
    62   131   130    2
    63    61    62    1
    64    61    63    1
    65   146   148    1
    66   146   147    1
    67   166   168   ar
    68   130   129    1
    69   174   175   ar
    70   174   176   ar
    71   175   177   ar
    72   129   132    1
    73   129   128    1
    74   147   149    1
    75   132   133    1
    76   176   178   ar
    77    80    81    1
    78    86    84    1
    79    84    81    1
    80    84    85    1
    81   177   178   ar
    82    81    82    1
    83    42    41    1
    84    43    41    1
    85    82    87   am
    86    82    83    2
    87    87    88    1
    88    41    40    1
    89   116   118   ar
    90   116   114   ar
    91    47    46    2
    92   118   119   ar
    93    48    45    1
    94    14    12   ar
    95    14    13   ar
    96    46    45    1
    97   113   114    1
    98   113   110    1
    99   114   115   ar
   100    12    10   ar
   101    91    88    1
   102    91    92    1
   103   119   117   ar
   104    88    89    1
   105   190   189    1
   106    40    37    1
   107    45    44    1
   108   126   125    1
   109    13    11   ar
   110    90    89    2
   111   112   111    2
   112    39    38    2
   113   111   110    1
   114   115   117   ar
   115   109   110    1
   116   182   181    2
   117   124   125    1
   118   124   121    1
   119   188   189   ar
   120   188   186   ar
   121    89    98   am
   122   189   187   ar
   123   123   122    2
   124    37    38    1
   125    37    36    1
   126   122   121    1
   127    10     9   ar
   128    10     8   ar
   129    92    94   ar
   130    92    93   ar
   131   125   127    1
   132   186   184   ar
   133   187   185   ar
   134   121   120    1
   135    11     8   ar
   136     9     7   ar
   137    94    96   ar
   138    98    99    1
   139    93    95   ar
   140   181   180    1
   141    36    28   am
   142     8     6   ar
   143   184   185   ar
   144   184   183    1
   145   102    99    1
   146   102   103    1
   147   180   183    1
   148   180   179    1
   149    29    28    2
   150    19    20    1
   151    19    16    1
   152    18    17    2
   153    99   100    1
   154    28    27    1
   155   104   103   ar
   156   104   106   ar
   157   103   105   ar
   158    96    97   ar
   159     7     6   ar
   160    95    97   ar
   161    17    16    1
   162    17    21   am
   163     6     5    1
   164   106   108   ar
   165    16    15    1
   166    30    27    1
   167    30    31    1
   168    22    21    1
   169    22    25    1
   170    22    23    1
   171    24    23    2
   172    27    26    1
   173   105   107   ar
   174   100   101    2
   175   108   107   ar
   176     5     2    1
   177    31    33   ar
   178    31    32   ar
   179     2     3    1
   180     2     1    1
   181     4     3    2
   182    33    35   ar
   183    32    34   ar
   184    35    34   ar
