@<TRIPOS>MOLECULE
tmp/5apjA00.pdb
 127 120 0 0 0
SMALL
GASTEIGER

@<TRIPOS>ATOM
      1  N        -18.2710    1.8660  -14.3190 N.3    71  ILE71      -0.1231
      2  CA       -16.9100    1.9950  -14.8450 C.3    71  ILE71       0.1692
      3  C        -15.9830    0.9310  -14.2970 C.2    71  ILE71       0.2591
      4  O        -15.1410    0.3810  -15.0390 O.2    71  ILE71      -0.2718
      5  CB       -16.3520    3.4480  -14.6610 C.3    71  ILE71       0.0266
      6  CG1      -17.1520    4.4430  -15.5610 C.3    71  ILE71       0.0019
      7  CG2      -14.8530    3.5040  -14.9940 C.3    71  ILE71       0.0020
      8  CD1      -17.0000    5.9010  -15.1840 C.3    71  ILE71       0.0001
      9  N        -16.1490    0.6250  -13.0060 N.am   72  GLN72      -0.1979
     10  CA       -15.3360   -0.3890  -12.3530 C.3    72  GLN72       0.1601
     11  C        -15.4660   -1.7390  -13.0460 C.2    72  GLN72       0.2287
     12  O        -14.4630   -2.3960  -13.2660 O.2    72  GLN72      -0.2864
     13  CB       -15.6390   -0.4720  -10.8440 C.3    72  GLN72       0.0394
     14  CG       -14.9640    0.6620  -10.0550 C.3    72  GLN72       0.0908
     15  CD       -15.4820    0.8840   -8.6370 C.2    72  GLN72       0.2608
     16  OE1      -15.0930    1.8390   -7.9650 O.2    72  GLN72      -0.2717
     17  NE2      -16.3900    0.0470   -8.1480 N.am   72  GLN72      -0.0878
     18  N        -13.5050   -1.6000  -16.3790 N.3    75  VAL75      -0.1245
     19  CA       -12.0490   -1.7640  -16.1840 C.3    75  VAL75       0.1561
     20  C        -11.7110   -3.2880  -16.1080 C.2    75  VAL75       0.2260
     21  O        -10.7570   -3.7510  -16.7430 O.2    75  VAL75      -0.2867
     22  CB       -11.5170   -0.9540  -14.9630 C.3    75  VAL75       0.0252
     23  CG1      -10.0550   -1.2870  -14.6600 C.3    75  VAL75       0.0019
     24  CG2      -11.6750    0.5540  -15.1920 C.3    75  VAL75       0.0019
     25  N         -9.4010   -5.5850  -18.6110 N.3    79  LYS79      -0.1245
     26  CA        -8.3090   -6.4200  -18.1000 C.3    79  LYS79       0.1561
     27  C         -8.4120   -7.8690  -18.5800 C.2    79  LYS79       0.2260
     28  O         -7.3840   -8.4970  -18.8260 O.2    79  LYS79      -0.2867
     29  CB        -8.2740   -6.3970  -16.5630 C.3    79  LYS79       0.0271
     30  CG        -7.9010   -5.0360  -15.9760 C.3    79  LYS79       0.0035
     31  CD        -7.8120   -5.0680  -14.4390 C.3    79  LYS79       0.0206
     32  CE        -6.5100   -5.6780  -13.9450 C.3    79  LYS79       0.1093
     33  NZ        -6.6640   -6.3050  -12.6070 N.3    79  LYS79      -0.1314
     34  N         -5.3060   -6.7950  -24.0830 N.3    84  PHE84      -0.1227
     35  CA        -5.3500   -5.5340  -23.3270 C.3    84  PHE84       0.1736
     36  C         -4.2210   -5.3770  -22.3030 C.2    84  PHE84       0.2595
     37  O         -3.5580   -4.3410  -22.2850 O.2    84  PHE84      -0.2718
     38  CB        -6.7400   -5.2870  -22.6940 C.3    84  PHE84       0.0547
     39  CG        -6.8830   -3.9320  -22.0340 C.ar   84  PHE84      -0.0202
     40  CD1       -7.2380   -2.8120  -22.7770 C.ar   84  PHE84      -0.0042
     41  CD2       -6.6270   -3.7690  -20.6750 C.ar   84  PHE84      -0.0042
     42  CE1       -7.3220   -1.5500  -22.1760 C.ar   84  PHE84      -0.0003
     43  CE2       -6.7510   -2.5190  -20.0690 C.ar   84  PHE84      -0.0003
     44  CZ        -7.1130   -1.4210  -20.8240 C.ar   84  PHE84      -0.0000
     45  N         -3.9860   -6.4110  -21.4770 N.am   85  MET85      -0.1979
     46  CA        -2.9240   -6.3750  -20.4630 C.3    85  MET85       0.1605
     47  C         -1.5170   -6.4300  -21.0500 C.2    85  MET85       0.2287
     48  O         -0.5410   -6.2020  -20.3300 O.2    85  MET85      -0.2864
     49  CB        -3.1240   -7.4640  -19.3830 C.3    85  MET85       0.0413
     50  CG        -4.2960   -7.2000  -18.4400 C.3    85  MET85       0.0598
     51  SD        -4.5160   -5.4730  -17.9660 S.3    85  MET85      -0.1393
     52  CE        -3.1070   -5.2560  -16.7940 C.3    85  MET85       0.0692
     53  N          0.9610    0.5590  -20.0850 N.3    89  GLN89      -0.1245
     54  CA         0.0450    1.2550  -19.1930 C.3    89  GLN89       0.1566
     55  C         -0.4630    2.5820  -19.7290 C.2    89  GLN89       0.2260
     56  O         -1.6270    2.8810  -19.5130 O.2    89  GLN89      -0.2867
     57  CB         0.5940    1.3710  -17.7600 C.3    89  GLN89       0.0367
     58  CG        -0.5700    1.3280  -16.7550 C.3    89  GLN89       0.0905
     59  CD        -0.1790    1.5120  -15.3150 C.2    89  GLN89       0.2608
     60  OE1        0.6300    2.3800  -14.9620 O.2    89  GLN89      -0.2717
     61  NE2       -0.8240    0.7550  -14.4460 N.am   89  GLN89      -0.0878
     62  N         -3.2680    1.5730  -22.1300 N.3    92  GLN92      -0.1231
     63  CA        -4.3950    0.9950  -21.3950 C.3    92  GLN92       0.1698
     64  C         -5.2540    2.1230  -20.8250 C.2    92  GLN92       0.2592
     65  O         -6.4760    2.0680  -20.9130 O.2    92  GLN92      -0.2718
     66  CB        -3.8900    0.0960  -20.2320 C.3    92  GLN92       0.0381
     67  CG        -3.2340   -1.2160  -20.6930 C.3    92  GLN92       0.0905
     68  CD        -2.5820   -1.9790  -19.5490 C.2    92  GLN92       0.2608
     69  OE1       -2.7030   -1.6320  -18.3770 O.2    92  GLN92      -0.2717
     70  NE2       -1.8730   -3.0450  -19.8600 N.am   92  GLN92      -0.0878
     71  N         -4.5960    3.1340  -20.2360 N.am   93  ILE93      -0.1980
     72  CA        -5.2380    4.3040  -19.6330 C.3    93  ILE93       0.1595
     73  C         -5.8410    5.1820  -20.7180 C.2    93  ILE93       0.2287
     74  O         -6.9200    5.7140  -20.5080 O.2    93  ILE93      -0.2864
     75  CB        -4.2240    5.0610  -18.7140 C.3    93  ILE93       0.0276
     76  CG1       -3.9690    4.2220  -17.4440 C.3    93  ILE93       0.0022
     77  CG2       -4.7060    6.5410  -18.3780 C.3    93  ILE93       0.0022
     78  CD1       -2.8130    4.6420  -16.6800 C.3    93  ILE93       0.0001
     79  N         -9.0550    3.2800  -21.7490 N.3    96  LEU96      -0.1231
     80  CA       -10.0930    3.3470  -20.7320 C.3    96  LEU96       0.1693
     81  C        -10.6720    4.7370  -20.5170 C.2    96  LEU96       0.2591
     82  O        -11.8880    4.8660  -20.3820 O.2    96  LEU96      -0.2718
     83  CB        -9.6250    2.6830  -19.4210 C.3    96  LEU96       0.0284
     84  CG        -9.5990    1.1540  -19.4670 C.3    96  LEU96       0.0019
     85  CD1       -8.7790    0.6030  -18.3360 C.3    96  LEU96       0.0001
     86  CD2      -11.0210    0.5610  -19.4580 C.3    96  LEU96       0.0001
     87  N         -9.8340    5.7810  -20.5390 N.am   97  LYS97      -0.1980
     88  CA       -10.2980    7.1710  -20.3960 C.3    97  LYS97       0.1596
     89  C        -11.2120    7.6020  -21.5390 C.2    97  LYS97       0.2287
     90  O        -12.1810    8.3170  -21.3130 O.2    97  LYS97      -0.2864
     91  CB        -9.1100    8.1450  -20.3000 C.3    97  LYS97       0.0298
     92  CG        -8.4860    8.2160  -18.9180 C.3    97  LYS97       0.0038
     93  CD        -7.3440    9.2340  -18.8550 C.3    97  LYS97       0.0206
     94  CE        -7.7760   10.6350  -18.4930 C.3    97  LYS97       0.1093
     95  NZ        -6.6010   11.5450  -18.3450 N.3    97  LYS97      -0.1314
     96  N        -13.2070    9.5370   -6.5500 N.3   243  PRO243     -0.2102
     97  CA       -11.9020    9.7910   -7.2000 C.3   243  PRO243      0.1504
     98  C        -11.7460    9.2330   -8.6290 C.2   243  PRO243      0.2575
     99  O        -11.0840    9.8800   -9.4330 O.2   243  PRO243     -0.2718
    100  CB       -10.8750    9.1340   -6.2490 C.3   243  PRO243      0.0282
    101  CG       -11.5570    9.0420   -4.9510 C.3   243  PRO243      0.0208
    102  CD       -13.0340    8.8800   -5.2340 C.3   243  PRO243      0.0893
    103  N        -12.3290    8.0470   -8.9390 N.am  244  LEU244     -0.1980
    104  CA       -12.2360    7.4450  -10.2810 C.3   244  LEU244      0.1596
    105  C        -13.0130    8.2580  -11.3020 C.2   244  LEU244      0.2287
    106  O        -12.5110    8.4940  -12.4060 O.2   244  LEU244     -0.2864
    107  CB       -12.6410    5.9410  -10.2960 C.3   244  LEU244      0.0297
    108  CG       -12.6030    5.2130  -11.6590 C.3   244  LEU244      0.0022
    109  CD1      -11.2160    5.2360  -12.2630 C.3   244  LEU244      0.0001
    110  CD2      -13.1740    3.7950  -11.5550 C.3   244  LEU244      0.0001
    111  N        -10.9180   11.3610  -12.0750 N.3   247  GLU247     -0.1231
    112  CA        -9.7450   10.9490  -12.8480 C.3   247  GLU247      0.1699
    113  C        -10.1120   10.7860  -14.3270 C.2   247  GLU247      0.2592
    114  O         -9.3050   11.0790  -15.2080 O.2   247  GLU247     -0.2718
    115  CB        -9.2740    9.6030  -12.3150 C.3   247  GLU247      0.0402
    116  CG        -7.7930    9.3690  -12.4470 C.3   247  GLU247      0.1161
    117  CD        -7.4150    8.1450  -11.6500 C.2   247  GLU247      0.3649
    118  OE1       -7.1720    8.2830  -10.4280 O.co2 247  GLU247     -0.2457
    119  OE2       -7.4860    7.0340  -12.2220 O.co2 247  GLU247     -0.2457
    120  N        -11.3300   10.3160  -14.5910 N.am  248  LEU248     -0.1980
    121  CA       -11.8140   10.1170  -15.9590 C.3   248  LEU248      0.1596
    122  C        -12.3670   11.3410  -16.6510 C.2   248  LEU248      0.2287
    123  O        -12.1420   11.4960  -17.8500 O.2   248  LEU248     -0.2864
    124  CB       -12.8720    9.0060  -15.9890 C.3   248  LEU248      0.0297
    125  CG       -12.3200    7.5970  -15.8520 C.3   248  LEU248      0.0022
    126  CD1      -13.3630    6.6910  -15.2870 C.3   248  LEU248      0.0001
    127  CD2      -11.8660    7.0650  -17.1790 C.3   248  LEU248      0.0001
@<TRIPOS>BOND
     1    34    35    1
     2    35    38    1
     3    35    36    1
     4    40    42   ar
     5    40    39   ar
     6    38    39    1
     7    36    37    2
     8    36    45   am
     9    42    44   ar
    10    62    63    1
    11    39    41   ar
    12    79    80    1
    13    89    90    2
    14    89    88    1
    15    45    46    1
    16    63    64    1
    17    63    66    1
    18    47    46    1
    19    47    48    2
    20    65    64    2
    21    64    71   am
    22    44    43   ar
    23    80    81    1
    24    80    83    1
    25    73    74    2
    26    73    72    1
    27    67    66    1
    28    67    68    1
    29    41    43   ar
    30    87    81   am
    31    87    88    1
    32    81    82    2
    33    46    49    1
    34    88    91    1
    35    91    92    1
    36    71    72    1
    37    53    54    1
    38    70    68   am
    39    55    56    2
    40    55    54    1
    41    72    75    1
    42    68    69    2
    43    84    86    1
    44    84    83    1
    45    84    85    1
    46    49    50    1
    47    54    57    1
    48    92    93    1
    49    93    94    1
    50    28    27    2
    51    75    77    1
    52    75    76    1
    53    25    26    1
    54    27    26    1
    55    94    95    1
    56    50    51    1
    57    26    29    1
    58    51    52    1
    59   123   122    2
    60    57    58    1
    61    76    78    1
    62   127   125    1
    63    58    59    1
    64    21    20    2
    65   122   121    1
    66    29    30    1
    67    18    19    1
    68    19    20    1
    69    19    22    1
    70   124   121    1
    71   124   125    1
    72    30    31    1
    73   121   120    1
    74   125   126    1
    75     6     8    1
    76     6     5    1
    77    59    60    2
    78    59    61   am
    79   114   113    2
    80    24    22    1
    81     4     3    2
    82     7     5    1
    83    22    23    1
    84     2     5    1
    85     2     1    1
    86     2     3    1
    87   120   113   am
    88    31    32    1
    89   113   112    1
    90     3     9   am
    91    32    33    1
    92    12    11    2
    93    11    10    1
    94     9    10    1
    95   112   115    1
    96   112   111    1
    97   116   115    1
    98   116   117    1
    99   106   105    2
   100    10    13    1
   101   109   108    1
   102   119   117   ar
   103   108   110    1
   104   108   107    1
   105   117   118   ar
   106   105   104    1
   107    13    14    1
   108   107   104    1
   109   104   103    1
   110    14    15    1
   111    99    98    2
   112   103    98   am
   113    15    17   am
   114    15    16    2
   115    98    97    1
   116    97    96    1
   117    97   100    1
   118    96   102    1
   119   100   101    1
   120   102   101    1
