@<TRIPOS>MOLECULE
tmp/5apjA01.pdb
 208 201 0 0 0
SMALL
GASTEIGER

@<TRIPOS>ATOM
      1  N        -22.2040   -6.3090  -14.5720 N.3    29  GLN29      -0.1245
      2  CA       -22.5630   -5.7650  -13.2880 C.3    29  GLN29       0.1566
      3  C        -23.9990   -6.2430  -12.9960 C.2    29  GLN29       0.2260
      4  O        -24.3030   -6.6350  -11.8700 O.2    29  GLN29      -0.2867
      5  CB       -22.4730   -4.2500  -13.4040 C.3    29  GLN29       0.0367
      6  CG       -22.9750   -3.4680  -12.2210 C.3    29  GLN29       0.0905
      7  CD       -22.8830   -1.9980  -12.5280 C.2    29  GLN29       0.2608
      8  OE1      -22.7570   -1.5730  -13.6860 O.2    29  GLN29      -0.2717
      9  NE2      -22.9550   -1.1910  -11.5010 N.am   29  GLN29      -0.0878
     10  N        -26.7220   14.6860   -8.6160 N.3    60  TRP60      -0.1241
     11  CA       -25.4330   14.5840   -9.3330 C.3    60  TRP60       0.1605
     12  C        -24.4810   13.6050   -8.6420 C.2    60  TRP60       0.2264
     13  O        -23.8400   12.7870   -9.2980 O.2    60  TRP60      -0.2867
     14  CB       -24.7720   15.9690   -9.4550 C.3    60  TRP60       0.0550
     15  CG       -25.0680   16.6640  -10.7470 C.ar   60  TRP60       0.0003
     16  CD1      -26.1430   17.4600  -11.0300 C.ar   60  TRP60       0.0946
     17  CD2      -24.2890   16.5920  -11.9510 C.ar   60  TRP60       0.0152
     18  NE1      -26.0870   17.8800  -12.3430 N.ar   60  TRP60      -0.2442
     19  CE2      -24.9530   17.3720  -12.9270 C.ar   60  TRP60       0.0810
     20  CE3      -23.0880   15.9430  -12.2980 C.ar   60  TRP60       0.0012
     21  CZ2      -24.4650   17.5020  -14.2380 C.ar   60  TRP60       0.0191
     22  CZ3      -22.5780   16.1160  -13.5820 C.ar   60  TRP60       0.0001
     23  CH2      -23.2530   16.9070  -14.5280 C.ar   60  TRP60       0.0015
     24  N        -25.7010    9.9200   -9.0400 N.3    63  CYS63      -0.1221
     25  CA       -25.4450    9.5110  -10.4210 C.3    63  CYS63       0.1808
     26  C        -23.9660    9.2820  -10.7060 C.2    63  CYS63       0.2601
     27  O        -23.6250    8.3070  -11.3780 O.2    63  CYS63      -0.2717
     28  CB       -26.0990   10.4660  -11.4190 C.3    63  CYS63       0.0970
     29  SG       -27.9120   10.4730  -11.3520 S.3    63  CYS63      -0.0800
     30  N        -23.0910   10.1020  -10.1010 N.am   64  ALA64      -0.1979
     31  CA       -21.6260    9.9960  -10.2210 C.3    64  ALA64       0.1597
     32  C        -21.1010    8.6790   -9.6060 C.2    64  ALA64       0.2287
     33  O        -20.2410    8.0360  -10.2080 O.2    64  ALA64      -0.2864
     34  CB       -20.9430   11.2020   -9.5630 C.3    64  ALA64       0.0319
     35  N        -23.0390    5.9290   -9.0830 N.3    66  HIS66      -0.1226
     36  CA       -23.5330    4.8280   -9.9120 C.3    66  HIS66       0.1752
     37  C        -22.7160    4.6810  -11.1930 C.2    66  HIS66       0.2595
     38  O        -22.4170    3.5540  -11.5860 O.2    66  HIS66      -0.2718
     39  CB       -25.0100    4.9750  -10.2330 C.3    66  HIS66       0.0759
     40  CG       -25.9130    4.8630   -9.0450 C.ar   66  HIS66       0.0818
     41  ND1      -25.9150    3.7330   -8.2360 N.ar   66  HIS66      -0.2268
     42  CD2      -26.8720    5.7150   -8.6100 C.ar   66  HIS66       0.1154
     43  CE1      -26.8370    3.9520   -7.3160 C.ar   66  HIS66       0.1986
     44  NE2      -27.4250    5.1440   -7.4850 N.ar   66  HIS66      -0.2212
     45  N        -22.2980    5.8150  -11.8110 N.am   67  LEU67      -0.1980
     46  CA       -21.4670    5.7760  -13.0180 C.3    67  LEU67       0.1596
     47  C        -20.1350    5.0960  -12.7070 C.2    67  LEU67       0.2287
     48  O        -19.7240    4.1830  -13.4350 O.2    67  LEU67      -0.2864
     49  CB       -21.2720    7.1770  -13.6420 C.3    67  LEU67       0.0297
     50  CG       -20.3600    7.2600  -14.8990 C.3    67  LEU67       0.0022
     51  CD1      -20.7480    6.2180  -15.9460 C.3    67  LEU67       0.0001
     52  CD2      -20.4080    8.6400  -15.5360 C.3    67  LEU67       0.0001
     53  N        -20.3760    1.4190  -12.4360 N.3    70  ALA70      -0.1245
     54  CA       -20.4690    0.8540  -13.7820 C.3    70  ALA70       0.1562
     55  C        -19.0580    0.7730  -14.4280 C.2    70  ALA70       0.2260
     56  O        -18.6810   -0.2800  -14.9520 O.2    70  ALA70      -0.2867
     57  CB       -21.4370    1.6680  -14.6390 C.3    70  ALA70       0.0290
     58  N        -16.7140    5.2380  -20.5530 N.3   101  MET101     -0.1245
     59  CA       -18.0390    5.8760  -20.5750 C.3   101  MET101      0.1570
     60  C        -18.8310    5.3970  -21.7830 C.2   101  MET101      0.2261
     61  O        -20.0310    5.1570  -21.6590 O.2   101  MET101     -0.2867
     62  CB       -17.8880    7.4200  -20.5880 C.3   101  MET101      0.0387
     63  CG       -19.1870    8.1960  -20.5230 C.3   101  MET101      0.0595
     64  SD       -20.0430    7.8440  -18.9900 S.3   101  MET101     -0.1393
     65  CE       -21.6790    8.0640  -19.4610 C.3   101  MET101      0.0692
     66  N        -20.1350    1.9090  -20.9770 N.3   104  VAL104     -0.1231
     67  CA       -21.2360    2.0670  -20.0200 C.3   104  VAL104      0.1692
     68  C        -22.5200    2.4860  -20.7960 C.2   104  VAL104      0.2591
     69  O        -23.5950    1.9230  -20.5550 O.2   104  VAL104     -0.2718
     70  CB       -20.8490    3.0860  -18.9240 C.3   104  VAL104      0.0266
     71  CG1      -22.0680    3.5880  -18.1550 C.3   104  VAL104      0.0020
     72  CG2      -19.8260    2.4870  -17.9690 C.3   104  VAL104      0.0020
     73  N        -22.3880    3.4420  -21.7290 N.am  105  LEU105     -0.1980
     74  CA       -23.5220    3.9480  -22.5340 C.3   105  LEU105      0.1596
     75  C        -24.1500    2.8510  -23.4030 C.2   105  LEU105      0.2287
     76  O        -25.3600    2.7850  -23.5240 O.2   105  LEU105     -0.2864
     77  CB       -23.1170    5.1520  -23.3890 C.3   105  LEU105      0.0297
     78  CG       -22.8850    6.4850  -22.6520 C.3   105  LEU105      0.0022
     79  CD1      -22.1290    7.4770  -23.5320 C.3   105  LEU105      0.0001
     80  CD2      -24.1960    7.1130  -22.1440 C.3   105  LEU105      0.0001
     81  N        -25.9140    0.1190  -21.0810 N.3   108  MET108     -0.1245
     82  CA       -27.1480    0.7260  -20.5640 C.3   108  MET108      0.1570
     83  C        -28.4370    0.2570  -21.2500 C.2   108  MET108      0.2261
     84  O        -29.4580    0.1360  -20.5620 O.2   108  MET108     -0.2867
     85  CB       -27.0330    2.2540  -20.6160 C.3   108  MET108      0.0387
     86  CG       -28.3230    2.9760  -20.2880 C.3   108  MET108      0.0595
     87  SD       -28.1280    4.6700  -19.7330 S.3   108  MET108     -0.1393
     88  CE       -26.4140    4.9500  -20.2080 C.3   108  MET108      0.0692
     89  N        -35.7920    3.1810  -17.4290 N.3   119  VAL119     -0.1231
     90  CA       -34.4650    2.6690  -17.1530 C.3   119  VAL119      0.1692
     91  C        -34.4070    2.1610  -15.7170 C.2   119  VAL119      0.2592
     92  O        -35.0060    2.7640  -14.8240 O.2   119  VAL119     -0.2718
     93  CB       -33.3850    3.7610  -17.4270 C.3   119  VAL119      0.0266
     94  CG1      -33.3770    4.8510  -16.3440 C.3   119  VAL119      0.0020
     95  CG2      -31.9970    3.1400  -17.6210 C.3   119  VAL119      0.0020
     96  N        -33.6270    1.0940  -15.4920 N.am  120  PHE120     -0.1962
     97  CA       -33.4060    0.5610  -14.1680 C.3   120  PHE120      0.1771
     98  C        -32.4320    1.5190  -13.4610 C.2   120  PHE120      0.2620
     99  O        -31.3940    1.9020  -14.0130 O.2   120  PHE120     -0.2715
    100  CB       -32.8910   -0.8750  -14.2480 C.3   120  PHE120      0.0574
    101  CG       -32.7710   -1.5650  -12.9110 C.ar  120  PHE120     -0.0200
    102  CD1      -33.8900   -2.1200  -12.2920 C.ar  120  PHE120     -0.0042
    103  CD2      -31.5290   -1.7190  -12.2990 C.ar  120  PHE120     -0.0042
    104  CE1      -33.7730   -2.7870  -11.0720 C.ar  120  PHE120     -0.0003
    105  CE2      -31.4170   -2.3690  -11.0670 C.ar  120  PHE120     -0.0003
    106  CZ       -32.5380   -2.9050  -10.4680 C.ar  120  PHE120     -0.0000
    107  N        -32.8590    2.0200  -12.2970 N.am  121  PHE121     -0.1960
    108  CA       -32.1360    2.9930  -11.5050 C.3   121  PHE121      0.1771
    109  C        -32.4940    2.7500  -10.0370 C.2   121  PHE121      0.2619
    110  O        -33.6770    2.7800   -9.7000 O.2   121  PHE121     -0.2715
    111  CB       -32.5740    4.4380  -11.9180 C.3   121  PHE121      0.0574
    112  CG       -31.8510    5.5090  -11.1360 C.ar  121  PHE121     -0.0200
    113  CD1      -30.5180    5.8000  -11.3960 C.ar  121  PHE121     -0.0042
    114  CD2      -32.4900    6.1960  -10.1060 C.ar  121  PHE121     -0.0042
    115  CE1      -29.8370    6.7670  -10.6450 C.ar  121  PHE121     -0.0003
    116  CE2      -31.8080    7.1500   -9.3570 C.ar  121  PHE121     -0.0003
    117  CZ       -30.4770    7.4210   -9.6210 C.ar  121  PHE121     -0.0000
    118  N        -31.4750    2.5090   -9.1720 N.am  122  GLU122     -0.1977
    119  CA       -31.6440    2.2920   -7.7230 C.3   122  GLU122      0.1602
    120  C        -32.7870    1.3150   -7.3690 C.2   122  GLU122      0.2287
    121  O        -33.6370    1.6350   -6.5380 O.2   122  GLU122     -0.2864
    122  CB       -31.7770    3.6340   -6.9670 C.3   122  GLU122      0.0415
    123  CG       -30.5800    4.5630   -7.1380 C.3   122  GLU122      0.1163
    124  CD       -30.5310    5.8140   -6.2750 C.2   122  GLU122      0.3649
    125  OE1      -31.5930    6.2710   -5.7930 O.co2 122  GLU122     -0.2457
    126  OE2      -29.4110    6.3200   -6.0500 O.co2 122  GLU122     -0.2457
    127  N        -34.6400   11.9910  -13.4000 N.3   131  PHE131     -0.1241
    128  CA       -33.3680   12.7210  -13.4010 C.3   131  PHE131      0.1605
    129  C        -33.5100   14.2510  -13.5860 C.2   131  PHE131      0.2264
    130  O        -32.5020   14.9120  -13.8200 O.2   131  PHE131     -0.2867
    131  CB       -32.4490   12.1130  -14.4960 C.3   131  PHE131      0.0534
    132  CG       -32.2800   10.6150  -14.3670 C.ar  131  PHE131     -0.0203
    133  CD1      -31.3260   10.0780  -13.4970 C.ar  131  PHE131     -0.0042
    134  CD2      -33.1190    9.7410  -15.0580 C.ar  131  PHE131     -0.0042
    135  CE1      -31.1980    8.6960  -13.3350 C.ar  131  PHE131     -0.0003
    136  CE2      -33.0020    8.3540  -14.8900 C.ar  131  PHE131     -0.0003
    137  CZ       -32.0320    7.8360  -14.0320 C.ar  131  PHE131     -0.0000
    138  N        -31.1010   17.0060  -11.9530 N.3   134  LEU134     -0.1245
    139  CA       -29.7370   17.1560  -12.4970 C.3   134  LEU134      0.1561
    140  C        -29.5620   18.4480  -13.2980 C.2   134  LEU134      0.2260
    141  O        -28.4460   18.9470  -13.4120 O.2   134  LEU134     -0.2867
    142  CB       -29.3260   15.9530  -13.4000 C.3   134  LEU134      0.0270
    143  CG       -29.1630   14.5790  -12.7270 C.3   134  LEU134      0.0019
    144  CD1      -28.8280   13.4990  -13.7350 C.3   134  LEU134      0.0001
    145  CD2      -28.0750   14.6070  -11.7220 C.3   134  LEU134      0.0001
    146  N        -29.9390   18.7500  -16.6490 N.3   136  CYS136     -0.1235
    147  CA       -29.3280   18.4830  -17.9550 C.3   136  CYS136      0.1677
    148  C        -30.2490   17.5890  -18.8020 C.2   136  CYS136      0.2270
    149  O        -29.9090   16.4620  -19.1630 O.2   136  CYS136     -0.2867
    150  CB       -27.8840   17.9710  -17.8620 C.3   136  CYS136      0.0956
    151  SG       -27.6440   16.5590  -16.7610 S.3   136  CYS136     -0.0801
    152  N        -29.0280   16.2370  -22.2970 N.3   139  LEU139     -0.1231
    153  CA       -28.1770   15.0670  -22.1590 C.3   139  LEU139      0.1693
    154  C        -28.9860   13.7910  -21.8250 C.2   139  LEU139      0.2591
    155  O        -28.8110   12.7860  -22.4950 O.2   139  LEU139     -0.2718
    156  CB       -27.0310   15.2840  -21.1640 C.3   139  LEU139      0.0284
    157  CG       -26.0670   14.0970  -20.9240 C.3   139  LEU139      0.0019
    158  CD1      -25.4930   13.5480  -22.2290 C.3   139  LEU139      0.0001
    159  CD2      -24.9640   14.5080  -20.0040 C.3   139  LEU139      0.0001
    160  N        -29.8690   13.8520  -20.8420 N.am  140  ILE140     -0.1980
    161  CA       -30.6920   12.7270  -20.4140 C.3   140  ILE140      0.1595
    162  C        -31.5720   12.1850  -21.5410 C.2   140  ILE140      0.2287
    163  O        -31.5880   10.9760  -21.7580 O.2   140  ILE140     -0.2864
    164  CB       -31.5130   13.0770  -19.1440 C.3   140  ILE140      0.0276
    165  CG1      -30.6180   13.6010  -17.9660 C.3   140  ILE140      0.0022
    166  CG2      -32.4640   11.9280  -18.7390 C.3   140  ILE140      0.0022
    167  CD1      -29.6850   12.6430  -17.3100 C.3   140  ILE140      0.0001
    168  N        -29.4530   10.4530  -23.9690 N.3   143  ILE143     -0.1231
    169  CA       -29.0220    9.1530  -23.4250 C.3   143  ILE143      0.1692
    170  C        -30.1560    8.1270  -23.5860 C.2   143  ILE143      0.2592
    171  O        -29.8960    7.0020  -23.9950 O.2   143  ILE143     -0.2718
    172  CB       -28.4860    9.2350  -21.9520 C.3   143  ILE143      0.0266
    173  CG1      -27.1340    9.9590  -21.8770 C.3   143  ILE143      0.0019
    174  CG2      -28.3710    7.8480  -21.3170 C.3   143  ILE143      0.0020
    175  CD1      -26.7360   10.3450  -20.4660 C.3   143  ILE143      0.0001
    176  N        -31.3960    8.5320  -23.2940 N.am  144  PHE144     -0.1976
    177  CA       -32.5980    7.6810  -23.4180 C.3   144  PHE144      0.1639
    178  C        -32.8470    7.3350  -24.9050 C.2   144  PHE144      0.2290
    179  O        -33.1990    6.2030  -25.2140 O.2   144  PHE144     -0.2864
    180  CB       -33.8320    8.3790  -22.7820 C.3   144  PHE144      0.0560
    181  CG       -34.0270    8.0860  -21.3080 C.ar  144  PHE144     -0.0200
    182  CD1      -33.0740    8.4680  -20.3720 C.ar  144  PHE144     -0.0042
    183  CD2      -35.1590    7.4120  -20.8580 C.ar  144  PHE144     -0.0042
    184  CE1      -33.2480    8.1830  -19.0220 C.ar  144  PHE144     -0.0003
    185  CE2      -35.3130    7.0980  -19.5020 C.ar  144  PHE144     -0.0003
    186  CZ       -34.3610    7.4960  -18.5980 C.ar  144  PHE144     -0.0000
    187  N        -21.5000   14.9230  -21.6820 N.3   222  HIS222     -0.1241
    188  CA       -21.2770   14.6070  -20.2580 C.3   222  HIS222      0.1621
    189  C        -20.1600   15.5030  -19.6760 C.2   222  HIS222      0.2264
    190  O        -20.3590   16.1090  -18.6330 O.2   222  HIS222     -0.2867
    191  CB       -20.9870   13.0930  -20.0280 C.3   222  HIS222      0.0745
    192  CG       -20.6610   12.7250  -18.5990 C.ar  222  HIS222      0.0817
    193  ND1      -19.4650   12.0680  -18.2680 N.ar  222  HIS222     -0.2268
    194  CD2      -21.3600   12.9590  -17.4530 C.ar  222  HIS222      0.1154
    195  CE1      -19.4930   11.9120  -16.9470 C.ar  222  HIS222      0.1986
    196  NE2      -20.6090   12.4350  -16.4090 N.ar  222  HIS222     -0.2212
    197  N        -14.2020    8.7480  -10.9090 N.3   245  TYR245     -0.1241
    198  CA       -15.0380    9.6180  -11.7390 C.3   245  TYR245      0.1605
    199  C        -14.2230   10.8820  -12.1640 C.2   245  TYR245      0.2264
    200  O        -14.1670   11.2300  -13.3540 O.2   245  TYR245     -0.2867
    201  CB       -16.3160   10.0100  -10.9510 C.3   245  TYR245      0.0534
    202  CG       -17.2670   10.9190  -11.7070 C.ar  245  TYR245     -0.0201
    203  CD1      -17.0950   12.3020  -11.7070 C.ar  245  TYR245     -0.0009
    204  CD2      -18.3280   10.3950  -12.4420 C.ar  245  TYR245     -0.0009
    205  CE1      -17.9670   13.1430  -12.4010 C.ar  245  TYR245      0.0417
    206  CE2      -19.1840   11.2250  -13.1670 C.ar  245  TYR245      0.0417
    207  CZ       -19.0290   12.6000  -13.1000 C.ar  245  TYR245      0.1957
    208  OH       -19.8480   13.4230  -13.8270 O.3   245  TYR245     -0.2866
@<TRIPOS>BOND
     1   179   178    2
     2   178   177    1
     3   171   170    2
     4   168   169    1
     5   170   169    1
     6   170   176   am
     7    79    78    1
     8    76    75    2
     9   169   172    1
    10   177   176    1
    11   177   180    1
    12    75    74    1
    13    77    78    1
    14    77    74    1
    15   180   181    1
    16    78    80    1
    17    74    73    1
    18   155   154    2
    19   152   153    1
    20   158   157    1
    21   153   154    1
    22   153   156    1
    23   172   173    1
    24   172   174    1
    25   173   175    1
    26   154   160   am
    27    60    61    2
    28    60    59    1
    29   163   162    2
    30    73    68   am
    31   187   188    1
    32   162   161    1
    33   181   183   ar
    34   181   182   ar
    35    83    82    1
    36    83    84    2
    37   156   157    1
    38    81    82    1
    39    66    67    1
    40   157   159    1
    41   183   185   ar
    42   160   161    1
    43    68    69    2
    44    68    67    1
    45    85    82    1
    46    85    86    1
    47    62    59    1
    48    62    63    1
    49    59    58    1
    50    63    64    1
    51   161   164    1
    52   182   184   ar
    53    86    87    1
    54   188   191    1
    55   188   189    1
    56    88    87    1
    57   191   192    1
    58    67    70    1
    59   189   190    2
    60   185   186   ar
    61    65    64    1
    62   149   148    2
    63   164   166    1
    64   164   165    1
    65   184   186   ar
    66    70    71    1
    67    70    72    1
    68   148   147    1
    69   192   193   ar
    70   192   194   ar
    71   193   195   ar
    72   165   167    1
    73   147   150    1
    74   147   146    1
    75   150   151    1
    76    95    93    1
    77   194   196   ar
    78    89    90    1
    79    93    90    1
    80    93    94    1
    81    90    91    1
    82   195   196   ar
    83    51    50    1
    84    91    96   am
    85    91    92    2
    86    52    50    1
    87    96    97    1
    88   134   136   ar
    89   134   132   ar
    90    56    55    2
    91    50    49    1
    92   136   137   ar
    93    57    54    1
    94     1     2    1
    95    23    21   ar
    96    23    22   ar
    97   131   132    1
    98   131   128    1
    99    55    54    1
   100   132   133   ar
   101   100    97    1
   102   100   101    1
   103    21    19   ar
   104    97    98    1
   105   137   135   ar
   106    99    98    2
   107   208   207    1
   108   130   129    2
   109    54    53    1
   110   144   143    1
   111     8     7    2
   112    49    46    1
   113   129   128    1
   114    22    20   ar
   115   133   135   ar
   116    98   107   am
   117    48    47    2
   118   141   140    2
   119     5     2    1
   120     5     6    1
   121   128   127    1
   122   142   143    1
   123   142   139    1
   124   200   199    2
   125   140   139    1
   126     2     3    1
   127   206   207   ar
   128   206   204   ar
   129   207   205   ar
   130    46    47    1
   131    46    45    1
   132     3     4    2
   133    19    18   ar
   134    19    17   ar
   135   101   103   ar
   136   101   102   ar
   137   143   145    1
   138     7     6    1
   139     7     9   am
   140   139   138    1
   141   204   202   ar
   142   205   203   ar
   143    18    16   ar
   144   103   105   ar
   145    20    17   ar
   146   107   108    1
   147   102   104   ar
   148   199   198    1
   149    17    15   ar
   150   111   108    1
   151   111   112    1
   152    45    37   am
   153   198   201    1
   154   198   197    1
   155   203   202   ar
   156   202   201    1
   157    38    37    2
   158   108   109    1
   159    28    29    1
   160    28    25    1
   161   113   112   ar
   162   113   115   ar
   163    27    26    2
   164    37    36    1
   165   112   114   ar
   166   104   106   ar
   167   105   106   ar
   168    16    15   ar
   169    15    14    1
   170    26    25    1
   171    26    30   am
   172   115   117   ar
   173    25    24    1
   174    39    36    1
   175    39    40    1
   176    31    30    1
   177    31    32    1
   178    31    34    1
   179    33    32    2
   180   114   116   ar
   181   109   110    2
   182   109   118   am
   183    36    35    1
   184   117   116   ar
   185    14    11    1
   186    11    12    1
   187    11    10    1
   188    13    12    2
   189   118   119    1
   190    40    42   ar
   191    40    41   ar
   192    42    44   ar
   193    41    43   ar
   194   119   120    1
   195   119   122    1
   196    44    43   ar
   197   120   121    2
   198   123   122    1
   199   123   124    1
   200   124   126   ar
   201   124   125   ar
