@<TRIPOS>MOLECULE
tmp/5aq1C01.pdb
 186 183 0 0 0
SMALL
GASTEIGER

@<TRIPOS>ATOM
      1  N        128.7110   67.8840   98.9160 N.3    14  GLY14      -0.1225
      2  CA       128.5540   68.9030   97.8840 C.3    14  GLY14       0.1811
      3  C        128.8570   70.2780   98.4420 C.2    14  GLY14       0.2280
      4  O        128.2320   71.2650   98.0520 O.2    14  GLY14      -0.2866
      5  N        131.2480   72.2460   97.9560 N.3    16  SER16      -0.1202
      6  CA       131.7390   73.1760   96.9420 C.3    16  SER16       0.2020
      7  C        130.6150   73.8220   96.1140 C.2    16  SER16       0.2619
      8  O        130.8930   74.5850   95.1920 O.2    16  SER16      -0.2717
      9  CB       132.6960   72.4340   96.0050 C.3    16  SER16       0.2103
     10  OG       132.0400   71.3360   95.3960 O.3    16  SER16      -0.2182
     11  N        129.3570   73.5330   96.4470 N.am   17  GLY17      -0.1942
     12  CA       128.2220   73.9040   95.6030 C.3    17  GLY17       0.2014
     13  C        127.5450   75.2180   95.9230 C.2    17  GLY17       0.2639
     14  O        127.9130   75.9150   96.8680 O.2    17  GLY17      -0.2714
     15  N        126.5270   75.5320   95.1250 N.am   18  ASP18      -0.1957
     16  CA       125.8000   76.7930   95.2290 C.3    18  ASP18       0.1840
     17  C        124.9930   76.8850   96.5240 C.2    18  ASP18       0.2622
     18  O        125.0770   77.8780   97.2440 O.2    18  ASP18      -0.2715
     19  CB       124.8650   76.9590   94.0280 C.3    18  ASP18       0.1450
     20  CG       124.3470   78.3750   93.8860 C.2    18  ASP18       0.3671
     21  OD1      125.1660   79.2650   93.5680 O.co2  18  ASP18      -0.2456
     22  OD2      123.1300   78.5930   94.0850 O.co2  18  ASP18      -0.2456
     23  N        124.2140   75.8470   96.8130 N.am   19  LEU19      -0.1963
     24  CA       123.3890   75.8160   98.0210 C.3    19  LEU19       0.1728
     25  C        124.2460   75.8530   99.2850 C.2    19  LEU19       0.2616
     26  O        123.9080   76.5440  100.2500 O.2    19  LEU19      -0.2715
     27  CB       122.5080   74.5660   98.0400 C.3    19  LEU19       0.0311
     28  CG       121.5610   74.4160   99.2350 C.3    19  LEU19       0.0022
     29  CD1      120.4670   75.4730   99.2070 C.3    19  LEU19       0.0001
     30  CD2      120.9510   73.0250   99.2600 C.3    19  LEU19       0.0001
     31  N        125.3490   75.1050   99.2710 N.am   20  ALA20      -0.1977
     32  CA       126.2380   75.0060  100.4260 C.3    20  ALA20       0.1597
     33  C        126.7140   76.3740  100.9100 C.2    20  ALA20       0.2287
     34  O        126.5310   76.7200  102.0760 O.2    20  ALA20      -0.2864
     35  CB       127.4300   74.1120  100.1030 C.3    20  ALA20       0.0319
     36  N        125.7190   79.4880   99.8880 N.3    22  LYS22      -0.1231
     37  CA       124.6960   80.5350   99.9690 C.3    22  LYS22       0.1693
     38  C        123.6910   80.3350  101.0990 C.2    22  LYS22       0.2591
     39  O        123.1820   81.3130  101.6470 O.2    22  LYS22      -0.2718
     40  CB       123.9540   80.6690   98.6380 C.3    22  LYS22       0.0285
     41  CG       124.7580   81.4110   97.5870 C.3    22  LYS22       0.0035
     42  CD       124.0510   81.4420   96.2450 C.3    22  LYS22       0.0206
     43  CE       124.6980   82.4630   95.3250 C.3    22  LYS22       0.1093
     44  NZ       124.4190   82.1690   93.8950 N.3    22  LYS22      -0.1314
     45  N        123.4050   79.0820  101.4440 N.am   23  LYS23      -0.1980
     46  CA       122.3820   78.7740  102.4470 C.3    23  LYS23       0.1596
     47  C        122.8790   77.9200  103.6110 C.2    23  LYS23       0.2287
     48  O        122.6980   78.2890  104.7710 O.2    23  LYS23      -0.2864
     49  CB       121.1870   78.0930  101.7750 C.3    23  LYS23       0.0298
     50  CG       120.4300   78.9880  100.8040 C.3    23  LYS23       0.0038
     51  CD       119.8710   80.2190  101.5070 C.3    23  LYS23       0.0206
     52  CE       118.9860   81.0520  100.5990 C.3    23  LYS23       0.1093
     53  NZ       118.6570   82.3550  101.2430 N.3    23  LYS23      -0.1314
     54  N        133.3190   66.7650   98.9390 N.3    47  ALA47      -0.1231
     55  CA       133.0330   66.8900   97.5080 C.3    47  ALA47       0.1694
     56  C        134.2140   66.4020   96.6730 C.2    47  ALA47       0.2592
     57  O        135.2860   66.1250   97.2080 O.2    47  ALA47      -0.2718
     58  CB       132.6850   68.3340   97.1540 C.3    47  ALA47       0.0304
     59  N        134.0120   66.3070   95.3610 N.am   48  ARG48      -0.1966
     60  CA       135.0470   65.8130   94.4440 C.3    48  ARG48       0.1729
     61  C        136.1550   66.8340   94.1860 C.2    48  ARG48       0.2616
     62  O        137.2850   66.4530   93.8810 O.2    48  ARG48      -0.2715
     63  CB       134.4330   65.4090   93.1060 C.3    48  ARG48       0.0348
     64  CG       133.3600   64.3330   93.1980 C.3    48  ARG48       0.0492
     65  CD       132.6810   64.1250   91.8540 C.3    48  ARG48       0.2205
     66  NE       132.1480   65.3790   91.3230 N.pl3  48  ARG48      -0.0865
     67  CZ       131.7960   65.5830   90.0550 C.cat  48  ARG48       0.5346
     68  NH1      131.8990   64.6120   89.1510 N.pl3  48  ARG48       0.1354
     69  NH2      131.3300   66.7720   89.6860 N.pl3  48  ARG48       0.1354
     70  N        135.8260   68.1220   94.2940 N.am   49  SER49      -0.1950
     71  CA       136.8000   69.1920   94.0730 C.3    49  SER49       0.1924
     72  C        137.9640   69.0990   95.0530 C.2    49  SER49       0.2314
     73  O        137.7730   68.7980   96.2330 O.2    49  SER49      -0.2863
     74  CB       136.1440   70.5710   94.2030 C.3    49  SER49       0.2116
     75  OG       135.2930   70.8450   93.1100 O.3    49  SER49      -0.2180
     76  N        131.3310   60.3100   94.8590 N.3    90  TYR90      -0.1241
     77  CA       129.9770   60.0780   95.3550 C.3    90  TYR90       0.1605
     78  C        129.4810   58.6460   95.1010 C.2    90  TYR90       0.2264
     79  O        128.3270   58.3350   95.3860 O.2    90  TYR90      -0.2867
     80  CB       129.0160   61.0760   94.7030 C.3    90  TYR90       0.0534
     81  CG       129.3600   62.5290   94.9530 C.ar   90  TYR90      -0.0201
     82  CD1      129.4990   63.0210   96.2490 C.ar   90  TYR90      -0.0009
     83  CD2      129.5260   63.4170   93.8920 C.ar   90  TYR90      -0.0009
     84  CE1      129.8090   64.3500   96.4800 C.ar   90  TYR90       0.0417
     85  CE2      129.8320   64.7470   94.1140 C.ar   90  TYR90       0.0417
     86  CZ       129.9740   65.2080   95.4070 C.ar   90  TYR90       0.1957
     87  OH       130.2830   66.5300   95.6240 O.3    90  TYR90      -0.2866
     88  N        123.6680   68.2150   99.8210 N.3   124  ALA124     -0.1231
     89  CA       123.5330   69.3800   98.9470 C.3   124  ALA124      0.1694
     90  C        124.0860   69.0450   97.5620 C.2   124  ALA124      0.2592
     91  O        125.0350   69.6710   97.0900 O.2   124  ALA124     -0.2718
     92  CB       124.2680   70.5690   99.5440 C.3   124  ALA124      0.0304
     93  N        123.4630   68.0620   96.9150 N.am  125  LEU125     -0.1966
     94  CA       123.9680   67.4660   95.6800 C.3   125  LEU125      0.1713
     95  C        122.8840   67.4320   94.6060 C.2   125  LEU125      0.2458
     96  O        121.7020   67.5300   94.9290 O.2   125  LEU125     -0.2730
     97  CB       124.4180   66.0320   95.9580 C.3   125  LEU125      0.0310
     98  CG       125.5250   65.8370   96.9960 C.3   125  LEU125      0.0022
     99  CD1      125.5560   64.3960   97.4760 C.3   125  LEU125      0.0001
    100  CD2      126.8730   66.2430   96.4210 C.3   125  LEU125      0.0001
    101  N        123.2770   67.2790   93.3240 N.am  126  PRO126     -0.2716
    102  CA       122.2740   67.1100   92.2650 C.3   126  PRO126      0.1521
    103  C        121.5290   65.7750   92.3680 C.2   126  PRO126      0.2440
    104  O        122.0590   64.8200   92.9380 O.2   126  PRO126     -0.2731
    105  CB       123.0950   67.1500   90.9640 C.3   126  PRO126      0.0310
    106  CG       124.4640   67.5940   91.3410 C.3   126  PRO126      0.0237
    107  CD       124.6520   67.2780   92.7910 C.3   126  PRO126      0.0939
    108  N        120.3090   65.7010   91.8100 N.am  127  PRO127     -0.2716
    109  CA       119.5260   64.4540   91.8430 C.3   127  PRO127      0.1536
    110  C        120.1820   63.2500   91.1510 C.2   127  PRO127      0.2599
    111  O        119.9040   62.1060   91.5240 O.2   127  PRO127     -0.2715
    112  CB       118.2150   64.8320   91.1320 C.3   127  PRO127      0.0310
    113  CG       118.4690   66.1310   90.4460 C.3   127  PRO127      0.0237
    114  CD       119.5490   66.8180   91.2190 C.3   127  PRO127      0.0939
    115  N        121.0390   63.5020   90.1620 N.am  128  SER128     -0.1936
    116  CA       121.7090   62.4270   89.4280 C.3   128  SER128      0.2055
    117  C        122.5480   61.4970   90.3200 C.2   128  SER128      0.2642
    118  O        122.5950   60.2930   90.0780 O.2   128  SER128     -0.2714
    119  CB       122.5870   63.0070   88.3140 C.3   128  SER128      0.2130
    120  OG       123.5290   63.9270   88.8360 O.3   128  SER128     -0.2179
    121  N        123.1970   62.0470   91.3450 N.am  129  VAL129     -0.1977
    122  CA       124.0670   61.2510   92.2290 C.3   129  VAL129      0.1596
    123  C        123.3970   60.7940   93.5310 C.2   129  VAL129      0.2287
    124  O        124.0140   60.0870   94.3290 O.2   129  VAL129     -0.2864
    125  CB       125.3640   62.0140   92.5920 C.3   129  VAL129      0.0276
    126  CG1      126.0380   62.5480   91.3380 C.3   129  VAL129      0.0022
    127  CG2      125.0960   63.1430   93.5840 C.3   129  VAL129      0.0022
    128  N        117.4110   67.2560   99.5350 N.3   155  GLU155     -0.1231
    129  CA       116.8170   68.3940   98.8320 C.3   155  GLU155      0.1699
    130  C        116.0350   67.9720   97.5920 C.2   155  GLU155      0.2592
    131  O        116.2710   66.8970   97.0340 O.2   155  GLU155     -0.2718
    132  CB       117.9150   69.3710   98.4150 C.3   155  GLU155      0.0402
    133  CG       118.5490   70.1400   99.5660 C.3   155  GLU155      0.1161
    134  CD       117.7560   71.3700   99.9900 C.2   155  GLU155      0.3649
    135  OE1      116.9190   71.8770   99.2030 O.co2 155  GLU155     -0.2457
    136  OE2      117.9830   71.8430  101.1230 O.co2 155  GLU155     -0.2457
    137  N        115.1150   68.8370   97.1640 N.am  156  LYS156     -0.1966
    138  CA       114.3460   68.6220   95.9400 C.3   156  LYS156      0.1713
    139  C        115.2590   68.8790   94.7340 C.2   156  LYS156      0.2458
    140  O        116.2950   69.5100   94.8890 O.2   156  LYS156     -0.2730
    141  CB       113.0990   69.5260   95.9240 C.3   156  LYS156      0.0311
    142  CG       113.3360   70.9940   95.5890 C.3   156  LYS156      0.0038
    143  CD       112.0370   71.7820   95.7210 C.3   156  LYS156      0.0206
    144  CE       112.2190   73.2630   95.4230 C.3   156  LYS156      0.1093
    145  NZ       112.2380   73.5750   93.9660 N.3   156  LYS156     -0.1314
    146  N        114.9110   68.4040   93.5380 N.am  157  PRO157     -0.2727
    147  CA       113.6570   67.7130   93.2300 C.3   157  PRO157      0.1402
    148  C        113.5940   66.2800   93.7480 C.2   157  PRO157      0.2269
    149  O        114.6170   65.6000   93.8130 O.2   157  PRO157     -0.2865
    150  CB       113.6540   67.6990   91.7010 C.3   157  PRO157      0.0296
    151  CG       115.0970   67.6590   91.3300 C.3   157  PRO157      0.0237
    152  CD       115.8050   68.4850   92.3670 C.3   157  PRO157      0.0939
    153  N        111.9110   74.1990  102.0060 N.3   186  HIS186     -0.1241
    154  CA       112.4430   75.2820  102.8280 C.3   186  HIS186      0.1621
    155  C        111.4080   76.3610  103.1720 C.2   186  HIS186      0.2264
    156  O        111.6360   77.1580  104.0750 O.2   186  HIS186     -0.2867
    157  CB       113.7240   75.8750  102.2150 C.3   186  HIS186      0.0745
    158  CG       113.4850   76.9800  101.2340 C.ar  186  HIS186      0.0817
    159  ND1      113.2460   76.7500   99.8970 N.ar  186  HIS186     -0.2268
    160  CD2      113.4710   78.3250  101.3920 C.ar  186  HIS186      0.1154
    161  CE1      113.0870   77.9060   99.2750 C.ar  186  HIS186      0.1986
    162  NE2      113.2170   78.8770  100.1600 N.ar  186  HIS186     -0.2212
    163  N        118.3880   74.6080   83.2250 N.3   234  TYR234     -0.1241
    164  CA       117.9680   73.6370   84.2380 C.3   234  TYR234      0.1605
    165  C        116.4610   73.7040   84.4910 C.2   234  TYR234      0.2264
    166  O        115.8280   72.6900   84.7870 O.2   234  TYR234     -0.2867
    167  CB       118.7230   73.8880   85.5490 C.3   234  TYR234      0.0534
    168  CG       118.3640   72.9280   86.6790 C.ar  234  TYR234     -0.0201
    169  CD1      118.8790   71.6300   86.7080 C.ar  234  TYR234     -0.0009
    170  CD2      117.5120   73.3160   87.7160 C.ar  234  TYR234     -0.0009
    171  CE1      118.5580   70.7470   87.7330 C.ar  234  TYR234      0.0417
    172  CE2      117.1910   72.4410   88.7490 C.ar  234  TYR234      0.0417
    173  CZ       117.7140   71.1530   88.7520 C.ar  234  TYR234      0.1957
    174  OH       117.3910   70.2730   89.7710 O.3   234  TYR234     -0.2866
    175  N        116.4910   78.0910  106.4630 N.3   417  TYR417     -0.1241
    176  CA       117.3920   76.9690  106.7460 C.3   417  TYR417      0.1605
    177  C        117.9770   76.9370  108.1680 C.2   417  TYR417      0.2264
    178  O        118.4880   75.8990  108.5980 O.2   417  TYR417     -0.2867
    179  CB       118.5200   76.9100  105.7070 C.3   417  TYR417      0.0534
    180  CG       118.0740   76.3600  104.3710 C.ar  417  TYR417     -0.0201
    181  CD1      117.9000   74.9920  104.1900 C.ar  417  TYR417     -0.0009
    182  CD2      117.8250   77.2010  103.2880 C.ar  417  TYR417     -0.0009
    183  CE1      117.4940   74.4780  102.9720 C.ar  417  TYR417      0.0417
    184  CE2      117.4190   76.6930  102.0630 C.ar  417  TYR417      0.0417
    185  CZ       117.2550   75.3260  101.9090 C.ar  417  TYR417      0.1957
    186  OH       116.8510   74.8060  100.6960 O.3   417  TYR417     -0.2866
@<TRIPOS>BOND
     1   163   164    1
     2   164   165    1
     3   164   167    1
     4   165   166    2
     5   167   168    1
     6   168   169   ar
     7   168   170   ar
     8   169   171   ar
     9   170   172   ar
    10   171   173   ar
    11   119   120    1
    12   119   116    1
    13   172   173   ar
    14   173   174    1
    15    68    67    1
    16   116   115    1
    17   116   117    1
    18    69    67    1
    19    67    66    2
    20   118   117    2
    21   115   110   am
    22   117   121   am
    23   113   112    1
    24   113   114    1
    25   105   106    1
    26   105   102    1
    27   112   109    1
    28   110   111    2
    29   110   109    1
    30   114   108    1
    31    66    65    1
    32   151   150    1
    33   151   152    1
    34   126   125    1
    35   106   107    1
    36   121   122    1
    37   150   147    1
    38   108   109    1
    39   108   103   am
    40    65    64    1
    41   122   125    1
    42   122   123    1
    43   102   103    1
    44   102   101    1
    45   152   146    1
    46   103   104    2
    47   125   127    1
    48   107   101    1
    49    63    64    1
    50    63    60    1
    51    75    74    1
    52   147   146    1
    53   147   148    1
    54   101    95   am
    55   123   124    2
    56   146   139   am
    57    21    20   ar
    58   148   149    2
    59    62    61    2
    60    20    19    1
    61    20    22   ar
    62    83    85   ar
    63    83    81   ar
    64    44    43    1
    65   145   144    1
    66    19    16    1
    67    71    74    1
    68    71    70    1
    69    71    72    1
    70    85    86   ar
    71    61    70   am
    72    61    60    1
    73    60    59    1
    74    95    96    2
    75    95    94    1
    76    80    81    1
    77    80    77    1
    78   139   140    2
    79   139   138    1
    80    76    77    1
    81    81    82   ar
    82    72    73    2
    83    78    77    1
    84    78    79    2
    85    15    16    1
    86    15    13   am
    87     8     7    2
    88    16    17    1
    89    43    42    1
    90    59    56   am
    91    10     9    1
    92    86    87    1
    93    86    84   ar
    94   144   143    1
    95   142   143    1
    96   142   141    1
    97    12    13    1
    98    12    11    1
    99    94    97    1
   100    94    93    1
   101    13    14    2
   102   141   138    1
   103   138   137    1
   104    97    98    1
   105     9     6    1
   106     7    11   am
   107     7     6    1
   108    42    41    1
   109    82    84   ar
   110   100    98    1
   111    17    23   am
   112    17    18    2
   113    56    57    2
   114    56    55    1
   115    23    24    1
   116    93    90   am
   117     6     5    1
   118    98    99    1
   119   131   130    2
   120    91    90    2
   121    58    55    1
   122   137   130   am
   123    55    54    1
   124    90    89    1
   125    41    40    1
   126   130   129    1
   127     2     3    1
   128     2     1    1
   129    24    27    1
   130    24    25    1
   131    27    28    1
   132     4     3    2
   133   132   129    1
   134   132   133    1
   135    40    37    1
   136   129   128    1
   137    89    92    1
   138    89    88    1
   139   135   134   ar
   140    29    28    1
   141    28    30    1
   142    31    25   am
   143    31    32    1
   144   161   159   ar
   145   161   162   ar
   146    25    26    2
   147   133   134    1
   148    36    37    1
   149   159   158   ar
   150    37    38    1
   151   134   136   ar
   152    35    32    1
   153   162   160   ar
   154    32    33    1
   155    52    53    1
   156    52    51    1
   157   186   185    1
   158    50    51    1
   159    50    49    1
   160    33    34    2
   161    38    45   am
   162    38    39    2
   163   158   160   ar
   164   158   157    1
   165    45    46    1
   166    49    46    1
   167   185   184   ar
   168   185   183   ar
   169   153   154    1
   170   184   182   ar
   171   157   154    1
   172    46    47    1
   173   154   155    1
   174   183   181   ar
   175   155   156    2
   176   182   180   ar
   177    47    48    2
   178   181   180   ar
   179   180   179    1
   180   179   176    1
   181   175   176    1
   182   176   177    1
   183   177   178    2
