@<TRIPOS>MOLECULE
tmp/5aq8A01.pdb
 74 68 0 0 0
SMALL
GASTEIGER

@<TRIPOS>ATOM
      1  N          2.9320   -7.8990   13.5400 N.3   198  SER198     -0.1217
      2  CA         4.3570   -8.1560   13.3360 C.3   198  SER198      0.1889
      3  C          5.1610   -8.3330   14.6300 C.2   198  SER198      0.2288
      4  O          6.3570   -8.6190   14.5770 O.2   198  SER198     -0.2866
      5  CB         4.9860   -7.0470   12.4910 C.3   198  SER198      0.2089
      6  OG         4.6040   -7.1640   11.1320 O.3   198  SER198     -0.2183
      7  N          5.0050   -5.4180    1.2210 N.3   233  TYR233     -0.1241
      8  CA         6.0180   -4.8190    2.0910 C.3   233  TYR233      0.1605
      9  C          7.2120   -5.7360    2.3340 C.2   233  TYR233      0.2264
     10  O          7.2610   -6.4710    3.3200 O.2   233  TYR233     -0.2867
     11  CB         5.4220   -4.3920    3.4330 C.3   233  TYR233      0.0534
     12  CG         6.4200   -3.6510    4.2970 C.ar  233  TYR233     -0.0201
     13  CD1        6.8290   -2.3660    3.9660 C.ar  233  TYR233     -0.0009
     14  CD2        6.9620   -4.2370    5.4340 C.ar  233  TYR233     -0.0009
     15  CE1        7.7460   -1.6830    4.7430 C.ar  233  TYR233      0.0417
     16  CE2        7.8810   -3.5600    6.2190 C.ar  233  TYR233      0.0417
     17  CZ         8.2690   -2.2830    5.8680 C.ar  233  TYR233      0.1957
     18  OH         9.1820   -1.6010    6.6410 O.3   233  TYR233     -0.2866
     19  N         10.7620   -5.1250    9.7590 N.3   258  SER258     -0.1217
     20  CA         9.4740   -5.8060    9.6990 C.3   258  SER258      0.1889
     21  C          9.1960   -6.3540    8.2980 C.2   258  SER258      0.2288
     22  O          8.0490   -6.4070    7.8570 O.2   258  SER258     -0.2866
     23  CB         8.3460   -4.8700   10.1410 C.3   258  SER258      0.2089
     24  OG         7.2280   -5.6200   10.5810 O.3   258  SER258     -0.2183
     25  N         11.5860    0.9650   12.5310 N.3   344  VAL344     -0.1245
     26  CA        10.2410    1.2240   12.0140 C.3   344  VAL344      0.1561
     27  C          9.2190    1.5480   13.1090 C.2   344  VAL344      0.2260
     28  O          8.0270    1.6840   12.8270 O.2   344  VAL344     -0.2867
     29  CB         9.7200    0.0490   11.1520 C.3   344  VAL344      0.0252
     30  CG1       10.4320    0.0190    9.8060 C.3   344  VAL344      0.0019
     31  CG2        9.8790   -1.2750   11.8800 C.3   344  VAL344      0.0019
     32  N          9.8340   -4.0340   19.1000 N.3   362  LYS362     -0.1231
     33  CA         9.2880   -4.4830   17.8300 C.3   362  LYS362      0.1693
     34  C          7.8300   -4.0550   17.7960 C.2   362  LYS362      0.2593
     35  O          7.0880   -4.2870   18.7490 O.2   362  LYS362     -0.2718
     36  CB         9.3900   -6.0030   17.6900 C.3   362  LYS362      0.0285
     37  CG         8.7940   -6.5440   16.3930 C.3   362  LYS362      0.0035
     38  CD         9.6810   -6.2240   15.2000 C.3   362  LYS362      0.0206
     39  CE         8.9640   -6.4310   13.8750 C.3   362  LYS362      0.1093
     40  NZ         7.9770   -5.3480   13.5920 N.3   362  LYS362     -0.1314
     41  N          7.4280   -3.4170   16.7040 N.am  363  SER363     -0.1938
     42  CA         6.0790   -2.8850   16.5830 C.3   363  SER363      0.2055
     43  C          5.2230   -3.7640   15.6840 C.2   363  SER363      0.2644
     44  O          5.7170   -4.6940   15.0460 O.2   363  SER363     -0.2714
     45  CB         6.1260   -1.4630   16.0250 C.3   363  SER363      0.2130
     46  OG         6.8150   -1.4280   14.7890 O.3   363  SER363     -0.2179
     47  N          3.9330   -3.4590   15.6380 N.am  364  GLY364     -0.1939
     48  CA         3.0090   -4.1860   14.7930 C.3   364  GLY364      0.2014
     49  C          1.8560   -3.2940   14.3880 C.2   364  GLY364      0.2638
     50  O          1.4580   -2.4080   15.1400 O.2   364  GLY364     -0.2714
     51  N          1.3340   -3.5250   13.1900 N.am  365  ALA365     -0.1977
     52  CA         0.1690   -2.8070   12.6970 C.3   365  ALA365      0.1597
     53  C         -0.7010   -3.7800   11.9190 C.2   365  ALA365      0.2287
     54  O         -0.1880   -4.6570   11.2240 O.2   365  ALA365     -0.2864
     55  CB         0.5950   -1.6530   11.8120 C.3   365  ALA365      0.0319
     56  N         -2.8180   -1.9200   16.3680 N.3   371  ARG371     -0.1245
     57  CA        -1.4750   -1.3980   16.5720 C.3   371  ARG371      0.1563
     58  C         -0.9120   -1.9830   17.8590 C.2   371  ARG371      0.2260
     59  O         -1.6550   -2.2600   18.7990 O.2   371  ARG371     -0.2867
     60  CB        -1.5110    0.1280   16.6660 C.3   371  ARG371      0.0307
     61  CG        -0.1820    0.8070   16.3900 C.3   371  ARG371      0.0489
     62  CD         0.1300    0.8300   14.9040 C.3   371  ARG371      0.2205
     63  NE         1.2110    1.7620   14.5810 N.pl3 371  ARG371     -0.0865
     64  CZ         2.4750    1.4230   14.3300 C.cat 371  ARG371      0.5346
     65  NH1        2.8670    0.1550   14.3540 N.pl3 371  ARG371      0.1354
     66  NH2        3.3600    2.3690   14.0480 N.pl3 371  ARG371      0.1354
     67  N         -3.7000    5.9190   11.4400 N.3   398  MET398     -0.1245
     68  CA        -2.4180    5.4490   11.9470 C.3   398  MET398      0.1570
     69  C         -1.8360    6.4450   12.9450 C.2   398  MET398      0.2261
     70  O         -1.2440    6.0540   13.9490 O.2   398  MET398     -0.2867
     71  CB        -1.4360    5.2310   10.7940 C.3   398  MET398      0.0387
     72  CG        -0.1030    4.6390   11.2220 C.3   398  MET398      0.0595
     73  SD        -0.2750    3.0620   12.0830 S.3   398  MET398     -0.1393
     74  CE        -1.0520    2.0580   10.8200 C.3   398  MET398      0.0692
@<TRIPOS>BOND
     1     7     8    1
     2     8     9    1
     3     8    11    1
     4     9    10    2
     5    11    12    1
     6    13    12   ar
     7    13    15   ar
     8    12    14   ar
     9    15    17   ar
    10    14    16   ar
    11    17    16   ar
    12    17    18    1
    13    22    21    2
    14    21    20    1
    15    20    19    1
    16    20    23    1
    17    30    29    1
    18    23    24    1
    19    71    72    1
    20    71    68    1
    21    74    73    1
    22     6     5    1
    23    29    31    1
    24    29    26    1
    25    72    73    1
    26    54    53    2
    27    67    68    1
    28    55    52    1
    29    53    52    1
    30    68    69    1
    31    26    25    1
    32    26    27    1
    33     5     2    1
    34    52    51    1
    35    28    27    2
    36    69    70    2
    37    51    49   am
    38     2     1    1
    39     2     3    1
    40    40    39    1
    41    39    38    1
    42    66    64    1
    43    64    65    1
    44    64    63    2
    45    49    48    1
    46    49    50    2
    47     4     3    2
    48    63    62    1
    49    46    45    1
    50    48    47    1
    51    62    61    1
    52    44    43    2
    53    38    37    1
    54    47    43   am
    55    43    42    1
    56    45    42    1
    57    56    57    1
    58    61    60    1
    59    37    36    1
    60    57    60    1
    61    57    58    1
    62    42    41    1
    63    41    34   am
    64    36    33    1
    65    34    33    1
    66    34    35    2
    67    33    32    1
    68    58    59    2
