@<TRIPOS>MOLECULE
tmp/5aqdX02.pdb
 139 132 0 0 0
SMALL
GASTEIGER

@<TRIPOS>ATOM
      1  N        130.6870   68.2780  132.6480 N.3    30  ALA30      -0.1231
      2  CA       131.7600   67.3020  132.7540 C.3    30  ALA30       0.1694
      3  C        131.1830   65.9010  132.9480 C.2    30  ALA30       0.2591
      4  O        131.7260   64.9290  132.4420 O.2    30  ALA30      -0.2718
      5  CB       132.7040   67.6650  133.8910 C.3    30  ALA30       0.0304
      6  N        130.0560   65.8000  133.6430 N.am   31  GLU31      -0.1979
      7  CA       129.4440   64.4910  133.8590 C.3    31  GLU31       0.1602
      8  C        128.3220   64.1840  132.8640 C.2    31  GLU31       0.2287
      9  O        127.5530   63.2510  133.0660 O.2    31  GLU31      -0.2864
     10  CB       128.9230   64.3810  135.2900 C.3    31  GLU31       0.0415
     11  CG       130.0390   64.3770  136.3120 C.3    31  GLU31       0.1163
     12  CD       129.6810   63.6420  137.5910 C.2    31  GLU31       0.3649
     13  OE1      128.4990   63.2720  137.7820 O.co2  31  GLU31      -0.2457
     14  OE2      130.6020   63.4270  138.4030 O.co2  31  GLU31      -0.2457
     15  N        128.4410   62.9720  129.6950 N.3    33  ASN33      -0.1225
     16  CA       128.5440   61.6430  129.0770 C.3    33  ASN33       0.1785
     17  C        128.0410   60.5520  130.0200 C.2    33  ASN33       0.2597
     18  O        127.2620   59.6900  129.6200 O.2    33  ASN33      -0.2718
     19  CB       129.9840   61.3470  128.6380 C.3    33  ASN33       0.1169
     20  CG       130.3820   62.1200  127.3830 C.2    33  ASN33       0.2627
     21  OD1      129.5910   62.2520  126.4430 O.2    33  ASN33      -0.2716
     22  ND2      131.6100   62.6330  127.3610 N.am   33  ASN33      -0.0877
     23  N        128.5050   60.5990  131.2670 N.am   34  ARG34      -0.1979
     24  CA       127.9670   59.7690  132.3460 C.3    34  ARG34       0.1597
     25  C        126.4590   59.7300  132.3400 C.2    34  ARG34       0.2287
     26  O        125.8500   58.6710  132.4320 O.2    34  ARG34      -0.2864
     27  CB       128.3940   60.3040  133.7090 C.3    34  ARG34       0.0334
     28  CG       129.6490   59.7550  134.2540 C.3    34  ARG34       0.0492
     29  CD       129.9010   60.3500  135.6240 C.3    34  ARG34       0.2205
     30  NE       131.3090   60.2320  135.9420 N.pl3  34  ARG34      -0.0865
     31  CZ       131.7840   60.0070  137.1580 C.cat  34  ARG34       0.5346
     32  NH1      130.9500   59.8810  138.1850 N.pl3  34  ARG34       0.1354
     33  NH2      133.0990   59.9080  137.3380 N.pl3  34  ARG34       0.1354
     34  N        124.2510   60.5320  130.0480 N.3    36  LEU36      -0.1231
     35  CA       123.6920   59.8510  128.8990 C.3    36  LEU36       0.1693
     36  C        123.7830   58.3260  129.0530 C.2    36  LEU36       0.2592
     37  O        122.8490   57.6230  128.6870 O.2    36  LEU36      -0.2718
     38  CB       124.3810   60.3020  127.6170 C.3    36  LEU36       0.0284
     39  CG       124.3020   61.8010  127.3460 C.3    36  LEU36       0.0019
     40  CD1      124.8230   62.0810  125.9480 C.3    36  LEU36       0.0001
     41  CD2      122.8820   62.3240  127.5200 C.3    36  LEU36       0.0001
     42  N        124.8830   57.8180  129.6090 N.am   37  ASP37      -0.1960
     43  CA       124.9700   56.3850  129.9190 C.3    37  ASP37       0.1840
     44  C        123.9130   55.9630  130.9510 C.2    37  ASP37       0.2621
     45  O        123.3390   54.8850  130.8440 O.2    37  ASP37      -0.2715
     46  CB       126.3680   55.9920  130.4410 C.3    37  ASP37       0.1450
     47  CG       127.4250   55.9150  129.3360 C.2    37  ASP37       0.3671
     48  OD1      127.1210   55.4540  128.2110 O.co2  37  ASP37      -0.2456
     49  OD2      128.5750   56.3130  129.6020 O.co2  37  ASP37      -0.2456
     50  N        123.6660   56.7960  131.9580 N.am   38  ALA38      -0.1977
     51  CA       122.6700   56.4440  132.9760 C.3    38  ALA38       0.1597
     52  C        121.2730   56.3790  132.3710 C.2    38  ALA38       0.2287
     53  O        120.4680   55.5140  132.7270 O.2    38  ALA38      -0.2864
     54  CB       122.7030   57.4290  134.1270 C.3    38  ALA38       0.0319
     55  N        120.6180   55.8730  129.0720 N.3    40  ASN40      -0.1240
     56  CA       120.6900   54.6930  128.2120 C.3    40  ASN40       0.1653
     57  C        120.5110   53.3980  129.0050 C.2    40  ASN40       0.2266
     58  O        119.8270   52.4780  128.5610 O.2    40  ASN40      -0.2867
     59  CB       122.0250   54.6710  127.4600 C.3    40  ASN40       0.1155
     60  CG       122.1100   53.5400  126.4440 C.2    40  ASN40       0.2627
     61  OD1      121.1640   53.2820  125.7020 O.2    40  ASN40      -0.2716
     62  ND2      123.2560   52.8620  126.4060 N.am   40  ASN40      -0.0877
     63  N        122.3510   51.6180  136.4060 N.3   139  ILE139     -0.1231
     64  CA       123.2200   52.7760  136.2790 C.3   139  ILE139      0.1692
     65  C        124.6440   52.4370  136.7290 C.2   139  ILE139      0.2592
     66  O        125.5980   52.8270  136.0780 O.2   139  ILE139     -0.2718
     67  CB       122.6930   53.9920  137.0870 C.3   139  ILE139      0.0266
     68  CG1      121.4100   54.5310  136.4560 C.3   139  ILE139      0.0019
     69  CG2      123.7310   55.1280  137.0970 C.3   139  ILE139      0.0020
     70  CD1      120.7130   55.5650  137.3010 C.3   139  ILE139      0.0001
     71  N        124.7910   51.7070  137.8340 N.am  140  LYS140     -0.1966
     72  CA       126.1240   51.2650  138.2660 C.3   140  LYS140      0.1728
     73  C        126.6650   50.1010  137.4140 C.2   140  LYS140      0.2616
     74  O        127.7990   49.6600  137.6140 O.2   140  LYS140     -0.2715
     75  CB       126.1040   50.8600  139.7500 C.3   140  LYS140      0.0311
     76  CG       125.8110   52.0220  140.7110 C.3   140  LYS140      0.0038
     77  CD       125.8810   51.5950  142.1710 C.3   140  LYS140      0.0206
     78  CE       124.7050   50.7040  142.5720 C.3   140  LYS140      0.1093
     79  NZ       124.7640   50.2860  144.0140 N.3   140  LYS140     -0.1314
     80  N        125.8560   49.6280  136.4650 N.am  141  ASP141     -0.1971
     81  CA       126.1800   48.4780  135.5960 C.3   141  ASP141      0.1709
     82  C        126.5410   47.2510  136.4180 C.2   141  ASP141      0.2293
     83  O        127.4310   46.4860  136.0500 O.2   141  ASP141     -0.2864
     84  CB       127.3300   48.8060  134.6280 C.3   141  ASP141      0.1436
     85  CG       127.2950   47.9550  133.3570 C.2   141  ASP141      0.3671
     86  OD1      126.2440   47.3510  133.0660 O.co2 141  ASP141     -0.2456
     87  OD2      128.3100   47.9010  132.6320 O.co2 141  ASP141     -0.2456
     88  N        129.9390   50.4980  130.0340 N.3   157  SER157     -0.1203
     89  CA       130.3710   51.8860  130.1390 C.3   157  SER157      0.2005
     90  C        131.7110   51.9670  130.8590 C.2   157  SER157      0.2461
     91  O        132.0350   51.0720  131.6420 O.2   157  SER157     -0.2732
     92  CB       129.3160   52.6980  130.8920 C.3   157  SER157      0.2103
     93  OG       129.0070   52.0580  132.1230 O.3   157  SER157     -0.2182
     94  N        132.4810   53.0470  130.6210 N.am  158  PRO158     -0.2717
     95  CA       133.7880   53.1900  131.2750 C.3   158  PRO158      0.1535
     96  C        133.6360   53.2300  132.7890 C.2   158  PRO158      0.2598
     97  O        132.9360   54.0940  133.3000 O.2   158  PRO158     -0.2715
     98  CB       134.3080   54.5310  130.7430 C.3   158  PRO158      0.0310
     99  CG       133.5220   54.8000  129.5050 C.3   158  PRO158      0.0237
    100  CD       132.1710   54.2100  129.7680 C.3   158  PRO158      0.0939
    101  N        134.2840   52.3110  133.4900 N.am  159  VAL159     -0.1964
    102  CA       134.1160   52.1930  134.9320 C.3   159  VAL159      0.1727
    103  C        134.9390   53.2030  135.7280 C.2   159  VAL159      0.2616
    104  O        136.1350   53.3600  135.4910 O.2   159  VAL159     -0.2715
    105  CB       134.4880   50.7710  135.4070 C.3   159  VAL159      0.0290
    106  CG1      134.5720   50.7110  136.9330 C.3   159  VAL159      0.0023
    107  CG2      133.4840   49.7370  134.8520 C.3   159  VAL159      0.0023
    108  N        134.2820   53.8950  136.6600 N.am  160  VAL160     -0.1977
    109  CA       134.9780   54.6090  137.7260 C.3   160  VAL160      0.1596
    110  C        134.5920   53.9960  139.0690 C.2   160  VAL160      0.2287
    111  O        133.5800   53.2950  139.1710 O.2   160  VAL160     -0.2864
    112  CB       134.6520   56.1040  137.7440 C.3   160  VAL160      0.0276
    113  CG1      135.2170   56.7890  136.5130 C.3   160  VAL160      0.0022
    114  CG2      133.1530   56.3030  137.8560 C.3   160  VAL160      0.0022
    115  N        131.2520   54.4240  140.5950 N.3   163  ARG163     -0.1231
    116  CA       130.2420   53.9170  139.6630 C.3   163  ARG163      0.1694
    117  C        129.0550   54.8740  139.5010 C.2   163  ARG163      0.2592
    118  O        127.8990   54.4470  139.4560 O.2   163  ARG163     -0.2718
    119  CB       129.7590   52.5330  140.1060 C.3   163  ARG163      0.0321
    120  CG       130.9150   51.5780  140.3800 C.3   163  ARG163      0.0489
    121  CD       130.4970   50.1300  140.3290 C.3   163  ARG163      0.2205
    122  NE       130.3550   49.6610  138.9550 N.pl3 163  ARG163     -0.0865
    123  CZ       131.1010   48.7060  138.4070 C.cat 163  ARG163      0.5346
    124  NH1      132.0420   48.1130  139.1170 N.pl3 163  ARG163      0.1354
    125  NH2      130.8950   48.3420  137.1530 N.pl3 163  ARG163      0.1354
    126  N        129.3680   56.1650  139.4110 N.am  164  CYS164     -0.1970
    127  CA       128.3760   57.2120  139.1910 C.3   164  CYS164      0.1712
    128  C        127.4210   57.3460  140.3670 C.2   164  CYS164      0.2296
    129  O        126.2020   57.4610  140.1830 O.2   164  CYS164     -0.2864
    130  CB       127.5880   56.9480  137.9070 C.3   164  CYS164      0.0983
    131  SG       128.6330   56.5700  136.4950 S.3   164  CYS164     -0.0798
    132  N        124.8250   60.2780  140.2880 N.3   167  LEU167     -0.1245
    133  CA       123.6940   60.1080  139.3940 C.3   167  LEU167      0.1561
    134  C        122.7300   59.0550  139.9430 C.2   167  LEU167      0.2260
    135  O        121.5160   59.1460  139.7410 O.2   167  LEU167     -0.2867
    136  CB       124.1590   59.7240  137.9940 C.3   167  LEU167      0.0270
    137  CG       124.8600   60.8330  137.2020 C.3   167  LEU167      0.0019
    138  CD1      125.7250   60.2600  136.0730 C.3   167  LEU167      0.0001
    139  CD2      123.8430   61.8400  136.6510 C.3   167  LEU167      0.0001
@<TRIPOS>BOND
     1    61    60    2
     2    40    39    1
     3    62    60   am
     4    21    20    2
     5    60    59    1
     6    39    41    1
     7    39    38    1
     8    22    20   am
     9    20    19    1
    10    59    56    1
    11    38    35    1
    12    48    47   ar
    13    56    57    1
    14    56    55    1
    15    58    57    2
    16    19    16    1
    17    37    36    2
    18    35    36    1
    19    35    34    1
    20    36    42   am
    21    16    15    1
    22    16    17    1
    23    47    49   ar
    24    47    46    1
    25    99   100    1
    26    99    98    1
    27    42    43    1
    28    18    17    2
    29   100    94    1
    30    43    46    1
    31    43    44    1
    32    17    23   am
    33    88    89    1
    34    89    90    1
    35    89    92    1
    36    94    90   am
    37    94    95    1
    38    98    95    1
    39    45    44    2
    40    90    91    2
    41    92    93    1
    42    44    50   am
    43    23    24    1
    44    95    96    1
    45    50    51    1
    46    25    24    1
    47    25    26    2
    48    24    27    1
    49    52    53    2
    50    52    51    1
    51     4     3    2
    52    87    85   ar
    53     1     2    1
    54     2     3    1
    55     2     5    1
    56    96    97    2
    57    96   101   am
    58     8     9    2
    59     8     7    1
    60     3     6   am
    61    51    54    1
    62    86    85   ar
    63    85    84    1
    64   101   102    1
    65     6     7    1
    66    27    28    1
    67     7    10    1
    68    28    29    1
    69    84    81    1
    70   107   105    1
    71   102   105    1
    72   102   103    1
    73    10    11    1
    74   105   106    1
    75   104   103    2
    76    81    82    1
    77    81    80    1
    78    29    30    1
    79   103   108   am
    80    30    31    2
    81    83    82    2
    82   138   137    1
    83    66    65    2
    84    64    63    1
    85    64    65    1
    86    64    67    1
    87    11    12    1
    88    68    67    1
    89    68    70    1
    90    80    73   am
    91   131   130    1
    92   113   112    1
    93   139   137    1
    94   108   109    1
    95    65    71   am
    96    67    69    1
    97   125   123    1
    98    31    33    1
    99    31    32    1
   100   137   136    1
   101    73    74    2
   102    73    72    1
   103    12    13   ar
   104    12    14   ar
   105   109   112    1
   106   109   110    1
   107   112   114    1
   108    71    72    1
   109   130   127    1
   110   136   133    1
   111    72    75    1
   112   123   122    2
   113   123   124    1
   114   122   121    1
   115   110   111    2
   116   127   126    1
   117   127   128    1
   118   133   134    1
   119   133   132    1
   120   126   117   am
   121   118   117    2
   122   117   116    1
   123   116   119    1
   124   116   115    1
   125   135   134    2
   126    75    76    1
   127   119   120    1
   128   129   128    2
   129   121   120    1
   130    76    77    1
   131    77    78    1
   132    78    79    1
