@<TRIPOS>MOLECULE
tmp/5aqdX01.pdb
 198 185 0 0 0
SMALL
GASTEIGER

@<TRIPOS>ATOM
      1  N        106.5140   45.0090  138.6600 N.3    54  VAL54      -0.1245
      2  CA       105.1030   44.7470  138.8850 C.3    54  VAL54       0.1561
      3  C        104.9710   43.3230  139.4000 C.2    54  VAL54       0.2260
      4  O        104.1620   43.0530  140.2790 O.2    54  VAL54      -0.2867
      5  CB       104.2570   44.9560  137.6140 C.3    54  VAL54       0.0252
      6  CG1      102.8100   44.4330  137.8180 C.3    54  VAL54       0.0019
      7  CG2      104.2450   46.4340  137.2420 C.3    54  VAL54       0.0019
      8  N        106.0190   43.3440  142.9690 N.3    57  MET57      -0.1245
      9  CA       104.9460   43.9170  143.7670 C.3    57  MET57       0.1570
     10  C        103.8930   42.8360  144.0770 C.2    57  MET57       0.2261
     11  O        103.4280   42.7020  145.2110 O.2    57  MET57      -0.2867
     12  CB       104.3320   45.1090  143.0300 C.3    57  MET57       0.0387
     13  CG       103.0260   45.6280  143.6100 C.3    57  MET57       0.0595
     14  SD       102.1630   46.6730  142.4060 S.3    57  MET57      -0.1393
     15  CE       101.5270   45.4440  141.2810 C.3    57  MET57       0.0692
     16  N         96.6960   41.1150  145.2510 N.3    64  LEU64      -0.1245
     17  CA        96.5090   41.8730  144.0210 C.3    64  LEU64       0.1561
     18  C         95.9260   41.0210  142.8830 C.2    64  LEU64       0.2260
     19  O         95.2460   41.5460  142.0010 O.2    64  LEU64      -0.2867
     20  CB        97.8390   42.5130  143.5860 C.3    64  LEU64       0.0270
     21  CG        98.4040   43.5900  144.5280 C.3    64  LEU64       0.0019
     22  CD1       99.8740   43.8900  144.2020 C.3    64  LEU64       0.0001
     23  CD2       97.5710   44.8780  144.4960 C.3    64  LEU64       0.0001
     24  N         95.0870   44.1790  140.5960 N.3    70  CYS70      -0.1235
     25  CA        95.6750   43.6870  139.3570 C.3    70  CYS70       0.1677
     26  C         94.8330   42.5480  138.7750 C.2    70  CYS70       0.2270
     27  O         95.3260   41.7140  138.0170 O.2    70  CYS70      -0.2867
     28  CB        97.1160   43.2300  139.5860 C.3    70  CYS70       0.0956
     29  SG        98.2360   44.6300  139.6870 S.3    70  CYS70      -0.0801
     30  N         92.6600   43.2440  132.4560 N.3    74  ARG74      -0.1231
     31  CA        92.8160   44.6280  132.0210 C.3    74  ARG74       0.1694
     32  C         93.3440   45.5070  133.1750 C.2    74  ARG74       0.2591
     33  O         93.9550   46.5650  132.9430 O.2    74  ARG74      -0.2718
     34  CB        91.5040   45.1840  131.4600 C.3    74  ARG74       0.0321
     35  CG        90.4370   45.3900  132.4990 C.3    74  ARG74       0.0489
     36  CD        89.5360   46.5950  132.1790 C.3    74  ARG74       0.2205
     37  NE        88.7650   46.9190  133.3750 N.pl3  74  ARG74      -0.0865
     38  CZ        89.0950   47.8640  134.2500 C.cat  74  ARG74       0.5346
     39  NH1       90.1680   48.6240  134.0450 N.pl3  74  ARG74       0.1354
     40  NH2       88.3440   48.0530  135.3260 N.pl3  74  ARG74       0.1354
     41  N         93.1230   45.0770  134.4150 N.am   75  ARG75      -0.1980
     42  CA        93.7080   45.7920  135.5430 C.3    75  ARG75       0.1597
     43  C         95.2080   45.5300  135.5840 C.2    75  ARG75       0.2287
     44  O         95.9950   46.4430  135.8490 O.2    75  ARG75      -0.2864
     45  CB        93.0470   45.4000  136.8730 C.3    75  ARG75       0.0334
     46  CG        91.6450   45.9970  137.0550 C.3    75  ARG75       0.0492
     47  CD        91.2830   46.2190  138.5270 C.3    75  ARG75       0.2205
     48  NE        90.0080   46.9210  138.6460 N.pl3  75  ARG75      -0.0865
     49  CZ        88.8180   46.3400  138.5620 C.cat  75  ARG75       0.5346
     50  NH1       88.7190   45.0220  138.3920 N.pl3  75  ARG75       0.1354
     51  NH2       87.7220   47.0860  138.6620 N.pl3  75  ARG75       0.1354
     52  N         96.6920   47.6830  132.8930 N.3    78  ALA78      -0.1231
     53  CA        96.7230   49.0920  133.2670 C.3    78  ALA78       0.1694
     54  C         97.8560   49.3460  134.2570 C.2    78  ALA78       0.2592
     55  O         98.5390   50.3690  134.1780 O.2    78  ALA78      -0.2718
     56  CB        95.3800   49.5380  133.8600 C.3    78  ALA78       0.0304
     57  N         98.0750   48.4080  135.1750 N.am   79  CYS79      -0.1970
     58  CA        99.1400   48.5890  136.1590 C.3    79  CYS79       0.1712
     59  C        100.5080   48.5900  135.4750 C.2    79  CYS79       0.2296
     60  O        101.3350   49.4700  135.7320 O.2    79  CYS79      -0.2864
     61  CB        99.0890   47.5070  137.2370 C.3    79  CYS79       0.0983
     62  SG       100.4130   47.6530  138.4790 S.3    79  CYS79      -0.0798
     63  N        101.0790   49.4180  132.5950 N.3    81  ARG81      -0.1231
     64  CA       101.1400   50.6620  131.8460 C.3    81  ARG81       0.1694
     65  C        101.5810   51.8010  132.7580 C.2    81  ARG81       0.2592
     66  O        102.4760   52.5690  132.4110 O.2    81  ARG81      -0.2718
     67  CB        99.7840   50.9620  131.2050 C.3    81  ARG81       0.0321
     68  CG        99.7620   52.1950  130.3160 C.3    81  ARG81       0.0489
     69  CD        98.3370   52.7110  130.1640 C.3    81  ARG81       0.2205
     70  NE        97.8340   53.1550  131.4580 N.pl3  81  ARG81      -0.0865
     71  CZ        96.5580   53.1390  131.8280 C.cat  81  ARG81       0.5346
     72  NH1       95.6140   52.7060  130.9960 N.pl3  81  ARG81       0.1354
     73  NH2       96.2280   53.5690  133.0380 N.pl3  81  ARG81       0.1354
     74  N        100.9780   51.8950  133.9370 N.am   82  ASP82      -0.1960
     75  CA       101.3340   52.9510  134.8740 C.3    82  ASP82       0.1840
     76  C        102.8050   52.8860  135.3030 C.2    82  ASP82       0.2621
     77  O        103.4970   53.9100  135.3580 O.2    82  ASP82      -0.2715
     78  CB       100.4290   52.8920  136.0960 C.3    82  ASP82       0.1450
     79  CG        99.0500   53.4510  135.8200 C.2    82  ASP82       0.3671
     80  OD1       98.7040   53.6130  134.6340 O.co2  82  ASP82      -0.2456
     81  OD2       98.3110   53.7210  136.7860 O.co2  82  ASP82      -0.2456
     82  N        103.2770   51.6820  135.6080 N.am   83  ALA83      -0.1977
     83  CA       104.6680   51.4940  136.0100 C.3    83  ALA83       0.1597
     84  C        105.6040   51.9700  134.9090 C.2    83  ALA83       0.2287
     85  O        106.6410   52.5620  135.1770 O.2    83  ALA83      -0.2864
     86  CB       104.9330   50.0460  136.3430 C.3    83  ALA83       0.0319
     87  N        104.8330   54.2480  132.4610 N.3    85  ILE85      -0.1231
     88  CA       104.6890   55.7030  132.4440 C.3    85  ILE85       0.1692
     89  C        105.4960   56.3990  133.5350 C.2    85  ILE85       0.2591
     90  O        106.1660   57.3960  133.2810 O.2    85  ILE85      -0.2718
     91  CB       103.2240   56.1230  132.6120 C.3    85  ILE85       0.0266
     92  CG1      102.3790   55.5820  131.4620 C.3    85  ILE85       0.0019
     93  CG2      103.1230   57.6440  132.6930 C.3    85  ILE85       0.0020
     94  CD1      100.8850   55.7360  131.6960 C.3    85  ILE85       0.0001
     95  N        105.4360   55.8800  134.7510 N.am   86  ILE86      -0.1980
     96  CA       106.2240   56.4740  135.8230 C.3    86  ILE86       0.1595
     97  C        107.7270   56.4090  135.5110 C.2    86  ILE86       0.2287
     98  O        108.4580   57.3880  135.7240 O.2    86  ILE86      -0.2864
     99  CB       105.9310   55.7900  137.1680 C.3    86  ILE86       0.0276
    100  CG1      104.4760   56.0570  137.5660 C.3    86  ILE86       0.0022
    101  CG2      106.8550   56.3150  138.2480 C.3    86  ILE86       0.0022
    102  CD1      103.9880   55.1950  138.7070 C.3    86  ILE86       0.0001
    103  N        108.8300   59.0250  132.8160 N.3    89  TYR89      -0.1241
    104  CA       108.9560   60.4000  133.2890 C.3    89  TYR89       0.1605
    105  C        110.1740   60.5600  134.2080 C.2    89  TYR89       0.2264
    106  O        110.8470   61.5960  134.1850 O.2    89  TYR89      -0.2867
    107  CB       107.6620   60.8480  133.9730 C.3    89  TYR89       0.0534
    108  CG       106.5960   61.2160  132.9540 C.ar   89  TYR89      -0.0201
    109  CD1      106.7400   62.3480  132.1680 C.ar   89  TYR89      -0.0009
    110  CD2      105.4630   60.4210  132.7550 C.ar   89  TYR89      -0.0009
    111  CE1      105.8000   62.6930  131.2120 C.ar   89  TYR89       0.0417
    112  CE2      104.5020   60.7700  131.8050 C.ar   89  TYR89       0.0417
    113  CZ       104.6850   61.9150  131.0390 C.ar   89  TYR89       0.1957
    114  OH       103.7750   62.2910  130.0780 O.3    89  TYR89      -0.2866
    115  N        103.9270   66.6640  134.5980 N.3   105  ARG105     -0.1231
    116  CA       103.2580   65.8660  133.5750 C.3   105  ARG105      0.1694
    117  C        102.7830   64.5090  134.0850 C.2   105  ARG105      0.2592
    118  O        102.0160   63.8300  133.4000 O.2   105  ARG105     -0.2718
    119  CB       104.1880   65.6710  132.3660 C.3   105  ARG105      0.0321
    120  CG       104.6620   66.9690  131.7410 C.3   105  ARG105      0.0489
    121  CD       104.9180   66.8320  130.2410 C.3   105  ARG105      0.2205
    122  NE       105.2880   68.1160  129.6410 N.pl3 105  ARG105     -0.0865
    123  CZ       105.4880   68.3130  128.3400 C.cat 105  ARG105      0.5346
    124  NH1      105.3630   67.3010  127.4890 N.pl3 105  ARG105      0.1354
    125  NH2      105.8150   69.5230  127.8870 N.pl3 105  ARG105      0.1354
    126  N        103.2100   64.1270  135.2860 N.am  106  CYS106     -0.1970
    127  CA       102.9370   62.7820  135.8020 C.3   106  CYS106      0.1712
    128  C        102.3790   62.8040  137.2360 C.2   106  CYS106      0.2296
    129  O        101.3520   62.2200  137.5040 O.2   106  CYS106     -0.2864
    130  CB       104.2150   61.9240  135.7370 C.3   106  CYS106      0.0983
    131  SG       104.0860   60.1570  136.1700 S.3   106  CYS106     -0.0798
    132  N         98.0520   62.7970  140.5320 N.3   110  LEU110     -0.1245
    133  CA        98.1540   61.3420  140.5010 C.3   110  LEU110      0.1561
    134  C         97.5860   60.6900  141.7590 C.2   110  LEU110      0.2260
    135  O         96.8090   59.7330  141.6720 O.2   110  LEU110     -0.2867
    136  CB        99.6140   60.9090  140.3090 C.3   110  LEU110      0.0270
    137  CG        99.8210   59.3980  140.1760 C.3   110  LEU110      0.0019
    138  CD1       98.8980   58.8320  139.1090 C.3   110  LEU110      0.0001
    139  CD2      101.2770   59.0420  139.8570 C.3   110  LEU110      0.0001
    140  N         93.8630   60.8290  141.5290 N.3   113  THR113     -0.1203
    141  CA        93.3690   59.8960  140.5360 C.3   113  THR113      0.1994
    142  C         93.3250   58.4900  141.1230 C.2   113  THR113      0.2617
    143  O         92.3230   57.7900  140.9960 O.2   113  THR113     -0.2717
    144  CB        94.2520   59.9180  139.2700 C.3   113  THR113      0.1784
    145  OG1       94.1160   61.1890  138.6170 O.3   113  THR113     -0.2211
    146  CG2       93.8580   58.8090  138.3100 C.3   113  THR113      0.0376
    147  N         94.4030   58.1000  141.7940 N.am  114  TYR114     -0.1975
    148  CA        94.5020   56.7720  142.3960 C.3   114  TYR114      0.1639
    149  C         93.5070   56.5940  143.5580 C.2   114  TYR114      0.2290
    150  O         92.9350   55.5180  143.7350 O.2   114  TYR114     -0.2864
    151  CB        95.9380   56.5110  142.8670 C.3   114  TYR114      0.0560
    152  CG        96.8820   56.0890  141.7570 C.ar  114  TYR114     -0.0198
    153  CD1       96.3950   55.6700  140.5260 C.ar  114  TYR114     -0.0009
    154  CD2       98.2640   56.0950  141.9480 C.ar  114  TYR114     -0.0009
    155  CE1       97.2510   55.2740  139.5070 C.ar  114  TYR114      0.0417
    156  CE2       99.1370   55.7060  140.9310 C.ar  114  TYR114      0.0417
    157  CZ        98.6220   55.2950  139.7170 C.ar  114  TYR114      0.1957
    158  OH        99.4700   54.9020  138.7050 O.3   114  TYR114     -0.2866
    159  N         90.1240   56.0060  141.8990 N.3   117  LEU117     -0.1245
    160  CA        90.0780   54.6800  141.2800 C.3   117  LEU117      0.1561
    161  C         90.1740   53.5310  142.2780 C.2   117  LEU117      0.2260
    162  O         89.8180   52.4020  141.9570 O.2   117  LEU117     -0.2867
    163  CB        91.2010   54.5380  140.2610 C.3   117  LEU117      0.0270
    164  CG        91.0140   55.2940  138.9510 C.3   117  LEU117      0.0019
    165  CD1       92.2610   55.1530  138.1230 C.3   117  LEU117      0.0001
    166  CD2       89.8030   54.7650  138.1800 C.3   117  LEU117      0.0001
    167  N         93.0920   52.5450  143.3770 N.3   119  VAL119     -0.1231
    168  CA        94.3990   51.9280  143.1440 C.3   119  VAL119      0.1678
    169  C         95.2320   52.0220  144.4210 C.2   119  VAL119      0.2434
    170  O         95.5250   53.1170  144.8950 O.2   119  VAL119     -0.2733
    171  CB        95.1550   52.6000  141.9730 C.3   119  VAL119      0.0265
    172  CG1       96.6140   52.1510  141.9490 C.3   119  VAL119      0.0020
    173  CG2       94.4690   52.2930  140.6510 C.3   119  VAL119      0.0020
    174  N         95.6170   50.8710  144.9810 N.am  120  PRO120     -0.2729
    175  CA        96.2160   50.7880  146.3180 C.3   120  PRO120      0.1401
    176  C         97.5800   51.4750  146.4220 C.2   120  PRO120      0.2269
    177  O         98.4480   51.2240  145.5980 O.2   120  PRO120     -0.2865
    178  CB        96.3480   49.2800  146.5500 C.3   120  PRO120      0.0296
    179  CG        96.3740   48.6800  145.1860 C.3   120  PRO120      0.0237
    180  CD        95.4970   49.5530  144.3400 C.3   120  PRO120      0.0939
    181  N        100.9970   49.1670  147.4080 N.3   123  SER123     -0.1202
    182  CA       101.5260   48.3750  146.3070 C.3   123  SER123      0.2020
    183  C        102.1830   49.2430  145.2290 C.2   123  SER123      0.2619
    184  O        103.2210   48.8730  144.6600 O.2   123  SER123     -0.2717
    185  CB       100.4080   47.5290  145.7040 C.3   123  SER123      0.2103
    186  OG       100.0370   46.4940  146.6000 O.3   123  SER123     -0.2182
    187  N        101.5750   50.3950  144.9550 N.am  124  THR124     -0.1952
    188  CA       102.1000   51.2990  143.9510 C.3   124  THR124      0.1897
    189  C        103.4800   51.7840  144.3620 C.2   124  THR124      0.2313
    190  O        104.4010   51.8220  143.5490 O.2   124  THR124     -0.2863
    191  CB       101.1960   52.5150  143.7370 C.3   124  THR124      0.1794
    192  OG1       99.8910   52.0820  143.3590 O.3   124  THR124     -0.2208
    193  CG2      101.7610   53.4000  142.6370 C.3   124  THR124      0.0378
    194  N        105.9480   49.0430  143.8840 N.3   127  ALA127     -0.1245
    195  CA       106.4000   48.8430  142.5040 C.3   127  ALA127      0.1562
    196  C        107.4590   49.8960  142.1490 C.2   127  ALA127      0.2260
    197  O        108.4420   49.5970  141.4740 O.2   127  ALA127     -0.2867
    198  CB       105.2400   48.8990  141.5380 C.3   127  ALA127      0.0290
@<TRIPOS>BOND
     1   124   123    1
     2   125   123    1
     3   123   122    2
     4   122   121    1
     5   114   113    1
     6    69    68    1
     7    69    70    1
     8   121   120    1
     9    68    67    1
    10    72    71    1
    11   113   111   ar
    12   113   112   ar
    13    67    64    1
    14   111   109   ar
    15    70    71    2
    16    34    31    1
    17    34    35    1
    18    92    94    1
    19    92    91    1
    20   120   119    1
    21   112   110   ar
    22    71    73    1
    23    64    63    1
    24    64    65    1
    25    31    30    1
    26    31    32    1
    27   109   108   ar
    28    36    35    1
    29    36    37    1
    30   119   116    1
    31    66    65    2
    32    88    87    1
    33    88    91    1
    34    88    89    1
    35    91    93    1
    36   110   108   ar
    37    65    74   am
    38   103   104    1
    39    52    53    1
    40    33    32    2
    41   108   107    1
    42    32    41   am
    43    53    56    1
    44    53    54    1
    45    90    89    2
    46   104   107    1
    47   104   105    1
    48    37    38    2
    49   118   117    2
    50    89    95   am
    51   116   117    1
    52   116   115    1
    53    74    75    1
    54    39    38    1
    55   117   126   am
    56    55    54    2
    57   106   105    2
    58    38    40    1
    59    54    57   am
    60    41    42    1
    61    80    79   ar
    62    95    96    1
    63    75    76    1
    64    75    78    1
    65    84    85    2
    66    84    83    1
    67    57    58    1
    68   126   127    1
    69    76    77    2
    70    76    82   am
    71    59    60    2
    72    59    58    1
    73    97    98    2
    74    97    96    1
    75    42    43    1
    76    42    45    1
    77    43    44    2
    78    82    83    1
    79   130   127    1
    80   130   131    1
    81   127   128    1
    82    79    78    1
    83    79    81   ar
    84    96    99    1
    85    83    86    1
    86    58    61    1
    87    45    46    1
    88    46    47    1
    89    99   100    1
    90    99   101    1
    91   128   129    2
    92    61    62    1
    93     7     5    1
    94   100   102    1
    95     5     6    1
    96     5     2    1
    97    27    26    2
    98   165   164    1
    99   166   164    1
   100   146   144    1
   101    50    49    1
   102    47    48    1
   103    49    48    2
   104    49    51    1
   105   145   144    1
   106     1     2    1
   107   158   157    1
   108    26    25    1
   109     2     3    1
   110   164   163    1
   111   138   137    1
   112   144   141    1
   113    25    28    1
   114    25    24    1
   115     3     4    2
   116   155   157   ar
   117   155   153   ar
   118    28    29    1
   119   157   156   ar
   120   139   137    1
   121   137   136    1
   122   163   160    1
   123   136   133    1
   124   133   132    1
   125   133   134    1
   126   153   152   ar
   127   141   142    1
   128   141   140    1
   129   173   171    1
   130   156   154   ar
   131   143   142    2
   132   142   147   am
   133   160   159    1
   134   160   161    1
   135    15    14    1
   136   197   196    2
   137   198   195    1
   138   135   134    2
   139   152   154   ar
   140   152   151    1
   141   147   148    1
   142   172   171    1
   143   162   161    2
   144   171   168    1
   145    19    18    2
   146   196   195    1
   147   148   151    1
   148   148   149    1
   149    14    13    1
   150   195   194    1
   151   193   191    1
   152    18    17    1
   153     8     9    1
   154    12    13    1
   155    12     9    1
   156   168   167    1
   157   168   169    1
   158   192   191    1
   159   190   189    2
   160   149   150    2
   161    20    17    1
   162    20    21    1
   163   191   188    1
   164     9    10    1
   165   188   189    1
   166   188   187    1
   167    17    16    1
   168    10    11    2
   169    22    21    1
   170   180   174    1
   171   180   179    1
   172   169   170    2
   173   169   174   am
   174    23    21    1
   175   184   183    2
   176   187   183   am
   177   174   175    1
   178   179   178    1
   179   183   182    1
   180   177   176    2
   181   185   182    1
   182   185   186    1
   183   182   181    1
   184   175   176    1
   185   175   178    1
