@<TRIPOS>MOLECULE
tmp/5aqdG00.pdb
 199 195 0 0 0
SMALL
GASTEIGER

@<TRIPOS>ATOM
      1  N        102.3480  115.5500  111.5740 N.3    59  CYS59      -0.1235
      2  CA       103.1230  114.4440  112.1370 C.3    59  CYS59       0.1677
      3  C        104.6020  114.5850  111.7700 C.2    59  CYS59       0.2270
      4  O        105.4590  114.1210  112.5110 O.2    59  CYS59      -0.2867
      5  CB       102.5630  113.0790  111.7060 C.3    59  CYS59       0.0956
      6  SG       102.9900  112.4900  110.0600 S.3    59  CYS59      -0.0801
      7  N        112.2760  112.2880  111.1870 N.3    66  LEU66      -0.1245
      8  CA       111.8700  111.4340  110.0720 C.3    66  LEU66       0.1561
      9  C        112.5200  111.8660  108.7740 C.2    66  LEU66       0.2260
     10  O        112.5920  111.0910  107.8230 O.2    66  LEU66      -0.2867
     11  CB       110.3430  111.4360  109.9200 C.3    66  LEU66       0.0270
     12  CG       109.6270  110.8130  111.1190 C.3    66  LEU66       0.0019
     13  CD1      108.0980  110.8890  110.9680 C.3    66  LEU66       0.0001
     14  CD2      110.1000  109.3910  111.2930 C.3    66  LEU66       0.0001
     15  N        112.0930  107.4600  107.8370 N.3    72  ALA72      -0.1231
     16  CA       110.9760  107.0490  106.9780 C.3    72  ALA72       0.1694
     17  C        110.3330  108.1910  106.1810 C.2    72  ALA72       0.2592
     18  O        109.4380  107.9480  105.3930 O.2    72  ALA72      -0.2718
     19  CB       109.9310  106.3380  107.8100 C.3    72  ALA72       0.0304
     20  N        110.7930  109.4270  106.3630 N.am   73  ASN73      -0.1974
     21  CA       110.2790  110.5410  105.5670 C.3    73  ASN73       0.1688
     22  C        111.4160  111.2770  104.8570 C.2    73  ASN73       0.2292
     23  O        111.2710  112.4350  104.4740 O.2    73  ASN73      -0.2864
     24  CB       109.4760  111.5060  106.4610 C.3    73  ASN73       0.1181
     25  CG       108.5770  112.4490  105.6670 C.2    73  ASN73       0.2629
     26  OD1      107.6900  112.0130  104.9340 O.2    73  ASN73      -0.2716
     27  ND2      108.7930  113.7490  105.8310 N.am   73  ASN73      -0.0877
     28  N        109.5860  108.1830   99.9720 N.3    78  PHE78      -0.1241
     29  CA       109.0880  107.9740  101.3210 C.3    78  PHE78       0.1605
     30  C        108.0780  109.0480  101.7170 C.2    78  PHE78       0.2264
     31  O        107.0530  108.7390  102.3360 O.2    78  PHE78      -0.2867
     32  CB       110.2450  107.9470  102.3280 C.3    78  PHE78       0.0534
     33  CG       111.0430  106.6630  102.3140 C.ar   78  PHE78      -0.0203
     34  CD1      110.6370  105.5780  101.5470 C.ar   78  PHE78      -0.0042
     35  CD2      112.1870  106.5350  103.0910 C.ar   78  PHE78      -0.0042
     36  CE1      111.3550  104.3980  101.5460 C.ar   78  PHE78      -0.0003
     37  CE2      112.9190  105.3530  103.0890 C.ar   78  PHE78      -0.0003
     38  CZ       112.5030  104.2850  102.3110 C.ar   78  PHE78      -0.0000
     39  N        104.7320  108.5090   99.9750 N.3    81  LYS81      -0.1231
     40  CA       104.0500  107.3380  100.5190 C.3    81  LYS81       0.1693
     41  C        103.4780  107.6380  101.8900 C.2    81  LYS81       0.2592
     42  O        102.4170  107.1250  102.2430 O.2    81  LYS81      -0.2718
     43  CB       104.9980  106.1400  100.6140 C.3    81  LYS81       0.0285
     44  CG       105.4540  105.6050   99.2700 C.3    81  LYS81       0.0035
     45  CD       105.8930  104.1670   99.3870 C.3    81  LYS81       0.0206
     46  CE       106.1650  103.5370   98.0150 C.3    81  LYS81       0.1093
     47  NZ       106.7950  102.1920   98.1980 N.3    81  LYS81      -0.1314
     48  N        104.1840  108.4620  102.6640 N.am   82  CYS82      -0.1970
     49  CA       103.7030  108.8050  103.9910 C.3    82  CYS82       0.1712
     50  C        102.3990  109.6020  103.8860 C.2    82  CYS82       0.2296
     51  O        101.4270  109.2960  104.5820 O.2    82  CYS82      -0.2864
     52  CB       104.7470  109.5900  104.7860 C.3    82  CYS82       0.0983
     53  SG       104.2520  109.8650  106.5020 S.3    82  CYS82      -0.0798
     54  N        100.4480  109.5460  101.3680 N.3    84  ARG84      -0.1231
     55  CA        99.5280  108.5970  100.7630 C.3    84  ARG84       0.1694
     56  C         98.8720  107.7320  101.8360 C.2    84  ARG84       0.2592
     57  O         97.6790  107.4370  101.7700 O.2    84  ARG84      -0.2718
     58  CB       100.2710  107.7260   99.7390 C.3    84  ARG84       0.0321
     59  CG        99.4930  106.5270   99.2210 C.3    84  ARG84       0.0489
     60  CD       100.4570  105.4320   98.7880 C.3    84  ARG84       0.2205
     61  NE       101.0780  104.7900   99.9420 N.pl3  84  ARG84      -0.0865
     62  CZ       101.9560  103.7980   99.8540 C.cat  84  ARG84       0.5346
     63  NH1      102.3260  103.3400   98.6590 N.pl3  84  ARG84       0.1354
     64  NH2      102.4610  103.2630  100.9550 N.pl3  84  ARG84       0.1354
     65  N         99.6680  107.3470  102.8290 N.am   85  ASP85      -0.1960
     66  CA        99.1900  106.4940  103.9020 C.3    85  ASP85       0.1840
     67  C         98.1330  107.2280  104.7400 C.2    85  ASP85       0.2621
     68  O         97.0840  106.6590  105.0730 O.2    85  ASP85      -0.2715
     69  CB       100.3600  106.0260  104.7710 C.3    85  ASP85       0.1450
     70  CG       101.0940  104.8200  104.1740 C.2    85  ASP85       0.3671
     71  OD1      101.0200  104.6160  102.9430 O.co2  85  ASP85      -0.2456
     72  OD2      101.7620  104.0910  104.9410 O.co2  85  ASP85      -0.2456
     73  N         98.4150  108.4840  105.0790 N.am   86  VAL86      -0.1977
     74  CA        97.4490  109.3080  105.7920 C.3    86  VAL86       0.1596
     75  C         96.1600  109.4230  104.9880 C.2    86  VAL86       0.2287
     76  O         95.0740  109.2780  105.5380 O.2    86  VAL86      -0.2864
     77  CB        97.9950  110.7170  106.0890 C.3    86  VAL86       0.0276
     78  CG1       96.9320  111.5500  106.7950 C.3    86  VAL86       0.0022
     79  CG2       99.2240  110.6180  106.9480 C.3    86  VAL86       0.0022
     80  N         95.0380  107.2980  102.6730 N.3    88  HIS88      -0.1226
     81  CA        94.4460  105.9590  102.7880 C.3    88  HIS88       0.1752
     82  C         93.5370  105.8220  104.0110 C.2    88  HIS88       0.2596
     83  O         92.3610  105.4450  103.8880 O.2    88  HIS88      -0.2718
     84  CB        95.5460  104.8890  102.8570 C.3    88  HIS88       0.0759
     85  CG        95.9850  104.3790  101.5180 C.ar   88  HIS88       0.0818
     86  ND1       95.1330  104.2950  100.4350 N.ar   88  HIS88      -0.2268
     87  CD2       97.1830  103.9150  101.0910 C.ar   88  HIS88       0.1154
     88  CE1       95.7930  103.8080   99.3980 C.ar   88  HIS88       0.1986
     89  NE2       97.0390  103.5690   99.7700 N.ar   88  HIS88      -0.2212
     90  N         94.0800  106.1270  105.1880 N.am   89  TYR89      -0.1976
     91  CA        93.2890  106.0500  106.4080 C.3    89  TYR89       0.1639
     92  C         92.0790  106.9980  106.2940 C.2    89  TYR89       0.2290
     93  O         90.9610  106.6100  106.6130 O.2    89  TYR89      -0.2864
     94  CB        94.1410  106.3700  107.6500 C.3    89  TYR89       0.0560
     95  CG        94.9830  105.1990  108.1300 C.ar   89  TYR89      -0.0198
     96  CD1       94.4240  104.1590  108.8840 C.ar   89  TYR89      -0.0009
     97  CD2       96.3380  105.1250  107.8260 C.ar   89  TYR89      -0.0009
     98  CE1       95.2070  103.0750  109.3200 C.ar   89  TYR89       0.0417
     99  CE2       97.1170  104.0610  108.2600 C.ar   89  TYR89       0.0417
    100  CZ        96.5510  103.0350  108.9930 C.ar   89  TYR89       0.1957
    101  OH        97.3580  101.9920  109.3990 O.3    89  TYR89      -0.2866
    102  N         90.5600  107.9630  103.6170 N.3    91  ARG91      -0.1231
    103  CA        89.6070  107.4350  102.6450 C.3    91  ARG91       0.1694
    104  C         88.8180  106.2740  103.2570 C.2    91  ARG91       0.2591
    105  O         87.6030  106.1580  103.0690 O.2    91  ARG91      -0.2718
    106  CB        90.3150  106.9940  101.3600 C.3    91  ARG91       0.0321
    107  CG        89.4000  106.3110  100.3430 C.3    91  ARG91       0.0489
    108  CD        90.1070  106.0470   99.0010 C.3    91  ARG91       0.2205
    109  NE        91.3320  105.2620   99.1700 N.pl3  91  ARG91      -0.0865
    110  CZ        91.3990  103.9330   99.1220 C.cat  91  ARG91       0.5346
    111  NH1       90.3110  103.1990   98.8960 N.pl3  91  ARG91       0.1354
    112  NH2       92.5630  103.3370   99.2990 N.pl3  91  ARG91       0.1354
    113  N         89.5060  105.4340  104.0160 N.am   92  LEU92      -0.1980
    114  CA        88.8470  104.3200  104.6890 C.3    92  LEU92       0.1596
    115  C         87.8590  104.8380  105.7440 C.2    92  LEU92       0.2287
    116  O         86.8310  104.2090  105.9940 O.2    92  LEU92      -0.2864
    117  CB        89.8800  103.3800  105.3190 C.3    92  LEU92       0.0297
    118  CG        90.8060  102.6980  104.2980 C.3    92  LEU92       0.0022
    119  CD1       91.8350  101.8050  104.9700 C.3    92  LEU92       0.0001
    120  CD2       90.0120  101.9130  103.2690 C.3    92  LEU92       0.0001
    121  N         90.4210   96.8420  105.5840 N.3   108  TRP108     -0.1227
    122  CA        91.3850   97.3270  104.6000 C.3   108  TRP108      0.1737
    123  C         92.4530   98.2520  105.2030 C.2   108  TRP108      0.2596
    124  O         93.4100   98.6390  104.5290 O.2   108  TRP108     -0.2718
    125  CB        90.6470   98.0410  103.4650 C.3   108  TRP108      0.0564
    126  CG        89.5730   97.1950  102.7670 C.ar  108  TRP108      0.0003
    127  CD1       89.4660   95.8270  102.7520 C.ar  108  TRP108      0.0946
    128  CD2       88.4640   97.6860  101.9930 C.ar  108  TRP108      0.0152
    129  NE1       88.3660   95.4440  102.0120 N.ar  108  TRP108     -0.2442
    130  CE2       87.7410   96.5660  101.5340 C.ar  108  TRP108      0.0810
    131  CE3       88.0170   98.9620  101.6470 C.ar  108  TRP108      0.0012
    132  CZ2       86.5930   96.6930  100.7540 C.ar  108  TRP108      0.0191
    133  CZ3       86.8770   99.0800  100.8690 C.ar  108  TRP108      0.0001
    134  CH2       86.1790   97.9580  100.4340 C.ar  108  TRP108      0.0015
    135  N         92.3080   98.6040  106.4730 N.am  109  GLY109     -0.1957
    136  CA        93.2970   99.4680  107.0850 C.3   109  GLY109      0.1869
    137  C         93.9820   98.8550  108.2830 C.2   109  GLY109      0.2309
    138  O         95.2050   98.7670  108.3380 O.2   109  GLY109     -0.2863
    139  N        102.8810   94.8900  108.7390 N.3   116  VAL116     -0.1231
    140  CA       103.4870   95.6900  107.6820 C.3   116  VAL116      0.1692
    141  C        104.4690   96.7390  108.2490 C.2   116  VAL116      0.2592
    142  O        105.6110   96.8410  107.7850 O.2   116  VAL116     -0.2718
    143  CB       102.4020   96.4080  106.8150 C.3   116  VAL116      0.0266
    144  CG1      103.0550   97.2890  105.7640 C.3   116  VAL116      0.0020
    145  CG2      101.4410   95.3860  106.1520 C.3   116  VAL116      0.0020
    146  N        104.0350   97.4970  109.2570 N.am  117  TYR117     -0.1976
    147  CA       104.8400   98.6050  109.7680 C.3   117  TYR117      0.1639
    148  C        106.0480   98.0910  110.5570 C.2   117  TYR117      0.2290
    149  O        107.1270   98.6640  110.4840 O.2   117  TYR117     -0.2864
    150  CB       103.9930   99.5570  110.6260 C.3   117  TYR117      0.0560
    151  CG       102.8020  100.1550  109.8780 C.ar  117  TYR117     -0.0198
    152  CD1      102.7930  100.2270  108.4800 C.ar  117  TYR117     -0.0009
    153  CD2      101.6720  100.6010  110.5700 C.ar  117  TYR117     -0.0009
    154  CE1      101.7000  100.7320  107.7910 C.ar  117  TYR117      0.0417
    155  CE2      100.5680  101.1240  109.8910 C.ar  117  TYR117      0.0417
    156  CZ       100.5900  101.1900  108.5040 C.ar  117  TYR117      0.1957
    157  OH        99.4960  101.6860  107.8290 O.3   117  TYR117     -0.2866
    158  N        108.5600   96.7700  107.9020 N.3   120  LEU120     -0.1245
    159  CA       109.2130   97.8310  107.1310 C.3   120  LEU120      0.1561
    160  C        109.9000   98.8720  108.0270 C.2   120  LEU120      0.2260
    161  O        110.3790   99.9090  107.5530 O.2   120  LEU120     -0.2867
    162  CB       108.2110   98.5210  106.1960 C.3   120  LEU120      0.0270
    163  CG       107.7410   97.7090  104.9820 C.3   120  LEU120      0.0019
    164  CD1      106.9960   98.5990  103.9850 C.3   120  LEU120      0.0001
    165  CD2      108.9050   96.9940  104.3040 C.3   120  LEU120      0.0001
    166  N        108.5550  100.9550  110.0070 N.3   122  LEU122     -0.1231
    167  CA       107.8630  102.2490  110.0740 C.3   122  LEU122      0.1678
    168  C        107.3010  102.4890  111.4580 C.2   122  LEU122      0.2434
    169  O        106.4910  101.6920  111.9420 O.2   122  LEU122     -0.2733
    170  CB       106.7350  102.3320  109.0500 C.3   122  LEU122      0.0284
    171  CG       107.1310  102.2140  107.5840 C.3   122  LEU122      0.0019
    172  CD1      105.8780  102.0700  106.7470 C.3   122  LEU122      0.0001
    173  CD2      107.9730  103.4020  107.1360 C.3   122  LEU122      0.0001
    174  N        107.7090  103.6020  112.0940 N.am  123  PRO123     -0.2729
    175  CA       107.2410  103.9160  113.4500 C.3   123  PRO123      0.1401
    176  C        105.7510  104.2750  113.4360 C.2   123  PRO123      0.2269
    177  O        105.2850  104.9010  112.4930 O.2   123  PRO123     -0.2865
    178  CB       108.1110  105.1150  113.8570 C.3   123  PRO123      0.0296
    179  CG       108.4220  105.7770  112.5700 C.3   123  PRO123      0.0237
    180  CD       108.5780  104.6680  111.5530 C.3   123  PRO123      0.0939
    181  N        104.1560  108.3620  114.3400 N.3   126  PRO126     -0.2102
    182  CA       103.7450  109.3980  113.3910 C.3   126  PRO126      0.1504
    183  C        102.3380  109.1840  112.8370 C.2   126  PRO126      0.2575
    184  O        101.6500  110.1760  112.6290 O.2   126  PRO126     -0.2718
    185  CB       104.8020  109.2910  112.2870 C.3   126  PRO126      0.0282
    186  CG       105.9910  108.7740  112.9900 C.3   126  PRO126      0.0208
    187  CD       105.4300  107.7420  113.9290 C.3   126  PRO126      0.0893
    188  N        101.9180  107.9330  112.6210 N.am  127  TYR127     -0.1977
    189  CA       100.5360  107.6560  112.2020 C.3   127  TYR127      0.1639
    190  C         99.5320  108.1720  113.2140 C.2   127  TYR127      0.2290
    191  O         98.5330  108.7850  112.8480 O.2   127  TYR127     -0.2864
    192  CB       100.3070  106.1630  111.9950 C.3   127  TYR127      0.0560
    193  CG       100.9720  105.6170  110.7420 C.ar  127  TYR127     -0.0198
    194  CD1      102.2920  105.1780  110.7650 C.ar  127  TYR127     -0.0009
    195  CD2      100.2770  105.5400  109.5440 C.ar  127  TYR127     -0.0009
    196  CE1      102.8960  104.6760  109.6240 C.ar  127  TYR127      0.0417
    197  CE2      100.8620  105.0550  108.4090 C.ar  127  TYR127      0.0417
    198  CZ       102.1770  104.6230  108.4460 C.ar  127  TYR127      0.1957
    199  OH       102.7650  104.1240  107.3040 O.3   127  TYR127     -0.2866
@<TRIPOS>BOND
     1    46    47    1
     2    46    45    1
     3    63    62    1
     4    60    59    1
     5    60    61    1
     6   111   110    1
     7   108   109    1
     8   108   107    1
     9   110   109    2
    10   110   112    1
    11    59    58    1
    12    44    45    1
    13    44    43    1
    14    88    89   ar
    15    88    86   ar
    16    58    55    1
    17    89    87   ar
    18    62    61    2
    19    62    64    1
    20    28    29    1
    21    39    40    1
    22   107   106    1
    23   134   132   ar
    24   134   133   ar
    25    86    85   ar
    26    40    43    1
    27    40    41    1
    28   132   130   ar
    29    55    54    1
    30    55    56    1
    31   133   131   ar
    32    87    85   ar
    33    29    30    1
    34    29    32    1
    35   106   103    1
    36    85    84    1
    37   130   128   ar
    38   130   129   ar
    39    36    34   ar
    40    36    38   ar
    41    34    33   ar
    42   131   128   ar
    43    30    31    2
    44    57    56    2
    45    56    65   am
    46    41    42    2
    47    41    48   am
    48   128   126   ar
    49   129   127   ar
    50    38    37   ar
    51    33    32    1
    52    33    35   ar
    53   103   104    1
    54   103   102    1
    55    48    49    1
    56    80    81    1
    57   127   126   ar
    58   126   125    1
    59    81    84    1
    60    81    82    1
    61    65    66    1
    62    71    70   ar
    63   105   104    2
    64    37    35   ar
    65   104   113   am
    66   120   118    1
    67   125   122    1
    68    50    49    1
    69    50    51    2
    70    83    82    2
    71    66    67    1
    72    66    69    1
    73   164   163    1
    74    49    52    1
    75    82    90   am
    76   113   114    1
    77    70    69    1
    78    70    72   ar
    79   118   119    1
    80   118   117    1
    81   165   163    1
    82    23    22    2
    83   124   123    2
    84   122   123    1
    85   122   121    1
    86   114   117    1
    87   114   115    1
    88    67    68    2
    89    67    73   am
    90    52    53    1
    91    22    21    1
    92    26    25    2
    93   163   162    1
    94    75    76    2
    95    75    74    1
    96    73    74    1
    97    90    91    1
    98   123   135   am
    99    18    17    2
   100    21    20    1
   101    21    24    1
   102    25    27   am
   103    25    24    1
   104   115   116    2
   105   144   143    1
   106    74    77    1
   107    77    78    1
   108    77    79    1
   109   145   143    1
   110    17    20   am
   111    17    16    1
   112   162   159    1
   113    92    91    1
   114    92    93    2
   115    91    94    1
   116   135   136    1
   117   172   171    1
   118   143   140    1
   119    16    19    1
   120    16    15    1
   121   136   137    1
   122   159   158    1
   123   159   160    1
   124   173   171    1
   125   199   198    1
   126   161   160    2
   127   171   170    1
   128    94    95    1
   129   140   141    1
   130   140   139    1
   131   142   141    2
   132   154   152   ar
   133   154   156   ar
   134    10     9    2
   135    97    95   ar
   136    97    99   ar
   137   157   156    1
   138    95    96   ar
   139   141   146   am
   140    99   100   ar
   141   137   138    2
   142   197   198   ar
   143   197   195   ar
   144   198   196   ar
   145   152   151   ar
   146   156   155   ar
   147     9     8    1
   148    96    98   ar
   149   100    98   ar
   150   100   101    1
   151   170   167    1
   152   146   147    1
   153   195   193   ar
   154   196   194   ar
   155   147   148    1
   156   147   150    1
   157   151   153   ar
   158   151   150    1
   159   155   153   ar
   160    11     8    1
   161    11    12    1
   162   166   167    1
   163     6     5    1
   164     8     7    1
   165   167   168    1
   166   149   148    2
   167   193   194   ar
   168   193   192    1
   169    13    12    1
   170    12    14    1
   171   168   169    2
   172   168   174   am
   173   180   174    1
   174   180   179    1
   175     1     2    1
   176     5     2    1
   177     3     2    1
   178     3     4    2
   179   192   189    1
   180   174   175    1
   181   189   188    1
   182   189   190    1
   183   185   186    1
   184   185   182    1
   185   177   176    2
   186   179   178    1
   187   188   183   am
   188   184   183    2
   189   183   182    1
   190   191   190    2
   191   186   187    1
   192   182   181    1
   193   176   175    1
   194   175   178    1
   195   187   181    1
