@<TRIPOS>MOLECULE
tmp/5aqdX03.pdb
 166 156 0 0 0
SMALL
GASTEIGER

@<TRIPOS>ATOM
      1  N        116.7460   48.9880  129.3280 N.3    45  ASN45      -0.1240
      2  CA       116.2390   47.8590  130.0990 C.3    45  ASN45       0.1653
      3  C        114.8630   48.1300  130.7020 C.2    45  ASN45       0.2266
      4  O        114.4440   47.4310  131.6280 O.2    45  ASN45      -0.2867
      5  CB       117.2420   47.4810  131.2000 C.3    45  ASN45       0.1155
      6  CG       118.5900   47.0820  130.6330 C.2    45  ASN45       0.2627
      7  OD1      118.6910   46.0770  129.9300 O.2    45  ASN45      -0.2716
      8  ND2      119.6250   47.8880  130.8960 N.am   45  ASN45      -0.0877
      9  N        112.1330   45.1320  130.7870 N.3    48  CYS48      -0.1221
     10  CA       112.5000   44.1480  131.8060 C.3    48  CYS48       0.1808
     11  C        112.2820   44.6790  133.2200 C.2    48  CYS48       0.2601
     12  O        111.8660   43.9500  134.1130 O.2    48  CYS48      -0.2717
     13  CB       113.9590   43.7330  131.6330 C.3    48  CYS48       0.0970
     14  SG       114.3340   42.1330  132.3530 S.3    48  CYS48      -0.0800
     15  N        112.5920   45.9560  133.4110 N.am   49  MET49      -0.1979
     16  CA       112.4240   46.6270  134.7000 C.3    49  MET49       0.1605
     17  C        110.9510   46.6910  135.1270 C.2    49  MET49       0.2287
     18  O        110.5980   46.3300  136.2470 O.2    49  MET49      -0.2864
     19  CB       113.0100   48.0480  134.6400 C.3    49  MET49       0.0413
     20  CG       114.5250   48.1230  134.7740 C.3    49  MET49       0.0598
     21  SD       115.1530   49.8000  134.5480 S.3    49  MET49      -0.1393
     22  CE       114.5950   50.6260  136.0350 C.3    49  MET49       0.0692
     23  N        109.4730   43.0770  135.7940 N.3    52  ASP52      -0.1239
     24  CA       110.0430   42.5450  137.0360 C.3    52  ASP52       0.1674
     25  C        109.4870   43.2420  138.2780 C.2    52  ASP52       0.2266
     26  O        109.2320   42.5970  139.2940 O.2    52  ASP52      -0.2867
     27  CB       111.5680   42.6680  137.0280 C.3    52  ASP52       0.1410
     28  CG       112.2170   42.0390  138.2560 C.2    52  ASP52       0.3668
     29  OD1      111.9560   40.8450  138.5580 O.co2  52  ASP52      -0.2456
     30  OD2      112.9820   42.7500  138.9290 O.co2  52  ASP52      -0.2456
     31  N        105.8190   42.4330  138.8910 N.3    55  ALA55      -0.1231
     32  CA       105.7900   41.0400  139.3100 C.3    55  ALA55       0.1694
     33  C        106.2730   40.9340  140.7400 C.2    55  ALA55       0.2592
     34  O        105.7510   40.1320  141.5120 O.2    55  ALA55      -0.2718
     35  CB       106.6400   40.1630  138.3870 C.3    55  ALA55       0.0304
     36  N        107.2730   41.7430  141.0860 N.am   56  GLY56      -0.1957
     37  CA       107.7800   41.7890  142.4490 C.3    56  GLY56       0.1869
     38  C        106.7080   42.2970  143.4000 C.2    56  GLY56       0.2309
     39  O        106.4990   41.7640  144.4970 O.2    56  GLY56      -0.2863
     40  N        104.2490   39.3130  143.8170 N.3    59  CYS59      -0.1221
     41  CA       104.7300   38.1780  144.6120 C.3    59  CYS59       0.1808
     42  C        104.8170   38.5570  146.1050 C.2    59  CYS59       0.2601
     43  O        104.7080   37.6950  146.9790 O.2    59  CYS59      -0.2717
     44  CB       106.0790   37.6510  144.0890 C.3    59  CYS59       0.0970
     45  SG       107.5800   38.6250  144.4480 S.3    59  CYS59      -0.0800
     46  N        104.9730   39.8450  146.3940 N.am   60  GLU60      -0.1979
     47  CA       104.9220   40.3200  147.7740 C.3    60  GLU60       0.1602
     48  C        103.5020   40.4570  148.3050 C.2    60  GLU60       0.2287
     49  O        103.3030   40.5990  149.5090 O.2    60  GLU60      -0.2864
     50  CB       105.6220   41.6710  147.9120 C.3    60  GLU60       0.0415
     51  CG       107.1210   41.5790  147.7460 C.3    60  GLU60       0.1163
     52  CD       107.7690   42.9410  147.7430 C.2    60  GLU60       0.3649
     53  OE1      107.1430   43.8860  148.2640 O.co2  60  GLU60      -0.2457
     54  OE2      108.8930   43.0670  147.2050 O.co2  60  GLU60      -0.2457
     55  N        105.4240   50.3220  146.3260 N.3   126  ARG126     -0.1245
     56  CA       106.2640   49.1460  146.3130 C.3   126  ARG126      0.1563
     57  C        106.7990   48.8870  144.8990 C.2   126  ARG126      0.2260
     58  O        107.9770   48.5720  144.7270 O.2   126  ARG126     -0.2867
     59  CB       105.4570   47.9670  146.8500 C.3   126  ARG126      0.0307
     60  CG       106.2440   46.8270  147.3880 C.3   126  ARG126      0.0489
     61  CD       107.3380   47.2350  148.3560 C.3   126  ARG126      0.2205
     62  NE       108.3860   46.2380  148.2110 N.pl3 126  ARG126     -0.0865
     63  CZ       109.6730   46.5020  148.0430 C.cat 126  ARG126      0.5346
     64  NH1      110.1080   47.7540  148.0500 N.pl3 126  ARG126      0.1354
     65  NH2      110.5250   45.4970  147.8870 N.pl3 126  ARG126      0.1354
     66  N        110.8640   49.1320  143.7430 N.3   130  ILE130     -0.1245
     67  CA       111.6460   48.0820  143.0990 C.3   130  ILE130      0.1561
     68  C        112.3540   48.6490  141.8550 C.2   130  ILE130      0.2260
     69  O        113.5400   48.4180  141.6510 O.2   130  ILE130     -0.2867
     70  CB       110.7830   46.8710  142.7340 C.3   130  ILE130      0.0252
     71  CG1      110.3420   46.1390  144.0080 C.3   130  ILE130      0.0019
     72  CG2      111.5660   45.9170  141.8390 C.3   130  ILE130      0.0019
     73  CD1      109.1810   45.1440  143.7900 C.3   130  ILE130      0.0001
     74  N        115.4650   50.4370  142.8040 N.3   133  ALA133     -0.1231
     75  CA       116.5610   49.4940  143.0310 C.3   133  ALA133      0.1694
     76  C        117.1380   48.9690  141.7140 C.2   133  ALA133      0.2591
     77  O        118.3430   48.7590  141.6120 O.2   133  ALA133     -0.2718
     78  CB       116.0820   48.3360  143.8840 C.3   133  ALA133      0.0304
     79  N        116.2720   48.7540  140.7220 N.am  134  GLN134     -0.1979
     80  CA       116.7050   48.3030  139.3980 C.3   134  GLN134      0.1601
     81  C        117.5180   49.3930  138.7080 C.2   134  GLN134      0.2287
     82  O        118.5690   49.1190  138.1330 O.2   134  GLN134     -0.2864
     83  CB       115.5070   47.9260  138.5100 C.3   134  GLN134      0.0394
     84  CG       114.5880   46.8140  139.0440 C.3   134  GLN134      0.0908
     85  CD       113.2390   46.8040  138.3240 C.2   134  GLN134      0.2608
     86  OE1      112.8150   47.8250  137.7980 O.2   134  GLN134     -0.2717
     87  NE2      112.5670   45.6500  138.2970 N.am  134  GLN134     -0.0878
     88  N        121.1030   49.6800  140.0900 N.3   137  ALA137     -0.1231
     89  CA       122.0000   48.6350  139.6750 C.3   137  ALA137      0.1694
     90  C        122.3370   48.7730  138.1940 C.2   137  ALA137      0.2592
     91  O        123.4630   48.4770  137.7820 O.2   137  ALA137     -0.2718
     92  CB       121.3930   47.2530  139.9690 C.3   137  ALA137      0.0304
     93  N        121.3740   49.2150  137.3890 N.am  138  HIS138     -0.1976
     94  CA       121.6310   49.3370  135.9580 C.3   138  HIS138      0.1656
     95  C        122.5420   50.5290  135.6660 C.2   138  HIS138      0.2291
     96  O        123.4040   50.4510  134.7850 O.2   138  HIS138     -0.2864
     97  CB       120.3320   49.4540  135.1620 C.3   138  HIS138      0.0771
     98  CG       119.7340   48.1310  134.7850 C.ar  138  HIS138      0.0820
     99  ND1      120.4740   47.1050  134.2310 N.ar  138  HIS138     -0.2267
    100  CD2      118.4630   47.6690  134.8730 C.ar  138  HIS138      0.1154
    101  CE1      119.6860   46.0770  133.9870 C.ar  138  HIS138      0.1986
    102  NE2      118.4620   46.3880  134.3760 N.ar  138  HIS138     -0.2212
    103  N        125.8540   47.0580  137.5380 N.3   142  THR142     -0.1204
    104  CA       126.0820   45.8620  138.3370 C.3   142  THR142      0.1979
    105  C        124.8030   45.0620  138.6090 C.2   142  THR142      0.2460
    106  O        124.4910   44.7960  139.7640 O.2   142  THR142     -0.2732
    107  CB       126.7370   46.2260  139.6960 C.3   142  THR142      0.1783
    108  OG1      125.9400   47.2140  140.3610 O.3   142  THR142     -0.2211
    109  CG2      128.1420   46.7680  139.4930 C.3   142  THR142      0.0376
    110  N        124.0440   44.6880  137.5560 N.am  143  PRO143     -0.2717
    111  CA       122.8690   43.8470  137.8320 C.3   143  PRO143      0.1535
    112  C        123.2490   42.3940  138.1420 C.2   143  PRO143      0.2599
    113  O        124.2460   41.9040  137.6040 O.2   143  PRO143     -0.2715
    114  CB       122.0730   43.9280  136.5280 C.3   143  PRO143      0.0310
    115  CG       123.1030   44.1300  135.4870 C.3   143  PRO143      0.0237
    116  CD       124.1560   45.0020  136.1190 C.3   143  PRO143      0.0939
    117  N        122.4730   41.7080  138.9810 N.am  144  SER144     -0.1950
    118  CA       122.8230   40.3310  139.3410 C.3   144  SER144      0.1924
    119  C        122.2000   39.3300  138.3790 C.2   144  SER144      0.2314
    120  O        121.1370   39.5850  137.8080 O.2   144  SER144     -0.2863
    121  CB       122.3810   40.0000  140.7710 C.3   144  SER144      0.2116
    122  OG       120.9960   39.7040  140.8260 O.3   144  SER144     -0.2180
    123  N        118.6860   38.1350  139.9090 N.3   147  ARG147     -0.1231
    124  CA       117.3980   38.7830  139.6440 C.3   147  ARG147      0.1694
    125  C        117.0460   38.8140  138.1540 C.2   147  ARG147      0.2591
    126  O        115.9040   39.0910  137.7830 O.2   147  ARG147     -0.2718
    127  CB       117.3830   40.2130  140.1980 C.3   147  ARG147      0.0321
    128  CG       117.6110   40.3210  141.6880 C.3   147  ARG147      0.0489
    129  CD       116.4190   39.8570  142.5110 C.3   147  ARG147      0.2205
    130  NE       116.8310   39.7720  143.9070 N.pl3 147  ARG147     -0.0865
    131  CZ       117.2560   38.6630  144.5030 C.cat 147  ARG147      0.5346
    132  NH1      117.2910   37.5140  143.8370 N.pl3 147  ARG147      0.1354
    133  NH2      117.6270   38.7010  145.7760 N.pl3 147  ARG147      0.1354
    134  N        118.0200   38.5310  137.3010 N.am  148  ALA148     -0.1980
    135  CA       117.8340   38.7580  135.8710 C.3   148  ALA148      0.1597
    136  C        117.7030   37.4650  135.0850 C.2   148  ALA148      0.2287
    137  O        116.9990   37.4240  134.0790 O.2   148  ALA148     -0.2864
    138  CB       118.9800   39.5840  135.3200 C.3   148  ALA148      0.0319
    139  N        117.9310   37.1950  131.1400 N.3   151  LYS151     -0.1231
    140  CA       117.6290   38.5100  130.5840 C.3   151  LYS151      0.1693
    141  C        118.6290   39.5630  131.0570 C.2   151  LYS151      0.2592
    142  O        118.4140   40.7740  130.8870 O.2   151  LYS151     -0.2718
    143  CB       116.2010   38.9300  130.9660 C.3   151  LYS151      0.0285
    144  CG       115.1450   37.8600  130.7050 C.3   151  LYS151      0.0035
    145  CD       113.7850   38.2660  131.2750 C.3   151  LYS151      0.0206
    146  CE       113.1470   39.3430  130.4270 C.3   151  LYS151      0.1093
    147  NZ       112.0010   40.0250  131.1070 N.3   151  LYS151     -0.1314
    148  N        119.7150   39.0910  131.6590 N.am  152  LEU152     -0.1966
    149  CA       120.7580   39.9660  132.1800 C.3   152  LEU152      0.1728
    150  C        121.3820   40.8120  131.0720 C.2   152  LEU152      0.2616
    151  O        121.6480   40.3040  129.9740 O.2   152  LEU152     -0.2715
    152  CB       121.8390   39.1410  132.8750 C.3   152  LEU152      0.0311
    153  CG       122.9720   39.8900  133.5820 C.3   152  LEU152      0.0022
    154  CD1      122.5180   40.4570  134.9000 C.3   152  LEU152      0.0001
    155  CD2      124.1550   38.9550  133.7810 C.3   152  LEU152      0.0001
    156  N        121.5990   42.0980  131.3530 N.am  153  ARG153     -0.1977
    157  CA       122.2820   42.9810  130.4040 C.3   153  ARG153      0.1597
    158  C        123.4120   43.7520  131.0780 C.2   153  ARG153      0.2287
    159  O        123.2720   44.2130  132.2110 O.2   153  ARG153     -0.2864
    160  CB       121.2940   43.9670  129.7690 C.3   153  ARG153      0.0334
    161  CG       120.1550   43.3150  129.0320 C.3   153  ARG153      0.0492
    162  CD       120.5110   42.9730  127.5900 C.3   153  ARG153      0.2205
    163  NE       119.3360   42.4830  126.8780 N.pl3 153  ARG153     -0.0865
    164  CZ       119.2000   41.2390  126.4300 C.cat 153  ARG153      0.5346
    165  NH1      120.1860   40.3720  126.5870 N.pl3 153  ARG153      0.1354
    166  NH2      118.0960   40.8700  125.7940 N.pl3 153  ARG153      0.1354
@<TRIPOS>BOND
     1   166   164    1
     2   164   165    1
     3   164   163    2
     4   163   162    1
     5   162   161    1
     6   161   160    1
     7     1     2    1
     8   160   157    1
     9     7     6    2
    10   151   150    2
    11     2     3    1
    12     2     5    1
    13   157   158    1
    14   157   156    1
    15   146   147    1
    16   146   145    1
    17   140   143    1
    18   140   141    1
    19   140   139    1
    20     6     8   am
    21     6     5    1
    22     3     4    2
    23   144   143    1
    24   144   145    1
    25     9    10    1
    26   142   141    2
    27   141   148   am
    28   150   156   am
    29   150   149    1
    30   158   159    2
    31    13    10    1
    32    13    14    1
    33   148   149    1
    34    10    11    1
    35   149   152    1
    36   152   153    1
    37    11    15   am
    38    11    12    2
    39    15    16    1
    40   153   155    1
    41   153   154    1
    42   101    99   ar
    43   101   102   ar
    44   137   136    2
    45    99    98   ar
    46   102   100   ar
    47    21    20    1
    48    21    22    1
    49    19    16    1
    50    19    20    1
    51    16    17    1
    52    96    95    2
    53    98   100   ar
    54    98    97    1
    55   136   135    1
    56    17    18    2
    57    97    94    1
    58   138   135    1
    59   115   116    1
    60   115   114    1
    61    95    94    1
    62    23    24    1
    63   135   134    1
    64    94    93    1
    65   116   110    1
    66   114   111    1
    67    27    24    1
    68    27    28    1
    69    24    25    1
    70   134   125   am
    71    93    90   am
    72   103   104    1
    73   110   111    1
    74   110   105   am
    75   113   112    2
    76    91    90    2
    77   126   125    2
    78    86    85    2
    79   120   119    2
    80   111   112    1
    81    82    81    2
    82   112   117   am
    83   125   124    1
    84    90    89    1
    85    28    29   ar
    86    28    30   ar
    87    25    26    2
    88    87    85   am
    89    85    84    1
    90   104   105    1
    91   104   107    1
    92   119   118    1
    93    35    32    1
    94    83    84    1
    95    83    80    1
    96   105   106    2
    97    81    80    1
    98    31    32    1
    99   117   118    1
   100    32    33    1
   101   118   121    1
   102    80    79    1
   103   109   107    1
   104   124   123    1
   105   124   127    1
   106    89    92    1
   107    89    88    1
   108   107   108    1
   109   127   128    1
   110    79    76   am
   111    33    36   am
   112    33    34    2
   113   121   122    1
   114    36    37    1
   115    77    76    2
   116    69    68    2
   117   128   129    1
   118    76    75    1
   119    72    70    1
   120    68    67    1
   121    37    38    1
   122   129   130    1
   123    70    67    1
   124    70    71    1
   125    74    75    1
   126    75    78    1
   127    67    66    1
   128    38    39    2
   129    73    71    1
   130    40    41    1
   131   132   131    1
   132   130   131    2
   133    44    45    1
   134    44    41    1
   135   131   133    1
   136    41    42    1
   137    58    57    2
   138    57    56    1
   139    42    46   am
   140    42    43    2
   141    56    55    1
   142    56    59    1
   143    46    47    1
   144    59    60    1
   145    54    52   ar
   146    60    61    1
   147    52    51    1
   148    52    53   ar
   149    51    50    1
   150    47    50    1
   151    47    48    1
   152    65    63    1
   153    63    64    1
   154    63    62    2
   155    62    61    1
   156    48    49    2
