@<TRIPOS>MOLECULE
tmp/5aqdG01.pdb
 114 107 0 0 0
SMALL
GASTEIGER

@<TRIPOS>ATOM
      1  N         81.6520  115.9250  103.2830 N.3    43  LYS43      -0.1231
      2  CA        82.6860  116.9200  103.5720 C.3    43  LYS43       0.1693
      3  C         84.0880  116.3430  103.4070 C.2    43  LYS43       0.2591
      4  O         84.9980  117.0210  102.9360 O.2    43  LYS43      -0.2718
      5  CB        82.5320  117.4630  104.9890 C.3    43  LYS43       0.0285
      6  CG        83.4980  118.5830  105.3530 C.3    43  LYS43       0.0035
      7  CD        83.1190  119.9250  104.6750 C.3    43  LYS43       0.0206
      8  CE        84.0950  121.0290  105.0760 C.3    43  LYS43       0.1093
      9  NZ        83.5580  122.3920  104.8390 N.3    43  LYS43      -0.1314
     10  N         84.2610  115.0910  103.8170 N.am   44  LEU44      -0.1980
     11  CA        85.5500  114.4340  103.6980 C.3    44  LEU44       0.1596
     12  C         85.8650  114.1180  102.2380 C.2    44  LEU44       0.2287
     13  O         86.9880  114.3140  101.7830 O.2    44  LEU44      -0.2864
     14  CB        85.5760  113.1610  104.5440 C.3    44  LEU44       0.0297
     15  CG        86.9320  112.4590  104.5950 C.3    44  LEU44       0.0022
     16  CD1       88.0090  113.4540  104.9270 C.3    44  LEU44       0.0001
     17  CD2       86.9180  111.3250  105.6250 C.3    44  LEU44       0.0001
     18  N         87.0730  117.1490  100.4540 N.3    47  ASN47      -0.1240
     19  CA        88.2600  117.8590  100.9290 C.3    47  ASN47       0.1653
     20  C         89.3450  116.9580  101.5080 C.2    47  ASN47       0.2266
     21  O         90.1630  117.4040  102.3110 O.2    47  ASN47      -0.2867
     22  CB        87.8370  118.8850  101.9830 C.3    47  ASN47       0.1155
     23  CG        88.7800  120.0650  102.0600 C.2    47  ASN47       0.2627
     24  OD1       89.3670  120.4850  101.0520 O.2    47  ASN47      -0.2716
     25  ND2       88.9490  120.6020  103.2670 N.am   47  ASN47      -0.0877
     26  N         93.2530  118.0720  101.1470 N.3    50  ALA50      -0.1231
     27  CA        93.6300  119.1260  102.0800 C.3    50  ALA50       0.1694
     28  C         93.6620  118.6360  103.5200 C.2    50  ALA50       0.2591
     29  O         94.5570  119.0050  104.2800 O.2    50  ALA50      -0.2718
     30  CB        92.6810  120.3210  101.9530 C.3    50  ALA50       0.0304
     31  N         92.6800  117.8220  103.9040 N.am   51  VAL51      -0.1980
     32  CA        92.6260  117.2840  105.2640 C.3    51  VAL51       0.1595
     33  C         93.8070  116.3550  105.5480 C.2    51  VAL51       0.2287
     34  O         94.3750  116.3780  106.6400 O.2    51  VAL51      -0.2864
     35  CB        91.3010  116.5090  105.5240 C.3    51  VAL51       0.0276
     36  CG1       91.3690  115.7390  106.8340 C.3    51  VAL51       0.0022
     37  CG2       90.0930  117.4540  105.5000 C.3    51  VAL51       0.0022
     38  N         97.3670  118.3870  105.7830 N.3    54  GLU54      -0.1245
     39  CA        97.6830  119.1090  107.0000 C.3    54  GLU54       0.1567
     40  C         97.8890  118.1750  108.2010 C.2    54  GLU54       0.2260
     41  O         98.6320  118.5220  109.1180 O.2    54  GLU54      -0.2867
     42  CB        96.6190  120.1800  107.2930 C.3    54  GLU54       0.0388
     43  CG        95.2450  119.6940  107.6560 C.3    54  GLU54       0.1160
     44  CD        94.3630  120.8320  108.1690 C.2    54  GLU54       0.3649
     45  OE1       94.6890  122.0130  107.9080 O.co2  54  GLU54      -0.2457
     46  OE2       93.3590  120.5470  108.8560 O.co2  54  GLU54      -0.2457
     47  N         91.2890  118.6600  115.2360 N.3   137  ARG137     -0.1231
     48  CA        91.2510  119.7670  114.2890 C.3   137  ARG137      0.1694
     49  C         89.8620  120.3530  114.0260 C.2   137  ARG137      0.2593
     50  O         89.7070  121.5690  113.9130 O.2   137  ARG137     -0.2718
     51  CB        91.8490  119.3060  112.9610 C.3   137  ARG137      0.0321
     52  CG        91.7600  120.3100  111.8330 C.3   137  ARG137      0.0489
     53  CD        92.5070  121.5920  112.1470 C.3   137  ARG137      0.2205
     54  NE        92.9650  122.2620  110.9320 N.pl3 137  ARG137     -0.0865
     55  CZ        93.3190  123.5440  110.8660 C.cat 137  ARG137      0.5346
     56  NH1       93.2490  124.3270  111.9440 N.pl3 137  ARG137      0.1354
     57  NH2       93.7320  124.0490  109.7140 N.pl3 137  ARG137      0.1354
     58  N         88.8680  119.4830  113.8760 N.am  138  GLY138     -0.1942
     59  CA        87.5540  119.9090  113.4350 C.3   138  GLY138      0.2014
     60  C         86.7480  120.6150  114.5060 C.2   138  GLY138      0.2639
     61  O         86.9160  120.3610  115.7000 O.2   138  GLY138     -0.2714
     62  N         85.8840  121.5270  114.0780 N.am  139  CYS139     -0.1967
     63  CA        84.9520  122.1450  114.9980 C.3   139  CYS139      0.1712
     64  C         83.6580  122.4260  114.2740 C.2   139  CYS139      0.2296
     65  O         83.6340  122.6480  113.0660 O.2   139  CYS139     -0.2864
     66  CB        85.5040  123.4340  115.6040 C.3   139  CYS139      0.0983
     67  SG        85.6500  124.7630  114.4230 S.3   139  CYS139     -0.0798
     68  N         81.5620  125.0900  111.9940 N.3   142  ARG142     -0.1231
     69  CA        82.3820  125.5670  110.8730 C.3   142  ARG142      0.1694
     70  C         82.5790  124.4890  109.8050 C.2   142  ARG142      0.2592
     71  O         82.3780  124.7290  108.6170 O.2   142  ARG142     -0.2718
     72  CB        83.7510  126.0610  111.3720 C.3   142  ARG142      0.0321
     73  CG        84.6870  126.5330  110.2690 C.3   142  ARG142      0.0489
     74  CD        86.1270  126.7150  110.7680 C.3   142  ARG142      0.2205
     75  NE        86.9220  127.4810  109.8080 N.pl3 142  ARG142     -0.0865
     76  CZ        87.5660  126.9640  108.7650 C.cat 142  ARG142      0.5346
     77  NH1       87.5290  125.6550  108.5260 N.pl3 142  ARG142      0.1354
     78  NH2       88.2520  127.7600  107.9560 N.pl3 142  ARG142      0.1354
     79  N         82.9470  123.2890  110.2410 N.am  143  ASP143     -0.1960
     80  CA        83.3860  122.2580  109.3120 C.3   143  ASP143      0.1840
     81  C         82.2560  121.3290  108.9030 C.2   143  ASP143      0.2621
     82  O         82.3030  120.7410  107.8250 O.2   143  ASP143     -0.2715
     83  CB        84.5250  121.4470  109.9260 C.3   143  ASP143      0.1450
     84  CG        85.7700  122.2740  110.1590 C.2   143  ASP143      0.3671
     85  OD1       86.1090  123.0880  109.2740 O.co2 143  ASP143     -0.2456
     86  OD2       86.4020  122.1180  111.2220 O.co2 143  ASP143     -0.2456
     87  N         81.2510  121.2230  109.7710 N.am  144  MET144     -0.1977
     88  CA        80.1160  120.3080  109.6170 C.3   144  MET144      0.1605
     89  C         79.3000  120.4280  110.8980 C.2   144  MET144      0.2287
     90  O         79.7160  121.1140  111.8320 O.2   144  MET144     -0.2864
     91  CB        80.5660  118.8510  109.3910 C.3   144  MET144      0.0413
     92  CG        81.4240  118.3010  110.5270 C.3   144  MET144      0.0598
     93  SD        82.0350  116.6120  110.2910 S.3   144  MET144     -0.1393
     94  CE        83.3920  116.9010  109.1520 C.3   144  MET144      0.0692
     95  N         80.3890  115.8370  113.2440 N.3   149  LEU149     -0.1245
     96  CA        81.7510  115.9040  113.7690 C.3   149  LEU149      0.1561
     97  C         81.9900  114.7970  114.7870 C.2   149  LEU149      0.2260
     98  O         83.0940  114.2560  114.8820 O.2   149  LEU149     -0.2867
     99  CB        82.0260  117.2800  114.3920 C.3   149  LEU149      0.0270
    100  CG        83.4050  117.5200  115.0150 C.3   149  LEU149      0.0019
    101  CD1       84.5220  117.1440  114.0480 C.3   149  LEU149      0.0001
    102  CD2       83.5610  118.9730  115.4740 C.3   149  LEU149      0.0001
    103  N         82.7590  111.7140  112.6420 N.3   152  TYR152     -0.1241
    104  CA        84.1070  111.8900  112.0990 C.3   152  TYR152      0.1605
    105  C         85.1660  111.5540  113.1400 C.2   152  TYR152      0.2264
    106  O         86.0860  110.7810  112.8810 O.2   152  TYR152     -0.2867
    107  CB        84.2540  113.3350  111.6220 C.3   152  TYR152      0.0534
    108  CG        85.5600  113.7320  111.0010 C.ar  152  TYR152     -0.0201
    109  CD1       85.9740  113.1710  109.8030 C.ar  152  TYR152     -0.0009
    110  CD2       86.3600  114.7150  111.5800 C.ar  152  TYR152     -0.0009
    111  CE1       87.1500  113.5490  109.2070 C.ar  152  TYR152      0.0417
    112  CE2       87.5520  115.1000  110.9850 C.ar  152  TYR152      0.0417
    113  CZ        87.9400  114.5140  109.7940 C.ar  152  TYR152      0.1957
    114  OH        89.1190  114.8750  109.1730 O.3   152  TYR152     -0.2866
@<TRIPOS>BOND
     1    18    19    1
     2    19    20    1
     3    19    22    1
     4    24    23    2
     5    26    27    1
     6    20    21    2
     7    13    12    2
     8    30    27    1
     9    22    23    1
    10    23    25   am
    11    27    28    1
    12    12    11    1
    13     4     3    2
    14     1     2    1
    15     3     2    1
    16     3    10   am
    17    28    31   am
    18    28    29    2
    19     2     5    1
    20    11    10    1
    21    11    14    1
    22    31    32    1
    23    14    15    1
    24    15    16    1
    25    15    17    1
    26     7     8    1
    27     7     6    1
    28     9     8    1
    29     5     6    1
    30    32    35    1
    31    32    33    1
    32    37    35    1
    33    35    36    1
    34    33    34    2
    35    38    39    1
    36    39    42    1
    37    39    40    1
    38    42    43    1
    39    43    44    1
    40    82    81    2
    41    45    44   ar
    42    78    76    1
    43    44    46   ar
    44    40    41    2
    45    77    76    1
    46    71    70    2
    47    76    75    2
    48    81    80    1
    49    81    87   am
    50    94    93    1
    51   114   113    1
    52   111   113   ar
    53   111   109   ar
    54    85    84   ar
    55    80    83    1
    56    80    79    1
    57    91    88    1
    58    91    92    1
    59    88    87    1
    60    88    89    1
    61    57    55    1
    62   113   112   ar
    63   109   108   ar
    64    70    79   am
    65    70    69    1
    66    75    74    1
    67    83    84    1
    68    84    86   ar
    69    73    74    1
    70    73    72    1
    71    93    92    1
    72    55    54    2
    73    55    56    1
    74    69    72    1
    75    69    68    1
    76    89    90    2
    77    54    53    1
    78   112   110   ar
    79   108   110   ar
    80   108   107    1
    81   107   104    1
    82    52    53    1
    83    52    51    1
    84   104   103    1
    85   104   105    1
    86   106   105    2
    87    51    48    1
    88    65    64    2
    89    95    96    1
    90    59    58    1
    91    59    60    1
    92    96    99    1
    93    96    97    1
    94    58    49   am
    95    50    49    2
    96    49    48    1
    97   101   100    1
    98    62    60   am
    99    62    63    1
   100    64    63    1
   101    48    47    1
   102    99   100    1
   103    67    66    1
   104    60    61    2
   105    97    98    2
   106    63    66    1
   107   100   102    1
