@<TRIPOS>MOLECULE
tmp/5aqeA00.pdb
 111 106 0 0 0
SMALL
GASTEIGER

@<TRIPOS>ATOM
      1  N         15.0740  -24.7560  -15.2070 N.3    62  HIS62      -0.1241
      2  CA        14.2890  -25.6680  -14.3830 C.3    62  HIS62       0.1621
      3  C         13.0440  -25.0330  -13.8180 C.2    62  HIS62       0.2264
      4  O         11.9800  -25.6600  -13.7980 O.2    62  HIS62      -0.2867
      5  CB        15.1300  -26.2290  -13.2390 C.3    62  HIS62       0.0745
      6  CG        15.8580  -27.4740  -13.6030 C.ar   62  HIS62       0.0817
      7  ND1       16.7830  -27.5500  -14.6100 N.ar   62  HIS62      -0.2268
      8  CD2       15.6620  -28.7410  -13.1750 C.ar   62  HIS62       0.1154
      9  CE1       17.2270  -28.7960  -14.7160 C.ar   62  HIS62       0.1986
     10  NE2       16.5310  -29.5450  -13.8720 N.ar   62  HIS62      -0.2212
     11  N         11.1860  -28.0100   -5.8210 N.3   123  SER123     -0.1202
     12  CA        11.8500  -29.0550   -6.6090 C.3   123  SER123      0.2020
     13  C         13.3710  -28.9230   -6.4080 C.2   123  SER123      0.2619
     14  O         14.1160  -28.5570   -7.3160 O.2   123  SER123     -0.2717
     15  CB        11.4630  -28.9370   -8.0640 C.3   123  SER123      0.2103
     16  OG        10.1360  -29.3830   -8.2480 O.3   123  SER123     -0.2182
     17  N         13.8020  -29.2010   -5.1800 N.am  124  LEU124     -0.1965
     18  CA        15.1580  -28.9130   -4.7260 C.3   124  LEU124      0.1728
     19  C         15.4180  -29.6680   -3.4710 C.2   124  LEU124      0.2617
     20  O         14.4790  -30.1200   -2.7880 O.2   124  LEU124     -0.2715
     21  CB        15.3590  -27.3880   -4.5430 C.3   124  LEU124      0.0311
     22  CG        14.4310  -26.6900   -3.5650 C.3   124  LEU124      0.0022
     23  CD1       14.8190  -26.9070   -2.1000 C.3   124  LEU124      0.0001
     24  CD2       14.3630  -25.1840   -3.8300 C.3   124  LEU124      0.0001
     25  N         16.7050  -29.7670   -3.0860 N.am  125  GLY125     -0.1940
     26  CA        17.0490  -30.3300   -1.8000 C.3   125  GLY125      0.2014
     27  C         18.4660  -30.8110   -1.7440 C.2   125  GLY125      0.2639
     28  O         19.2700  -30.5700   -2.6540 O.2   125  GLY125     -0.2714
     29  N         18.7750  -31.4490   -0.6230 N.am  126  SER126     -0.1949
     30  CA        20.1050  -31.8750   -0.2460 C.3   126  SER126      0.1924
     31  C         20.0050  -33.1030    0.6150 C.2   126  SER126      0.2314
     32  O         19.0610  -33.2270    1.3760 O.2   126  SER126     -0.2863
     33  CB        20.7880  -30.7660    0.6640 C.3   126  SER126      0.2116
     34  OG        21.9390  -31.2520    1.2630 O.3   126  SER126     -0.2180
     35  N         10.5750  -32.2950   -3.5770 N.3   150  ALA150     -0.1245
     36  CA        11.1100  -33.4600   -4.2820 C.3   150  ALA150      0.1562
     37  C         11.8880  -34.3670   -3.3690 C.2   150  ALA150      0.2260
     38  O         12.7010  -33.9260   -2.5410 O.2   150  ALA150     -0.2867
     39  CB        12.0320  -32.9460   -5.3670 C.3   150  ALA150      0.0290
     40  N         14.3920  -36.3380   -4.1450 N.3   152  GLY152     -0.1210
     41  CA        15.7790  -36.3800   -4.5330 C.3   152  GLY152      0.1956
     42  C         16.0780  -37.4700   -5.5430 C.2   152  GLY152      0.2611
     43  O         15.3120  -38.4030   -5.7360 O.2   152  GLY152     -0.2717
     44  N         17.2250  -37.3080   -6.2070 N.am  153  ASN153     -0.1974
     45  CA        17.5750  -38.1340   -7.3570 C.3   153  ASN153      0.1688
     46  C         18.7620  -39.0570   -7.1440 C.2   153  ASN153      0.2292
     47  O         19.3500  -39.5210   -8.1180 O.2   153  ASN153     -0.2864
     48  CB        17.8090  -37.2770   -8.5890 C.3   153  ASN153      0.1181
     49  CG        16.6690  -36.3520   -8.8570 C.2   153  ASN153      0.2629
     50  OD1       15.4960  -36.7080   -8.7420 O.2   153  ASN153     -0.2716
     51  ND2       16.9970  -35.1480   -9.2020 N.am  153  ASN153     -0.0877
     52  N         15.7310  -36.9010    0.7940 N.3   160  SER160     -0.1202
     53  CA        16.5260  -35.7400    1.1180 C.3   160  SER160      0.2020
     54  C         15.6550  -34.6330    1.7160 C.2   160  SER160      0.2618
     55  O         14.4360  -34.7540    1.8750 O.2   160  SER160     -0.2717
     56  CB        17.2300  -35.3520   -0.1370 C.3   160  SER160      0.2103
     57  OG        18.3570  -36.1780   -0.3080 O.3   160  SER160     -0.2182
     58  N         16.3500  -33.5700    2.1320 N.am  161  TYR161     -0.1975
     59  CA        15.7700  -32.4530    2.8430 C.3   161  TYR161      0.1639
     60  C         15.6000  -31.2660    1.8900 C.2   161  TYR161      0.2290
     61  O         16.4900  -31.0120    1.0760 O.2   161  TYR161     -0.2864
     62  CB        16.6890  -32.0350    4.0110 C.3   161  TYR161      0.0560
     63  CG        16.8330  -33.1310    5.0570 C.ar  161  TYR161     -0.0198
     64  CD1       17.7930  -34.1170    4.9250 C.ar  161  TYR161     -0.0009
     65  CD2       15.9960  -33.1770    6.1600 C.ar  161  TYR161     -0.0009
     66  CE1       17.9030  -35.1340    5.8530 C.ar  161  TYR161      0.0417
     67  CE2       16.1110  -34.1860    7.1100 C.ar  161  TYR161      0.0417
     68  CZ        17.0510  -35.1770    6.9490 C.ar  161  TYR161      0.1957
     69  OH        17.1350  -36.1770    7.8770 O.3   161  TYR161     -0.2866
     70  N         14.4610  -41.0830   -4.9270 N.3   185  GLN185     -0.1245
     71  CA        14.6670  -41.4660   -3.5380 C.3   185  GLN185      0.1566
     72  C         13.3620  -41.8800   -2.8930 C.2   185  GLN185      0.2260
     73  O         12.2700  -41.3750   -3.2270 O.2   185  GLN185     -0.2867
     74  CB        15.3600  -40.3510   -2.7790 C.3   185  GLN185      0.0367
     75  CG        16.8240  -40.2410   -3.2020 C.3   185  GLN185      0.0905
     76  CD        17.5600  -39.0640   -2.6350 C.2   185  GLN185      0.2608
     77  OE1       18.0970  -38.2410   -3.3800 O.2   185  GLN185     -0.2717
     78  NE2       17.6180  -38.9710   -1.3130 N.am  185  GLN185     -0.0878
     79  N         14.0220  -35.0670  -16.7850 N.3   212  ASN212     -0.1225
     80  CA        13.7790  -36.1480  -15.8390 C.3   212  ASN212      0.1785
     81  C         14.1570  -35.6960  -14.4370 C.2   212  ASN212      0.2598
     82  O         15.1680  -35.0100  -14.2580 O.2   212  ASN212     -0.2718
     83  CB        14.6810  -37.3480  -16.1360 C.3   212  ASN212      0.1169
     84  CG        14.5380  -37.8670  -17.5460 C.2   212  ASN212      0.2627
     85  OD1       13.5350  -37.7650  -18.2000 O.2   212  ASN212     -0.2716
     86  ND2       15.6490  -38.3080  -18.0850 N.am  212  ASN212     -0.0877
     87  N         13.4090  -36.1440  -13.4410 N.am  213  GLY213     -0.1942
     88  CA        13.7930  -35.9150  -12.0800 C.3   213  GLY213      0.2014
     89  C         12.6160  -35.9220  -11.1290 C.2   213  GLY213      0.2640
     90  O         11.4510  -35.7350  -11.5270 O.2   213  GLY213     -0.2714
     91  N         12.9180  -36.0690   -9.8320 N.am  214  THR214     -0.1936
     92  CA        11.8870  -35.8190   -8.8340 C.3   214  THR214      0.2028
     93  C         11.4350  -34.3720   -8.8550 C.2   214  THR214      0.2643
     94  O         10.3130  -34.0620   -8.4260 O.2   214  THR214     -0.2714
     95  CB        12.3040  -36.2930   -7.4430 C.3   214  THR214      0.1808
     96  OG1       13.4760  -35.6060   -6.9970 O.3   214  THR214     -0.2208
     97  CG2       12.4890  -37.7960   -7.3660 C.3   214  THR214      0.0379
     98  N         12.2410  -33.4810   -9.4340 N.am  215  SER215     -0.1935
     99  CA        11.8020  -32.1040   -9.6600 C.3   215  SER215      0.2055
    100  C         10.6070  -31.9730  -10.5760 C.2   215  SER215      0.2642
    101  O          9.8970  -30.9650  -10.4890 O.2   215  SER215     -0.2714
    102  CB        12.9220  -31.2930  -10.3260 C.3   215  SER215      0.2130
    103  OG        14.0670  -31.1860   -9.5330 O.3   215  SER215     -0.2179
    104  N         10.4170  -32.9390  -11.4800 N.am  216  MET216     -0.1976
    105  CA         9.3240  -32.9600  -12.4390 C.3   216  MET216      0.1605
    106  C          8.0840  -33.6160  -11.8420 C.2   216  MET216      0.2287
    107  O          6.9520  -33.3030  -12.2220 O.2   216  MET216     -0.2864
    108  CB         9.7250  -33.7100  -13.6980 C.3   216  MET216      0.0413
    109  CG        10.6920  -32.9990  -14.6300 C.3   216  MET216      0.0598
    110  SD        12.3360  -32.6350  -13.9960 S.3   216  MET216     -0.1393
    111  CE        12.1660  -30.8580  -13.7540 C.3   216  MET216      0.0692
@<TRIPOS>BOND
     1    85    84    2
     2    86    84   am
     3    84    83    1
     4    79    80    1
     5    83    80    1
     6    80    81    1
     7     1     2    1
     8     9     7   ar
     9     9    10   ar
    10   109   110    1
    11   109   108    1
    12     7     6   ar
    13    81    82    2
    14    81    87   am
    15     2     3    1
    16     2     5    1
    17   110   111    1
    18    10     8   ar
    19     3     4    2
    20   108   105    1
    21     6     5    1
    22     6     8   ar
    23    87    88    1
    24   105   106    1
    25   105   104    1
    26   107   106    2
    27    88    89    1
    28    90    89    2
    29   104   100   am
    30    89    91   am
    31   100   101    2
    32   100    99    1
    33   102    99    1
    34   102   103    1
    35    91    92    1
    36    99    98    1
    37    98    93   am
    38    51    49   am
    39    49    50    2
    40    49    48    1
    41    93    92    1
    42    93    94    2
    43    92    95    1
    44    48    45    1
    45    16    15    1
    46    47    46    2
    47    15    12    1
    48    95    97    1
    49    95    96    1
    50    45    46    1
    51    45    44    1
    52    14    13    2
    53    12    13    1
    54    12    11    1
    55    13    17   am
    56    44    42   am
    57    43    42    2
    58    42    41    1
    59    39    36    1
    60    17    18    1
    61    70    71    1
    62    18    21    1
    63    18    19    1
    64    21    22    1
    65    41    40    1
    66    36    35    1
    67    36    37    1
    68    24    22    1
    69    22    23    1
    70    71    72    1
    71    71    74    1
    72    19    25   am
    73    19    20    2
    74    77    76    2
    75    37    38    2
    76    73    72    2
    77    75    74    1
    78    75    76    1
    79    25    26    1
    80    28    27    2
    81    76    78   am
    82    26    27    1
    83    27    29   am
    84    29    30    1
    85    57    56    1
    86    30    31    1
    87    30    33    1
    88    56    53    1
    89    31    32    2
    90    33    34    1
    91    52    53    1
    92    61    60    2
    93    53    54    1
    94    54    55    2
    95    54    58   am
    96    60    59    1
    97    58    59    1
    98    59    62    1
    99    62    63    1
   100    64    63   ar
   101    64    66   ar
   102    63    65   ar
   103    66    68   ar
   104    65    67   ar
   105    68    67   ar
   106    68    69    1
