@<TRIPOS>MOLECULE
tmp/5aqgA00.pdb
 126 117 0 0 0
SMALL
GASTEIGER

@<TRIPOS>ATOM
      1  N         27.1100    1.6750   46.1160 N.3    14  THR14      -0.1203
      2  CA        28.1080    0.8550   45.4200 C.3    14  THR14       0.1994
      3  C         27.7770   -0.6320   45.4910 C.2    14  THR14       0.2617
      4  O         28.2060   -1.3840   44.6170 O.2    14  THR14      -0.2717
      5  CB        29.5090    1.1980   45.9540 C.3    14  THR14       0.1784
      6  OG1       29.5250    0.9750   47.3680 O.3    14  THR14      -0.2211
      7  CG2       29.9070    2.6640   45.6720 C.3    14  THR14       0.0376
      8  N         27.0260   -1.0550   46.5340 N.am   15  TYR15      -0.1975
      9  CA        26.5860   -2.4240   46.7490 C.3    15  TYR15       0.1639
     10  C         25.1290   -2.4930   47.1760 C.2    15  TYR15       0.2290
     11  O         24.6530   -1.6250   47.8910 O.2    15  TYR15      -0.2864
     12  CB        27.4570   -3.1270   47.7910 C.3    15  TYR15       0.0560
     13  CG        28.8170   -3.5100   47.2520 C.ar   15  TYR15      -0.0198
     14  CD1       29.8880   -2.6240   47.3120 C.ar   15  TYR15      -0.0009
     15  CD2       29.0380   -4.7590   46.6810 C.ar   15  TYR15      -0.0009
     16  CE1       31.1390   -2.9620   46.7930 C.ar   15  TYR15       0.0417
     17  CE2       30.2900   -5.1130   46.1740 C.ar   15  TYR15       0.0417
     18  CZ        31.3370   -4.2090   46.2300 C.ar   15  TYR15       0.1957
     19  OH        32.5710   -4.5440   45.7220 O.3    15  TYR15      -0.2866
     20  N         30.3630    3.2880   55.2580 N.3   201  GLY201     -0.1210
     21  CA        30.6440    2.4210   54.1130 C.3   201  GLY201      0.1956
     22  C         32.0300    2.5810   53.4810 C.2   201  GLY201      0.2612
     23  O         33.0030    2.9600   54.1390 O.2   201  GLY201     -0.2717
     24  N         32.1230    2.2720   52.1950 N.am  202  GLY202     -0.1956
     25  CA        33.3760    2.4040   51.4600 C.3   202  GLY202      0.1869
     26  C         33.6520    3.8140   50.9750 C.2   202  GLY202      0.2309
     27  O         34.8180    4.1820   50.7550 O.2   202  GLY202     -0.2863
     28  N         35.8040    3.4960   53.9000 N.3   230  GLY230     -0.1210
     29  CA        36.8800    2.5130   53.8830 C.3   230  GLY230      0.1956
     30  C         37.9520    2.8220   52.8600 C.2   230  GLY230      0.2611
     31  O         39.1350    2.6710   53.1710 O.2   230  GLY230     -0.2717
     32  N         37.5610    3.3040   51.6430 N.am  231  GLU231     -0.1979
     33  CA        38.5020    3.6480   50.5560 C.3   231  GLU231      0.1602
     34  C         39.5450    4.6840   50.9930 C.2   231  GLU231      0.2287
     35  O         40.6810    4.5850   50.5540 O.2   231  GLU231     -0.2864
     36  CB        37.7690    4.0940   49.2850 C.3   231  GLU231      0.0415
     37  CG        38.6640    4.3490   48.0890 C.3   231  GLU231      0.1163
     38  CD        39.3510    3.0930   47.5850 C.2   231  GLU231      0.3649
     39  OE1       38.7660    1.9940   47.7360 O.co2 231  GLU231     -0.2457
     40  OE2       40.4750    3.2100   47.0450 O.co2 231  GLU231     -0.2457
     41  N         42.2200    2.8210   52.9330 N.3   234  ASP234     -0.1239
     42  CA        43.0760    2.0640   52.0080 C.3   234  ASP234      0.1674
     43  C         44.1210    2.9870   51.4220 C.2   234  ASP234      0.2266
     44  O         45.2800    2.5850   51.3180 O.2   234  ASP234     -0.2867
     45  CB        42.2580    1.4890   50.8420 C.3   234  ASP234      0.1410
     46  CG        41.2640    0.4400   51.2360 C.2   234  ASP234      0.3668
     47  OD1       41.4390   -0.1590   52.3040 O.co2 234  ASP234     -0.2456
     48  OD2       40.3240    0.2010   50.4580 O.co2 234  ASP234     -0.2456
     49  N         43.7730   -3.4540   50.9960 N.3   268  GLU268     -0.1245
     50  CA        42.3620   -3.6100   51.3560 C.3   268  GLU268      0.1567
     51  C         42.1590   -4.9330   52.1070 C.2   268  GLU268      0.2260
     52  O         41.4680   -4.9430   53.1260 O.2   268  GLU268     -0.2867
     53  CB        41.4720   -3.5290   50.1000 C.3   268  GLU268      0.0388
     54  CG        39.9840   -3.3700   50.3920 C.3   268  GLU268      0.1160
     55  CD        39.2390   -4.6650   50.6810 C.2   268  GLU268      0.3649
     56  OE1       39.4650   -5.6570   49.9540 O.co2 268  GLU268     -0.2457
     57  OE2       38.4200   -4.6880   51.6290 O.co2 268  GLU268     -0.2457
     58  N         43.8850   -4.7630   55.5120 N.3   271  LYS271     -0.1231
     59  CA        43.0400   -3.9420   56.3840 C.3   271  LYS271      0.1693
     60  C         41.9920   -4.8370   57.0620 C.2   271  LYS271      0.2591
     61  O         41.8590   -4.7780   58.2850 O.2   271  LYS271     -0.2718
     62  CB        42.3600   -2.8100   55.5930 C.3   271  LYS271      0.0285
     63  CG        41.2860   -2.0480   56.3820 C.3   271  LYS271      0.0035
     64  CD        40.5660   -0.9920   55.5410 C.3   271  LYS271      0.0206
     65  CE        39.6470   -1.6070   54.4980 C.3   271  LYS271      0.1093
     66  NZ        38.9710   -0.5620   53.6890 N.3   271  LYS271     -0.1314
     67  N         41.3090   -5.7060   56.2720 N.am  272  ARG272     -0.1980
     68  CA        40.2990   -6.6540   56.7780 C.3   272  ARG272      0.1597
     69  C         40.8810   -7.6240   57.8070 C.2   272  ARG272      0.2287
     70  O         40.2600   -7.8680   58.8270 O.2   272  ARG272     -0.2864
     71  CB        39.6320   -7.4060   55.6200 C.3   272  ARG272      0.0334
     72  CG        38.6890   -6.5260   54.7750 C.3   272  ARG272      0.0492
     73  CD        37.7660   -7.3490   53.8970 C.3   272  ARG272      0.2205
     74  NE        38.3200   -7.5600   52.5610 N.pl3 272  ARG272     -0.0865
     75  CZ        38.9380   -8.6730   52.1650 C.cat 272  ARG272      0.5346
     76  NH1       39.0350   -9.7170   52.9840 N.pl3 272  ARG272      0.1354
     77  NH2       39.4260   -8.7660   50.9360 N.pl3 272  ARG272      0.1354
     78  N         41.2360   -6.2930   61.3710 N.3   275  SER275     -0.1202
     79  CA        40.0110   -6.1930   62.1800 C.3   275  SER275      0.2020
     80  C         39.9080   -7.3710   63.1740 C.2   275  SER275      0.2619
     81  O         39.1870   -7.2730   64.1760 O.2   275  SER275     -0.2717
     82  CB        38.7820   -6.1190   61.2900 C.3   275  SER275      0.2103
     83  OG        38.8430   -4.9400   60.5020 O.3   275  SER275     -0.2182
     84  N         40.6710   -8.4560   62.9250 N.am  276  SER276     -0.1951
     85  CA        40.6990   -9.6450   63.7870 C.3   276  SER276      0.1924
     86  C         42.1000   -9.9840   64.3120 C.2   276  SER276      0.2314
     87  O         42.1940  -10.5270   65.4010 O.2   276  SER276     -0.2863
     88  CB        40.0550  -10.8430   63.0990 C.3   276  SER276      0.2116
     89  OG        40.4720  -10.9560   61.7490 O.3   276  SER276     -0.2180
     90  N         30.4380   -1.8190   56.2340 N.3   339  GLY339     -0.1210
     91  CA        31.6000   -2.7020   56.3470 C.3   339  GLY339      0.1956
     92  C         32.7070   -2.2000   57.2370 C.2   339  GLY339      0.2612
     93  O         33.2640   -2.9690   58.0140 O.2   339  GLY339     -0.2717
     94  N         32.9940   -0.8960   57.1550 N.am  340  SER340     -0.1952
     95  CA        34.0650   -0.2240   57.8890 C.3   340  SER340      0.1924
     96  C         33.8490   -0.1090   59.3820 C.2   340  SER340      0.2314
     97  O         34.8300    0.1350   60.0740 O.2   340  SER340     -0.2863
     98  CB        34.3440    1.1460   57.2920 C.3   340  SER340      0.2116
     99  OG        34.6780    1.0050   55.9210 O.3   340  SER340     -0.2180
    100  N         33.4740   -2.4870   61.2900 N.3   342  ARG342     -0.1231
    101  CA        34.1530   -3.6680   61.7960 C.3   342  ARG342      0.1694
    102  C         35.5290   -3.3070   62.3590 C.2   342  ARG342      0.2591
    103  O         36.1180   -4.1200   63.0610 O.2   342  ARG342     -0.2718
    104  CB        34.3100   -4.6890   60.6760 C.3   342  ARG342      0.0321
    105  CG        33.0400   -5.4830   60.3610 C.3   342  ARG342      0.0489
    106  CD        33.3730   -6.7100   59.5530 C.3   342  ARG342      0.2205
    107  NE        32.1990   -7.3640   58.9760 N.pl3 342  ARG342     -0.0865
    108  CZ        31.6050   -7.0140   57.8310 C.cat 342  ARG342      0.5346
    109  NH1       32.0450   -5.9820   57.1310 N.pl3 342  ARG342      0.1354
    110  NH2       30.5530   -7.6820   57.3940 N.pl3 342  ARG342      0.1354
    111  N         36.0510   -2.1150   62.0440 N.am  343  ILE343     -0.1980
    112  CA        37.3610   -1.6430   62.5010 C.3   343  ILE343      0.1595
    113  C         37.3490   -1.4810   64.0360 C.2   343  ILE343      0.2287
    114  O         36.5640   -0.6800   64.5520 O.2   343  ILE343     -0.2864
    115  CB        37.8750   -0.3720   61.7270 C.3   343  ILE343      0.0276
    116  CG1       37.9270   -0.6480   60.1900 C.3   343  ILE343      0.0022
    117  CG2       39.2560    0.0890   62.2490 C.3   343  ILE343      0.0022
    118  CD1       38.0260    0.5720   59.3190 C.3   343  ILE343      0.0001
    119  N         27.0820   -4.8830   56.9580 N.3   366  ASP366     -0.1239
    120  CA        26.8170   -4.7380   55.5100 C.3   366  ASP366      0.1674
    121  C         25.4070   -5.2010   55.1450 C.2   366  ASP366      0.2266
    122  O         24.8920   -4.7990   54.1000 O.2   366  ASP366     -0.2867
    123  CB        27.8190   -5.5940   54.6990 C.3   366  ASP366      0.1410
    124  CG        29.1840   -4.9630   54.5120 C.2   366  ASP366      0.3668
    125  OD1       29.2560   -3.7180   54.4290 O.co2 366  ASP366     -0.2456
    126  OD2       30.1680   -5.7140   54.3640 O.co2 366  ASP366     -0.2456
@<TRIPOS>BOND
     1     4     3    2
     2     2     3    1
     3     2     5    1
     4     2     1    1
     5     3     8   am
     6     7     5    1
     7    19    18    1
     8     5     6    1
     9    17    18   ar
    10    17    15   ar
    11    18    16   ar
    12     8     9    1
    13    15    13   ar
    14     9    10    1
    15     9    12    1
    16    16    14   ar
    17    40    38   ar
    18    10    11    2
    19    13    14   ar
    20    13    12    1
    21    38    39   ar
    22    38    37    1
    23    37    36    1
    24    36    33    1
    25    56    55   ar
    26    53    54    1
    27    53    50    1
    28    54    55    1
    29    48    46   ar
    30    35    34    2
    31    33    34    1
    32    33    32    1
    33    55    57   ar
    34    27    26    2
    35    45    46    1
    36    45    42    1
    37    77    75    1
    38    26    25    1
    39    49    50    1
    40    46    47   ar
    41    44    43    2
    42    50    51    1
    43    43    42    1
    44    25    24    1
    45    32    30   am
    46    42    41    1
    47    51    52    2
    48    75    74    2
    49    75    76    1
    50    24    22   am
    51    74    73    1
    52    30    31    2
    53    30    29    1
    54    22    21    1
    55    22    23    2
    56    66    65    1
    57    29    28    1
    58    73    72    1
    59   122   121    2
    60    21    20    1
    61   126   124   ar
    62   125   124   ar
    63    65    64    1
    64   124   123    1
    65   123   120    1
    66    72    71    1
    67   121   120    1
    68   120   119    1
    69    58    59    1
    70    64    63    1
    71    62    63    1
    72    62    59    1
    73    71    68    1
    74    99    98    1
    75    90    91    1
    76    67    68    1
    77    67    60   am
    78    91    92    1
    79    59    60    1
    80    68    69    1
    81    60    61    2
    82   109   108    1
    83    94    92   am
    84    94    95    1
    85    92    93    2
    86    98    95    1
    87   110   108    1
    88    69    70    2
    89   108   107    2
    90    95    96    1
    91   107   106    1
    92   118   116    1
    93    96    97    2
    94   106   105    1
    95   116   115    1
    96   105   104    1
    97    83    82    1
    98   104   101    1
    99   100   101    1
   100    82    79    1
   101    78    79    1
   102   115   117    1
   103   115   112    1
   104    89    88    1
   105   101   102    1
   106   111   102   am
   107   111   112    1
   108    79    80    1
   109   102   103    2
   110   112   113    1
   111    84    80   am
   112    84    85    1
   113    88    85    1
   114    80    81    2
   115    85    86    1
   116   113   114    2
   117    86    87    2
