@<TRIPOS>MOLECULE
tmp/5aqhA00.pdb
 82 75 0 0 0
SMALL
GASTEIGER

@<TRIPOS>ATOM
      1  N         -4.2570   -2.2360   32.9370 N.3   230  GLY230     -0.1225
      2  CA        -4.1780   -1.3380   34.0810 C.3   230  GLY230      0.1811
      3  C         -5.0060   -1.7320   35.2850 C.2   230  GLY230      0.2280
      4  O         -4.5810   -1.4990   36.4160 O.2   230  GLY230     -0.2866
      5  N         -5.7910    4.1630   41.1170 N.3   268  GLU268     -0.1245
      6  CA        -5.6680    4.3740   39.6690 C.3   268  GLU268      0.1567
      7  C         -4.9080    5.6970   39.3890 C.2   268  GLU268      0.2260
      8  O         -4.0460    5.7280   38.5180 O.2   268  GLU268     -0.2867
      9  CB        -7.0540    4.3390   39.0230 C.3   268  GLU268      0.0388
     10  CG        -7.0380    4.2950   37.4890 C.3   268  GLU268      0.1160
     11  CD        -6.7410    5.5690   36.7130 C.2   268  GLU268      0.3649
     12  OE1       -6.9310    6.6740   37.2710 O.co2 268  GLU268     -0.2457
     13  OE2       -6.3280    5.4600   35.5350 O.co2 268  GLU268     -0.2457
     14  N         -1.1210    5.2740   40.6170 N.3   271  LYS271     -0.1231
     15  CA        -0.3680    4.5370   39.6040 C.3   271  LYS271      0.1693
     16  C          0.1100    5.4980   38.5020 C.2   271  LYS271      0.2591
     17  O          1.2620    5.3840   38.0540 O.2   271  LYS271     -0.2718
     18  CB        -1.2430    3.4310   39.0300 C.3   271  LYS271      0.0285
     19  CG        -0.5820    2.5950   37.9470 C.3   271  LYS271      0.0035
     20  CD        -1.5780    1.7380   37.2490 C.3   271  LYS271      0.0206
     21  CE        -2.6010    2.5700   36.4970 C.3   271  LYS271      0.1093
     22  NZ        -3.5590    1.6840   35.8240 N.3   271  LYS271     -0.1314
     23  N         -0.7600    6.4380   38.0710 N.am  272  ARG272     -0.1980
     24  CA        -0.3990    7.4520   37.0620 C.3   272  ARG272      0.1597
     25  C          0.7320    8.3530   37.5720 C.2   272  ARG272      0.2287
     26  O          1.7390    8.4860   36.8880 O.2   272  ARG272     -0.2864
     27  CB        -1.6160    8.2470   36.5870 C.3   272  ARG272      0.0334
     28  CG        -2.5420    7.4040   35.7180 C.3   272  ARG272      0.0492
     29  CD        -3.6200    8.2400   35.0680 C.3   272  ARG272      0.2205
     30  NE        -4.8320    8.3230   35.8860 N.pl3 272  ARG272     -0.0865
     31  CZ        -5.2280    9.4100   36.5390 C.cat 272  ARG272      0.5346
     32  NH1       -4.5050   10.5230   36.4930 N.pl3 272  ARG272      0.1354
     33  NH2       -6.3530    9.3950   37.2380 N.pl3 272  ARG272      0.1354
     34  N          4.3040    6.9350   37.4230 N.3   275  SER275     -0.1202
     35  CA         4.9540    6.8640   36.1180 C.3   275  SER275      0.2020
     36  C          5.8940    8.0550   35.9260 C.2   275  SER275      0.2619
     37  O          6.8300    7.9570   35.1350 O.2   275  SER275     -0.2717
     38  CB         3.9330    6.7860   34.9890 C.3   275  SER275      0.2103
     39  OG         3.3370    5.5020   34.9870 O.3   275  SER275     -0.2182
     40  N          5.6800    9.1530   36.6770 N.am  276  SER276     -0.1951
     41  CA         6.5150   10.3570   36.5850 C.3   276  SER276      0.1924
     42  C          7.2150   10.7390   37.9040 C.2   276  SER276      0.2314
     43  O          8.1360   11.5550   37.8800 O.2   276  SER276     -0.2863
     44  CB         5.7010   11.5320   36.0480 C.3   276  SER276      0.2116
     45  OG         5.2530   11.2690   34.7270 O.3   276  SER276     -0.2180
     46  N         -1.7790    2.6850   27.0780 N.3   339  GLY339     -0.1210
     47  CA        -1.5650    3.4500   28.3040 C.3   339  GLY339      0.1956
     48  C         -0.6430    2.8460   29.3390 C.2   339  GLY339      0.2612
     49  O          0.0890    3.5840   30.0010 O.2   339  GLY339     -0.2717
     50  N         -0.6600    1.5120   29.5010 N.am  340  SER340     -0.1952
     51  CA         0.2010    0.8860   30.5130 C.3   340  SER340      0.1924
     52  C          1.6980    0.7960   30.0980 C.2   340  SER340      0.2314
     53  O          2.5480    0.5020   30.9470 O.2   340  SER340     -0.2863
     54  CB        -0.3390   -0.4730   30.9420 C.3   340  SER340      0.2116
     55  OG        -1.7330   -0.4950   31.1970 O.3   340  SER340     -0.2180
     56  N          3.4610    3.2400   29.5820 N.3   342  ARG342     -0.1231
     57  CA         3.9820    4.4200   30.2520 C.3   342  ARG342      0.1694
     58  C          4.6980    3.9840   31.5360 C.2   342  ARG342      0.2591
     59  O          5.5170    4.7410   32.0490 O.2   342  ARG342     -0.2718
     60  CB         2.8390    5.3820   30.6080 C.3   342  ARG342      0.0321
     61  CG         2.3010    6.2260   29.4500 C.3   342  ARG342      0.0489
     62  CD         1.4530    7.3880   29.9670 C.3   342  ARG342      0.2205
     63  NE         0.9220    8.2420   28.8950 N.pl3 342  ARG342     -0.0865
     64  CZ        -0.2620    8.0570   28.3200 C.cat 342  ARG342      0.5346
     65  NH1       -1.0490    7.0630   28.7100 N.pl3 342  ARG342      0.1354
     66  NH2       -0.6690    8.8650   27.3520 N.pl3 342  ARG342      0.1354
     67  N          4.3900    2.7780   32.0580 N.am  343  ILE343     -0.1980
     68  CA         4.9900    2.2630   33.3020 C.3   343  ILE343      0.1595
     69  C          6.5100    2.0820   33.1330 C.2   343  ILE343      0.2287
     70  O          6.9130    1.3120   32.2580 O.2   343  ILE343     -0.2864
     71  CB         4.2590    0.9890   33.8490 C.3   343  ILE343      0.0276
     72  CG1        2.7770    1.3190   34.2190 C.3   343  ILE343      0.0022
     73  CG2        4.9990    0.3940   35.0710 C.3   343  ILE343      0.0022
     74  CD1        1.8110    0.1190   34.3560 C.3   343  ILE343      0.0001
     75  N         -1.7100    5.9480   23.8510 N.3   366  ASP366     -0.1239
     76  CA        -3.1550    5.7180   23.7250 C.3   366  ASP366      0.1674
     77  C         -3.6480    6.2480   22.3970 C.2   366  ASP366      0.2266
     78  O         -4.7760    5.9470   22.0140 O.2   366  ASP366     -0.2867
     79  CB        -3.9240    6.4940   24.8160 C.3   366  ASP366      0.1410
     80  CG        -3.5070    6.2100   26.2200 C.2   366  ASP366      0.3668
     81  OD1       -3.7390    5.0850   26.6840 O.co2 366  ASP366     -0.2456
     82  OD2       -3.0450    7.1450   26.8910 O.co2 366  ASP366     -0.2456
@<TRIPOS>BOND
     1    78    77    2
     2    77    76    1
     3    76    75    1
     4    76    79    1
     5    79    80    1
     6    80    81   ar
     7    80    82   ar
     8    46    47    1
     9    66    64    1
    10    47    48    1
    11    64    65    1
    12    64    63    2
    13    63    62    1
    14    48    50   am
    15    48    49    2
    16    61    62    1
    17    61    60    1
    18    50    51    1
    19    56    57    1
    20    52    51    1
    21    52    53    2
    22    57    60    1
    23    57    58    1
    24    51    54    1
    25    54    55    1
    26    58    59    2
    27    58    67   am
    28    67    68    1
    29    70    69    2
    30     1     2    1
    31    69    68    1
    32    68    71    1
    33    71    72    1
    34    71    73    1
    35     2     3    1
    36    72    74    1
    37    45    44    1
    38    39    38    1
    39    38    35    1
    40    29    28    1
    41    29    30    1
    42    37    36    2
    43     3     4    2
    44    13    11   ar
    45    28    27    1
    46    22    21    1
    47    30    31    2
    48    36    35    1
    49    36    40   am
    50    44    41    1
    51    35    34    1
    52    32    31    1
    53    21    20    1
    54    31    33    1
    55    41    40    1
    56    41    42    1
    57    27    24    1
    58    11    12   ar
    59    11    10    1
    60    26    25    2
    61    24    25    1
    62    24    23    1
    63    20    19    1
    64    10     9    1
    65    43    42    2
    66    19    18    1
    67    17    16    2
    68    23    16   am
    69    16    15    1
    70     8     7    2
    71     9     6    1
    72    18    15    1
    73     7     6    1
    74    15    14    1
    75     6     5    1
