@<TRIPOS>MOLECULE
tmp/5aqjE00.pdb
 81 76 0 0 0
SMALL
GASTEIGER

@<TRIPOS>ATOM
      1  N        143.0760   -0.9810   45.8900 N.3    16  TYR16      -0.1241
      2  CA       142.6170   -2.3660   45.8630 C.3    16  TYR16       0.1605
      3  C        141.1940   -2.4640   46.3850 C.2    16  TYR16       0.2264
      4  O        140.7570   -1.5880   47.1150 O.2    16  TYR16      -0.2867
      5  CB       143.6000   -3.3190   46.5590 C.3    16  TYR16       0.0534
      6  CG       144.0100   -2.9160   47.9690 C.ar   16  TYR16      -0.0201
      7  CD1      143.1200   -3.0490   49.0330 C.ar   16  TYR16      -0.0009
      8  CD2      145.2820   -2.3850   48.2350 C.ar   16  TYR16      -0.0009
      9  CE1      143.4690   -2.6670   50.3180 C.ar   16  TYR16       0.0417
     10  CE2      145.6460   -1.9960   49.5270 C.ar   16  TYR16       0.0417
     11  CZ       144.7310   -2.1400   50.5610 C.ar   16  TYR16       0.1957
     12  OH       145.0400   -1.7950   51.8560 O.3    16  TYR16      -0.2866
     13  N        159.7690   -4.6830   54.4250 N.3   272  LYS272     -0.1231
     14  CA       158.9020   -3.8720   55.2760 C.3   272  LYS272      0.1693
     15  C        157.8290   -4.7530   55.9210 C.2   272  LYS272      0.2591
     16  O        157.6310   -4.6760   57.1390 O.2   272  LYS272     -0.2718
     17  CB       158.2680   -2.7210   54.4800 C.3   272  LYS272      0.0285
     18  CG       157.1500   -1.9940   55.2460 C.3   272  LYS272      0.0035
     19  CD       156.3770   -0.9960   54.3990 C.3   272  LYS272      0.0206
     20  CE       155.5140   -1.6440   53.3380 C.3   272  LYS272      0.1093
     21  NZ       154.6520   -0.6490   52.6690 N.3   272  LYS272     -0.1314
     22  N        157.1480   -5.6080   55.1000 N.am  273  ARG273     -0.1980
     23  CA       156.1170   -6.5210   55.5830 C.3   273  ARG273      0.1597
     24  C        156.6960   -7.4930   56.6130 C.2   273  ARG273      0.2287
     25  O        156.0510   -7.7670   57.6040 O.2   273  ARG273     -0.2864
     26  CB       155.4680   -7.2800   54.4100 C.3   273  ARG273      0.0334
     27  CG       154.4820   -6.4210   53.6520 C.3   273  ARG273      0.0492
     28  CD       154.0970   -6.9950   52.3140 C.3   273  ARG273      0.2205
     29  NE       152.9020   -6.3410   51.7740 N.pl3 273  ARG273     -0.0865
     30  CZ       152.9050   -5.2100   51.0700 C.cat 273  ARG273      0.5346
     31  NH1      154.0450   -4.5610   50.8430 N.pl3 273  ARG273      0.1354
     32  NH2      151.7650   -4.6960   50.6270 N.pl3 273  ARG273      0.1354
     33  N        157.0680   -6.1850   60.1130 N.3   276  SER276     -0.1202
     34  CA       155.8670   -6.0670   60.9470 C.3   276  SER276      0.2020
     35  C        155.7400   -7.2930   61.8580 C.2   276  SER276      0.2619
     36  O        155.0470   -7.2170   62.8710 O.2   276  SER276     -0.2717
     37  CB       154.6210   -5.9010   60.0920 C.3   276  SER276      0.2103
     38  OG       154.5900   -4.6030   59.5300 O.3   276  SER276     -0.2182
     39  N        156.4190   -8.4240   61.5080 N.am  277  SER277     -0.1951
     40  CA       156.3690   -9.6560   62.3140 C.3   277  SER277      0.1924
     41  C        157.7190  -10.0350   62.9340 C.2   277  SER277      0.2314
     42  O        157.7510  -10.7260   63.9570 O.2   277  SER277     -0.2863
     43  CB       155.7950  -10.8330   61.5240 C.3   277  SER277      0.2116
     44  OG       154.9950  -10.4610   60.4130 O.3   277  SER277     -0.2180
     45  N        146.4070   -1.8620   55.4940 N.3   340  GLY340     -0.1210
     46  CA       147.6010   -2.7000   55.6190 C.3   340  GLY340      0.1956
     47  C        148.7520   -2.0960   56.4110 C.2   340  GLY340      0.2612
     48  O        149.4470   -2.8190   57.1300 O.2   340  GLY340     -0.2717
     49  N        148.9520   -0.7720   56.3090 N.am  341  SER341     -0.1952
     50  CA       150.0040   -0.0670   57.0570 C.3   341  SER341      0.1924
     51  C        149.7840   -0.0410   58.5920 C.2   341  SER341      0.2314
     52  O        150.7390    0.1770   59.3280 O.2   341  SER341     -0.2863
     53  CB       150.1980    1.3440   56.5250 C.3   341  SER341      0.2116
     54  OG       150.6030    1.2910   55.1700 O.3   341  SER341     -0.2180
     55  N        149.4640   -2.5090   60.3730 N.3   343  ARG343     -0.1231
     56  CA       150.1940   -3.6840   60.8440 C.3   343  ARG343      0.1694
     57  C        151.5740   -3.2770   61.4090 C.2   343  ARG343      0.2591
     58  O        152.1680   -4.0530   62.1540 O.2   343  ARG343     -0.2718
     59  CB       150.3860   -4.6860   59.7110 C.3   343  ARG343      0.0321
     60  CG       149.1370   -5.4740   59.3570 C.3   343  ARG343      0.0489
     61  CD       149.4690   -6.5720   58.3730 C.3   343  ARG343      0.2205
     62  NE       148.3220   -7.4540   58.1440 N.pl3 343  ARG343     -0.0865
     63  CZ       147.5490   -7.4240   57.0640 C.cat 343  ARG343      0.5346
     64  NH1      147.7900   -6.5570   56.0880 N.pl3 343  ARG343      0.1354
     65  NH2      146.5230   -8.2570   56.9530 N.pl3 343  ARG343      0.1354
     66  N        152.0710   -2.0770   61.0660 N.am  344  ILE344     -0.1980
     67  CA       153.3820   -1.5770   61.5070 C.3   344  ILE344      0.1595
     68  C        153.3640   -1.3910   63.0180 C.2   344  ILE344      0.2287
     69  O        152.5840   -0.5740   63.5120 O.2   344  ILE344     -0.2864
     70  CB       153.8450   -0.3100   60.7330 C.3   344  ILE344      0.0276
     71  CG1      153.9150   -0.5890   59.2070 C.3   344  ILE344      0.0022
     72  CG2      155.1930    0.2060   61.2810 C.3   344  ILE344      0.0022
     73  CD1      154.0380    0.6360   58.3120 C.3   344  ILE344      0.0001
     74  N        143.1690   -4.7430   55.9440 N.3   367  ASP367     -0.1239
     75  CA       142.8280   -4.5640   54.5390 C.3   367  ASP367      0.1674
     76  C        141.4450   -5.1220   54.1840 C.2   367  ASP367      0.2266
     77  O        140.8860   -4.7940   53.1440 O.2   367  ASP367     -0.2867
     78  CB       143.9050   -5.1730   53.6290 C.3   367  ASP367      0.1410
     79  CG       144.6110   -6.3620   54.2570 C.2   367  ASP367      0.3668
     80  OD1      144.3100   -6.7010   55.4170 O.co2 367  ASP367     -0.2456
     81  OD2      145.4840   -6.9560   53.5900 O.co2 367  ASP367     -0.2456
@<TRIPOS>BOND
     1     2     1    1
     2     2     3    1
     3     2     5    1
     4     3     4    2
     5     5     6    1
     6     6     8   ar
     7     6     7   ar
     8     8    10   ar
     9     7     9   ar
    10    10    11   ar
    11     9    11   ar
    12    11    12    1
    13    32    30    1
    14    31    30    1
    15    30    29    2
    16    29    28    1
    17    28    27    1
    18    21    20    1
    19    77    76    2
    20    20    19    1
    21    81    79   ar
    22    78    79    1
    23    78    75    1
    24    27    26    1
    25    76    75    1
    26    79    80   ar
    27    19    18    1
    28    26    23    1
    29    13    14    1
    30    17    18    1
    31    17    14    1
    32    75    74    1
    33    22    23    1
    34    22    15   am
    35    54    53    1
    36    14    15    1
    37    45    46    1
    38    23    24    1
    39    46    47    1
    40    15    16    2
    41    64    63    1
    42    49    47   am
    43    49    50    1
    44    47    48    2
    45    53    50    1
    46    24    25    2
    47    65    63    1
    48    50    51    1
    49    63    62    2
    50    62    61    1
    51    73    71    1
    52    61    60    1
    53    51    52    2
    54    71    70    1
    55    60    59    1
    56    38    37    1
    57    59    56    1
    58    37    34    1
    59    33    34    1
    60    55    56    1
    61    44    43    1
    62    70    72    1
    63    70    67    1
    64    56    57    1
    65    34    35    1
    66    66    57   am
    67    66    67    1
    68    57    58    2
    69    67    68    1
    70    39    35   am
    71    39    40    1
    72    43    40    1
    73    35    36    2
    74    40    41    1
    75    41    42    2
    76    68    69    2
