@<TRIPOS>MOLECULE
tmp/5aqkA00.pdb
 172 161 0 0 0
SMALL
GASTEIGER

@<TRIPOS>ATOM
      1  N         48.3250    2.9910  134.0460 N.3     9  GLY9       -0.1210
      2  CA        48.8310    2.2190  135.1660 C.3     9  GLY9        0.1956
      3  C         47.7990    1.4690  135.9600 C.2     9  GLY9        0.2613
      4  O         46.5970    1.7490  135.8800 O.2     9  GLY9       -0.2717
      5  N         48.2720    0.5010  136.7510 N.am   10  THR10      -0.1938
      6  CA        47.3780   -0.3020  137.5920 C.3    10  THR10       0.2028
      7  C         46.7240    0.6120  138.6120 C.2    10  THR10       0.2643
      8  O         45.4970    0.6250  138.7180 O.2    10  THR10      -0.2714
      9  CB        48.1480   -1.4640  138.2690 C.3    10  THR10       0.1808
     10  OG1       48.8610   -2.2120  137.2900 O.3    10  THR10      -0.2208
     11  CG2       47.2440   -2.3810  139.0800 C.3    10  THR10       0.0379
     12  N         47.5430    1.3810  139.3640 N.am   11  THR11      -0.1936
     13  CA        47.0170    2.2570  140.4240 C.3    11  THR11       0.2028
     14  C         47.0790    3.7430  140.0300 C.2    11  THR11       0.2642
     15  O         46.1820    4.5160  140.3940 O.2    11  THR11      -0.2714
     16  CB        47.6860    1.9370  141.7680 C.3    11  THR11       0.1808
     17  OG1       49.0930    2.1600  141.6650 O.3    11  THR11      -0.2208
     18  CG2       47.4370    0.5020  142.1970 C.3    11  THR11       0.0379
     19  N         48.1010    4.1350  139.2730 N.am   12  TYR12      -0.1973
     20  CA        48.2190    5.5270  138.8340 C.3    12  TYR12       0.1639
     21  C         48.5230    5.6380  137.3400 C.2    12  TYR12       0.2290
     22  O         49.3040    4.8490  136.8090 O.2    12  TYR12      -0.2864
     23  CB        49.2620    6.2810  139.6810 C.3    12  TYR12       0.0560
     24  CG        50.6350    5.6600  139.7260 C.ar   12  TYR12      -0.0198
     25  CD1       51.5760    5.9530  138.7380 C.ar   12  TYR12      -0.0009
     26  CD2       51.0140    4.8000  140.7520 C.ar   12  TYR12      -0.0009
     27  CE1       52.8430    5.3930  138.7630 C.ar   12  TYR12       0.0417
     28  CE2       52.2770    4.2380  140.7930 C.ar   12  TYR12       0.0417
     29  CZ        53.1820    4.5450  139.7970 C.ar   12  TYR12       0.1957
     30  OH        54.4400    3.9790  139.8140 O.3    12  TYR12      -0.2866
     31  N         50.1770   12.6110  138.5300 N.3    34  THR34      -0.1218
     32  CA        49.6460   11.2520  138.4090 C.3    34  THR34       0.1862
     33  C         48.2050   11.2460  138.8790 C.2    34  THR34       0.2287
     34  O         47.8610   11.9240  139.8420 O.2    34  THR34      -0.2866
     35  CB        50.5240   10.2110  139.1090 C.3    34  THR34       0.1770
     36  OG1       50.8750   10.6860  140.4110 O.3    34  THR34      -0.2211
     37  CG2       51.7820    9.8820  138.3070 C.3    34  THR34       0.0375
     38  N         61.5360   -2.1170  137.1780 N.3   196  ASP196     -0.1239
     39  CA        60.3330   -1.3600  137.4980 C.3   196  ASP196      0.1674
     40  C         59.6460   -1.7700  138.8040 C.2   196  ASP196      0.2266
     41  O         58.9430   -2.7670  138.8590 O.2   196  ASP196     -0.2867
     42  CB        59.3530   -1.5030  136.3240 C.3   196  ASP196      0.1410
     43  CG        58.1000   -0.6630  136.4790 C.2   196  ASP196      0.3668
     44  OD1       57.8510   -0.1290  137.5750 O.co2 196  ASP196     -0.2456
     45  OD2       57.3530   -0.5460  135.4880 O.co2 196  ASP196     -0.2456
     46  N         57.0280   -0.2180  141.6140 N.3   198  GLY198     -0.1210
     47  CA        56.0280    0.7690  142.0180 C.3   198  GLY198      0.1956
     48  C         55.4530    0.5340  143.4110 C.2   198  GLY198      0.2612
     49  O         56.1940    0.2190  144.3460 O.2   198  GLY198     -0.2717
     50  N         54.1300    0.6860  143.5460 N.am  199  GLY199     -0.1942
     51  CA        53.4180    0.5160  144.8150 C.3   199  GLY199      0.2014
     52  C         52.9000   -0.8820  145.1150 C.2   199  GLY199      0.2639
     53  O         52.8150   -1.2650  146.2890 O.2   199  GLY199     -0.2714
     54  N         52.4810   -1.5850  144.0630 N.am  200  GLY200     -0.1939
     55  CA        51.9570   -2.9330  144.1710 C.3   200  GLY200      0.2014
     56  C         52.5820   -4.0210  143.3070 C.2   200  GLY200      0.2639
     57  O         52.4640   -5.1960  143.6310 O.2   200  GLY200     -0.2714
     58  N         53.2330   -3.6470  142.2080 N.am  201  THR201     -0.1950
     59  CA        53.8380   -4.6400  141.3160 C.3   201  THR201      0.1897
     60  C         55.2940   -4.3670  140.9400 C.2   201  THR201      0.2313
     61  O         55.7180   -3.2230  140.8270 O.2   201  THR201     -0.2863
     62  CB        53.0280   -4.8280  140.0150 C.3   201  THR201      0.1794
     63  OG1       53.4250   -3.8510  139.0490 O.3   201  THR201     -0.2208
     64  CG2       51.5460   -4.7090  140.2790 C.3   201  THR201      0.0378
     65  N         55.8680   -0.5860  147.1740 N.3   227  GLY227     -0.1210
     66  CA        55.9950    0.3520  148.2840 C.3   227  GLY227      0.1956
     67  C         55.0660    0.1510  149.4620 C.2   227  GLY227      0.2611
     68  O         55.4170    0.5260  150.5860 O.2   227  GLY227     -0.2717
     69  N         53.8770   -0.4400  149.2230 N.am  228  GLU228     -0.1979
     70  CA        52.8880   -0.7150  150.2690 C.3   228  GLU228      0.1602
     71  C         53.4530   -1.7000  151.2890 C.2   228  GLU228      0.2287
     72  O         53.2120   -1.5480  152.4900 O.2   228  GLU228     -0.2864
     73  CB        51.6000   -1.2660  149.6590 C.3   228  GLU228      0.0415
     74  CG        50.3810   -0.3830  149.8490 C.3   228  GLU228      0.1163
     75  CD        49.1620   -0.8660  149.0860 C.2   228  GLU228      0.3649
     76  OE1       48.5470   -1.8650  149.5220 O.co2 228  GLU228     -0.2457
     77  OE2       48.8380   -0.2640  148.0360 O.co2 228  GLU228     -0.2457
     78  N         55.8150    0.0270  153.6240 N.3   231  ASP231     -0.1239
     79  CA        54.9910    0.7610  154.6040 C.3   231  ASP231      0.1674
     80  C         54.5810   -0.2030  155.7060 C.2   231  ASP231      0.2266
     81  O         54.7980    0.0950  156.8880 O.2   231  ASP231     -0.2867
     82  CB        53.7670    1.3670  153.9220 C.3   231  ASP231      0.1410
     83  CG        54.1020    2.3660  152.8330 C.2   231  ASP231      0.3668
     84  OD1       55.2810    2.8110  152.7680 O.co2 231  ASP231     -0.2456
     85  OD2       53.2040    2.6810  152.0200 O.co2 231  ASP231     -0.2456
     86  N         54.2330    6.0710  155.3890 N.3   265  GLU265     -0.1245
     87  CA        54.4460    6.2890  153.9370 C.3   265  GLU265      0.1567
     88  C         55.2170    7.5950  153.6990 C.2   265  GLU265      0.2260
     89  O         56.1410    7.6180  152.8830 O.2   265  GLU265     -0.2867
     90  CB        53.1110    6.2900  153.1720 C.3   265  GLU265      0.0388
     91  CG        53.2410    6.2010  151.6550 C.3   265  GLU265      0.1160
     92  CD        53.5100    7.4960  150.9070 C.2   265  GLU265      0.3649
     93  OE1       53.1700    8.5750  151.4480 O.co2 265  GLU265     -0.2457
     94  OE2       54.0680    7.4360  149.7840 O.co2 265  GLU265     -0.2457
     95  N         58.8590    7.2830  155.0200 N.3   268  LYS268     -0.1231
     96  CA        59.5790    6.4570  154.0360 C.3   268  LYS268      0.1693
     97  C         60.0830    7.3610  152.9220 C.2   268  LYS268      0.2591
     98  O         61.2610    7.2650  152.5530 O.2   268  LYS268     -0.2718
     99  CB        58.6580    5.3640  153.4760 C.3   268  LYS268      0.0285
    100  CG        59.2720    4.5500  152.3590 C.3   268  LYS268      0.0035
    101  CD        58.3040    3.6460  151.6600 C.3   268  LYS268      0.0206
    102  CE        57.3130    4.3720  150.7970 C.3   268  LYS268      0.1093
    103  NZ        56.3380    3.3930  150.2440 N.3   268  LYS268     -0.1314
    104  N         59.2290    8.2720  152.4240 N.am  269  ARG269     -0.1980
    105  CA        59.6410    9.1920  151.3410 C.3   269  ARG269      0.1597
    106  C         60.7990   10.1070  151.7830 C.2   269  ARG269      0.2287
    107  O         61.7580   10.2760  151.0340 O.2   269  ARG269     -0.2864
    108  CB        58.4450    9.9740  150.7560 C.3   269  ARG269      0.0334
    109  CG        57.5340    9.0640  149.9170 C.3   269  ARG269      0.0492
    110  CD        56.4620    9.8290  149.1580 C.3   269  ARG269      0.2205
    111  NE        55.2690   10.0560  149.9720 N.pl3 269  ARG269     -0.0865
    112  CZ        54.9620   11.1920  150.5970 C.cat 269  ARG269      0.5346
    113  NH1       55.7630   12.2480  150.5050 N.pl3 269  ARG269      0.1354
    114  NH2       53.8480   11.2820  151.3160 N.pl3 269  ARG269      0.1354
    115  N         64.3550    8.6690  151.6540 N.3   272  SER272     -0.1217
    116  CA        64.9760    8.5190  150.3390 C.3   272  SER272      0.1889
    117  C         65.9710    9.6660  150.1120 C.2   272  SER272      0.2288
    118  O         66.9430    9.4900  149.3680 O.2   272  SER272     -0.2866
    119  CB        63.9280    8.4820  149.2360 C.3   272  SER272      0.2089
    120  OG        63.1710    7.2890  149.3370 O.3   272  SER272     -0.2183
    121  N         64.9880    1.3770  158.6330 N.3   299  PHE299     -0.1241
    122  CA        64.0140    1.1480  157.5760 C.3   299  PHE299      0.1605
    123  C         64.5160    0.0380  156.6490 C.2   299  PHE299      0.2264
    124  O         63.7500   -0.8110  156.2130 O.2   299  PHE299     -0.2867
    125  CB        63.7990    2.4490  156.7990 C.3   299  PHE299      0.0534
    126  CG        63.0060    2.2940  155.5360 C.ar  299  PHE299     -0.0203
    127  CD1       61.6470    2.0630  155.5760 C.ar  299  PHE299     -0.0042
    128  CD2       63.6180    2.4210  154.3040 C.ar  299  PHE299     -0.0042
    129  CE1       60.9150    1.9370  154.4120 C.ar  299  PHE299     -0.0003
    130  CE2       62.8950    2.2960  153.1350 C.ar  299  PHE299     -0.0003
    131  CZ        61.5420    2.0490  153.1890 C.ar  299  PHE299     -0.0000
    132  N         59.2790    3.3620  138.3250 N.3   335  GLY335     -0.1210
    133  CA        58.4650    3.1660  139.5110 C.3   335  GLY335      0.1956
    134  C         59.0050    3.9710  140.6750 C.2   335  GLY335      0.2612
    135  O         60.2190    4.0850  140.8380 O.2   335  GLY335     -0.2717
    136  N         58.0990    4.4690  141.5080 N.am  336  GLY336     -0.1942
    137  CA        58.3980    5.3290  142.6400 C.3   336  GLY336      0.2014
    138  C         59.2960    4.7230  143.6820 C.2   336  GLY336      0.2639
    139  O         60.0410    5.4500  144.3350 O.2   336  GLY336     -0.2714
    140  N         59.2430    3.4030  143.8420 N.am  337  SER337     -0.1949
    141  CA        60.0380    2.7160  144.8600 C.3   337  SER337      0.1924
    142  C         61.5130    2.5720  144.4950 C.2   337  SER337      0.2314
    143  O         62.3330    2.3280  145.3860 O.2   337  SER337     -0.2863
    144  CB        59.4130    1.3770  145.2020 C.3   337  SER337      0.2116
    145  OG        58.1760    1.6220  145.8390 O.3   337  SER337     -0.2180
    146  N         63.3400    4.9780  143.9340 N.3   339  ARG339     -0.1231
    147  CA        63.9150    6.1620  144.5650 C.3   339  ARG339      0.1694
    148  C         64.6150    5.7400  145.8520 C.2   339  ARG339      0.2591
    149  O         65.3950    6.5170  146.3900 O.2   339  ARG339     -0.2718
    150  CB        62.8070    7.1850  144.9010 C.3   339  ARG339      0.0321
    151  CG        62.3490    8.0220  143.7010 C.3   339  ARG339      0.0489
    152  CD        61.3240    9.0560  144.1240 C.3   339  ARG339      0.2205
    153  NE        61.0540   10.0290  143.0670 N.pl3 339  ARG339     -0.0865
    154  CZ        59.9360   10.0600  142.3510 C.cat 339  ARG339      0.5346
    155  NH1       58.9660    9.1850  142.5840 N.pl3 339  ARG339      0.1354
    156  NH2       59.7710   10.9790  141.4080 N.pl3 339  ARG339      0.1354
    157  N         64.3340    4.5130  146.3500 N.am  340  ILE340     -0.1980
    158  CA        64.9240    3.9910  147.5910 C.3   340  ILE340      0.1595
    159  C         66.4440    3.7690  147.4170 C.2   340  ILE340      0.2287
    160  O         66.8260    2.9150  146.6150 O.2   340  ILE340     -0.2864
    161  CB        64.1810    2.7420  148.1750 C.3   340  ILE340      0.0276
    162  CG1       62.7170    3.0640  148.4420 C.3   340  ILE340      0.0022
    163  CG2       64.8620    2.2250  149.4630 C.3   340  ILE340      0.0022
    164  CD1       61.8240    1.8800  148.8300 C.3   340  ILE340      0.0001
    165  N         58.3100    7.5420  138.3440 N.3   363  ASP363     -0.1239
    166  CA        56.8770    7.4400  138.1180 C.3   363  ASP363      0.1674
    167  C         56.4520    7.9840  136.7490 C.2   363  ASP363      0.2266
    168  O         55.4310    7.5800  136.2150 O.2   363  ASP363     -0.2867
    169  CB        56.0710    8.0730  139.2570 C.3   363  ASP363      0.1410
    170  CG        56.8470    9.1270  140.0130 C.2   363  ASP363      0.3668
    171  OD1       57.9130    9.5580  139.5300 O.co2 363  ASP363     -0.2456
    172  OD2       56.3880    9.5200  141.0990 O.co2 363  ASP363     -0.2456
@<TRIPOS>BOND
     1     1     2    1
     2     2     3    1
     3    45    43   ar
     4     4     3    2
     5     3     5   am
     6   168   167    2
     7    42    43    1
     8    42    39    1
     9    43    44   ar
    10   167   166    1
    11     5     6    1
    12    22    21    2
    13    38    39    1
    14    10     9    1
    15    21    20    1
    16    39    40    1
    17     6     9    1
    18     6     7    1
    19   166   165    1
    20   166   169    1
    21     9    11    1
    22    37    35    1
    23   132   133    1
    24    32    31    1
    25    32    33    1
    26    32    35    1
    27     7     8    2
    28     7    12   am
    29    25    27   ar
    30    25    24   ar
    31    27    29   ar
    32    40    41    2
    33    20    19    1
    34    20    23    1
    35    33    34    2
    36    63    62    1
    37    35    36    1
    38   169   170    1
    39    19    14   am
    40    12    13    1
    41   133   134    1
    42   171   170   ar
    43    23    24    1
    44    24    26   ar
    45    29    30    1
    46    29    28   ar
    47   170   172   ar
    48    62    64    1
    49    62    59    1
    50    14    15    2
    51    14    13    1
    52    13    16    1
    53   134   135    2
    54   134   136   am
    55    26    28   ar
    56    61    60    2
    57    60    59    1
    58    59    58    1
    59   156   154    1
    60   136   137    1
    61    46    47    1
    62    17    16    1
    63    16    18    1
    64    47    48    1
    65    58    56   am
    66   154   155    1
    67   154   153    2
    68   137   138    1
    69   153   152    1
    70    56    57    2
    71    56    55    1
    72    48    50   am
    73    48    49    2
    74    50    51    1
    75   138   140   am
    76   138   139    2
    77   151   152    1
    78   151   150    1
    79   140   141    1
    80   146   147    1
    81    54    55    1
    82    54    52   am
    83   142   141    1
    84   142   143    2
    85   147   150    1
    86   147   148    1
    87    51    52    1
    88   141   144    1
    89    52    53    2
    90   144   145    1
    91   148   157   am
    92   148   149    2
    93   157   158    1
    94   160   159    2
    95    65    66    1
    96   159   158    1
    97   158   161    1
    98    77    75   ar
    99   161   162    1
   100   161   163    1
   101    66    67    1
   102   162   164    1
   103    75    76   ar
   104    75    74    1
   105   110   109    1
   106   110   111    1
   107    69    67   am
   108    69    70    1
   109   119   120    1
   110   119   116    1
   111   118   117    2
   112    67    68    2
   113    73    74    1
   114    73    70    1
   115    94    92   ar
   116   109   108    1
   117   111   112    2
   118   117   116    1
   119   103   102    1
   120    70    71    1
   121   116   115    1
   122   113   112    1
   123   112   114    1
   124   108   105    1
   125   102   101    1
   126    92    93   ar
   127    92    91    1
   128   107   106    2
   129    71    72    2
   130   105   106    1
   131   105   104    1
   132    91    90    1
   133   101   100    1
   134    85    83   ar
   135   100    99    1
   136   104    97   am
   137    98    97    2
   138    84    83   ar
   139    83    82    1
   140    89    88    2
   141    97    96    1
   142   130   131   ar
   143   130   128   ar
   144    90    87    1
   145   131   129   ar
   146    99    96    1
   147    78    79    1
   148    88    87    1
   149    82    79    1
   150    87    86    1
   151    96    95    1
   152   128   126   ar
   153   129   127   ar
   154    79    80    1
   155   126   127   ar
   156   126   125    1
   157    80    81    2
   158   124   123    2
   159   123   122    1
   160   125   122    1
   161   122   121    1
