@<TRIPOS>MOLECULE
tmp/5aqnA00.pdb
 73 67 0 0 0
SMALL
GASTEIGER

@<TRIPOS>ATOM
      1  N        -29.0410   24.4680   64.9540 N.3   230  GLY230     -0.1225
      2  CA       -30.2000   23.6200   64.7600 C.3   230  GLY230      0.1811
      3  C        -31.4190   23.9710   65.5770 C.2   230  GLY230      0.2280
      4  O        -32.5330   23.7650   65.1040 O.2   230  GLY230     -0.2866
      5  N        -36.8910   16.8650   61.7890 N.3   271  LYS271     -0.1231
      6  CA       -35.8520   17.6200   61.1010 C.3   271  LYS271      0.1693
      7  C        -34.7670   16.6640   60.5910 C.2   271  LYS271      0.2591
      8  O        -34.4150   16.7350   59.4220 O.2   271  LYS271     -0.2718
      9  CB       -35.2470   18.6790   62.0380 C.3   271  LYS271      0.0285
     10  CG       -33.9750   19.3380   61.5040 C.3   271  LYS271      0.0035
     11  CD       -33.4060   20.3680   62.4550 C.3   271  LYS271      0.0206
     12  CE       -32.5820   19.7330   63.5400 C.3   271  LYS271      0.1093
     13  NZ       -31.9720   20.7570   64.4310 N.3   271  LYS271     -0.1314
     14  N        -34.2550   15.7730   61.4610 N.am  272  ARG272     -0.1980
     15  CA       -33.2200   14.7620   61.1410 C.3   272  ARG272      0.1597
     16  C        -33.6540   13.8540   59.9850 C.2   272  ARG272      0.2287
     17  O        -32.8680   13.6390   59.0700 O.2   272  ARG272     -0.2864
     18  CB       -32.8410   13.9340   62.4000 C.3   272  ARG272      0.0334
     19  CG       -32.2430   14.7920   63.5340 C.3   272  ARG272      0.0492
     20  CD       -31.4510   14.0280   64.5900 C.3   272  ARG272      0.2205
     21  NE       -32.2550   13.0780   65.3710 N.pl3 272  ARG272     -0.0865
     22  CZ       -32.9560   13.3770   66.4650 C.cat 272  ARG272      0.5346
     23  NH1      -32.9520   14.6140   66.9500 N.pl3 272  ARG272      0.1354
     24  NH2      -33.6370   12.4350   67.1010 N.pl3 272  ARG272      0.1354
     25  N        -33.5750   15.1890   56.3600 N.3   275  SER275     -0.1202
     26  CA       -32.2690   15.3240   55.7600 C.3   275  SER275      0.2020
     27  C        -32.0180   14.1490   54.8380 C.2   275  SER275      0.2619
     28  O        -31.1170   14.1790   54.0210 O.2   275  SER275     -0.2717
     29  CB       -31.1950   15.3880   56.8280 C.3   275  SER275      0.2103
     30  OG       -31.1980   16.6520   57.4420 O.3   275  SER275     -0.2182
     31  N        -32.8150   13.1000   54.9960 N.am  276  SER276     -0.1951
     32  CA       -32.7050   11.9100   54.1630 C.3   276  SER276      0.1924
     33  C        -34.0160   11.5330   53.4720 C.2   276  SER276      0.2314
     34  O        -34.0270   10.7050   52.5810 O.2   276  SER276     -0.2863
     35  CB       -32.1420   10.7340   54.9640 C.3   276  SER276      0.2116
     36  OG       -32.7390   10.6390   56.2400 O.3   276  SER276     -0.2180
     37  N        -23.5460   19.1340   62.7850 N.3   339  GLY339     -0.1210
     38  CA       -24.7220   18.3510   62.4180 C.3   339  GLY339      0.1956
     39  C        -25.6950   19.0260   61.4790 C.2   339  GLY339      0.2612
     40  O        -26.3170   18.3520   60.6470 O.2   339  GLY339     -0.2717
     41  N        -25.8000   20.3680   61.5590 N.am  340  SER340     -0.1952
     42  CA       -26.7570   21.1160   60.7350 C.3   340  SER340      0.1924
     43  C        -26.3700   21.1760   59.2510 C.2   340  SER340      0.2314
     44  O        -27.2430   21.4530   58.4240 O.2   340  SER340     -0.2863
     45  CB       -27.0330   22.4990   61.3210 C.3   340  SER340      0.2116
     46  OG       -27.4930   22.4010   62.6610 O.3   340  SER340     -0.2180
     47  N        -25.8390   18.6820   57.4650 N.3   342  ARG342     -0.1231
     48  CA       -26.4950   17.5110   56.9010 C.3   342  ARG342      0.1694
     49  C        -27.7600   17.9600   56.1720 C.2   342  ARG342      0.2591
     50  O        -28.2620   17.2010   55.3420 O.2   342  ARG342     -0.2718
     51  CB       -26.8810   16.5390   58.0160 C.3   342  ARG342      0.0321
     52  CG       -25.7310   15.7040   58.5690 C.3   342  ARG342      0.0489
     53  CD       -26.3280   14.5670   59.3580 C.3   342  ARG342      0.2205
     54  NE       -25.3560   13.5260   59.6990 N.pl3 342  ARG342     -0.0865
     55  CZ       -24.7340   13.4440   60.8720 C.cat 342  ARG342      0.5346
     56  NH1      -24.9510   14.3590   61.8140 N.pl3 342  ARG342      0.1354
     57  NH2      -23.8710   12.4610   61.1050 N.pl3 342  ARG342      0.1354
     58  N        -28.2920   19.1860   56.4950 N.am  343  ILE343     -0.1980
     59  CA       -29.4990   19.7540   55.8860 C.3   343  ILE343      0.1595
     60  C        -29.2720   19.9330   54.3910 C.2   343  ILE343      0.2287
     61  O        -28.3860   20.6910   54.0160 O.2   343  ILE343     -0.2864
     62  CB       -30.0360   21.0250   56.6000 C.3   343  ILE343      0.0276
     63  CG1      -30.3950   20.7320   58.0700 C.3   343  ILE343      0.0022
     64  CG2      -31.2370   21.6190   55.8420 C.3   343  ILE343      0.0022
     65  CD1      -30.5960   21.9570   58.9510 C.3   343  ILE343      0.0001
     66  N        -20.3950   16.0140   62.7800 N.3   366  ASP366     -0.1239
     67  CA       -20.1770   16.0930   64.2190 C.3   366  ASP366      0.1674
     68  C        -18.8200   15.5540   64.6460 C.2   366  ASP366      0.2266
     69  O        -18.2400   16.0380   65.5980 O.2   366  ASP366     -0.2867
     70  CB       -21.3180   15.4880   65.0480 C.3   366  ASP366      0.1410
     71  CG       -22.3340   14.7620   64.2140 C.2   366  ASP366      0.3668
     72  OD1      -21.9290   13.9250   63.3880 O.co2 366  ASP366     -0.2456
     73  OD2      -23.5340   15.0380   64.3840 O.co2 366  ASP366     -0.2456
@<TRIPOS>BOND
     1    34    33    2
     2    33    32    1
     3    61    60    2
     4    28    27    2
     5    32    35    1
     6    32    31    1
     7    60    59    1
     8    27    31   am
     9    27    26    1
    10    35    36    1
    11    50    49    2
    12    26    25    1
    13    26    29    1
    14    64    62    1
    15    59    58    1
    16    59    62    1
    17    49    58   am
    18    49    48    1
    19    62    63    1
    20    29    30    1
    21    48    47    1
    22    48    51    1
    23    51    52    1
    24    63    65    1
    25    44    43    2
    26    52    53    1
    27    17    16    2
    28    43    42    1
    29    53    54    1
    30     8     7    2
    31    54    55    2
    32    16    15    1
    33     7     6    1
    34     7    14   am
    35    40    39    2
    36    42    45    1
    37    42    41    1
    38    55    57    1
    39    55    56    1
    40     6     5    1
    41     6     9    1
    42    15    14    1
    43    15    18    1
    44    45    46    1
    45    39    41   am
    46    39    38    1
    47    10     9    1
    48    10    11    1
    49    18    19    1
    50    38    37    1
    51    11    12    1
    52    66    67    1
    53    72    71   ar
    54    19    20    1
    55    12    13    1
    56    71    73   ar
    57    71    70    1
    58    67    68    1
    59    67    70    1
    60    20    21    1
    61    68    69    2
    62     2     1    1
    63     2     3    1
    64     4     3    2
    65    21    22    2
    66    22    23    1
    67    22    24    1
