@<TRIPOS>MOLECULE
tmp/5aqrE00.pdb
 113 103 0 0 0
SMALL
GASTEIGER

@<TRIPOS>ATOM
      1  N        134.3650   10.8130  163.6230 N.3    10  ASP10      -0.1239
      2  CA       135.1100   12.0170  163.9840 C.3    10  ASP10       0.1674
      3  C        135.8530   12.4110  162.7010 C.2    10  ASP10       0.2266
      4  O        136.8040   11.7280  162.3060 O.2    10  ASP10      -0.2867
      5  CB       136.1180   11.7460  165.1320 C.3    10  ASP10       0.1410
      6  CG       137.1760   12.8360  165.3440 C.2    10  ASP10       0.3668
      7  OD1      136.9870   13.9660  164.8240 O.co2  10  ASP10      -0.2456
      8  OD2      138.1950   12.5530  166.0100 O.co2  10  ASP10      -0.2456
      9  N        138.2580   14.6370  161.3400 N.3    12  GLY12      -0.1210
     10  CA       139.3370   15.5110  161.7910 C.3    12  GLY12       0.1956
     11  C        140.1150   16.2250  160.7020 C.2    12  GLY12       0.2612
     12  O        139.9840   15.8960  159.5170 O.2    12  GLY12      -0.2717
     13  N        140.9430   17.2200  161.1090 N.am   13  THR13      -0.1952
     14  CA       141.7640   18.0100  160.1870 C.3    13  THR13       0.1897
     15  C        142.7820   17.1220  159.4170 C.2    13  THR13       0.2313
     16  O        142.8490   17.2070  158.1830 O.2    13  THR13      -0.2863
     17  CB       142.4470   19.1920  160.9060 C.3    13  THR13       0.1794
     18  OG1      141.5330   19.7890  161.8250 O.3    13  THR13      -0.2208
     19  CG2      142.9120   20.2520  159.9500 C.3    13  THR13       0.0378
     20  N        143.3320   13.5490  160.5350 N.3    15  TYR15      -0.1241
     21  CA       142.9010   12.1450  160.6460 C.3    15  TYR15       0.1605
     22  C        141.4470   12.0140  161.0520 C.2    15  TYR15       0.2264
     23  O        140.9280   12.8510  161.7930 O.2    15  TYR15      -0.2867
     24  CB       143.8160   11.3400  161.6030 C.3    15  TYR15       0.0534
     25  CG       143.8120   11.7120  163.0630 C.ar   15  TYR15      -0.0201
     26  CD1      142.7630   11.3660  163.8970 C.ar   15  TYR15      -0.0009
     27  CD2      144.8850   12.3930  163.6340 C.ar   15  TYR15      -0.0009
     28  CE1      142.7550   11.6880  165.2400 C.ar   15  TYR15       0.0417
     29  CE2      144.8940   12.7230  164.9770 C.ar   15  TYR15       0.0417
     30  CZ       143.8300   12.3640  165.7740 C.ar   15  TYR15       0.1957
     31  OH       143.8310   12.6850  167.1140 O.3    15  TYR15      -0.2866
     32  N        139.1850   20.5290  156.1820 N.3    71  LYS71      -0.1245
     33  CA       138.4230   20.9820  157.3460 C.3    71  LYS71       0.1561
     34  C        138.7670   22.4510  157.7080 C.2    71  LYS71       0.2260
     35  O        137.9380   23.1450  158.3030 O.2    71  LYS71      -0.2867
     36  CB       138.6780   20.0400  158.5350 C.3    71  LYS71       0.0271
     37  CG       137.8230   20.3610  159.7590 C.3    71  LYS71       0.0035
     38  CD       137.9750   19.3050  160.8030 C.3    71  LYS71       0.0206
     39  CE       137.2540   19.6780  162.0540 C.3    71  LYS71       0.1093
     40  NZ       137.3820   18.6190  163.0760 N.3    71  LYS71      -0.1314
     41  N        132.4500   18.4080  168.8850 N.3   175  GLU175     -0.1245
     42  CA       133.5130   17.4880  169.3220 C.3   175  GLU175      0.1567
     43  C        133.6470   17.4590  170.8490 C.2   175  GLU175      0.2260
     44  O        133.7100   16.3550  171.3860 O.2   175  GLU175     -0.2867
     45  CB       134.8490   17.8060  168.6620 C.3   175  GLU175      0.0388
     46  CG       134.8930   17.4360  167.1970 C.3   175  GLU175      0.1160
     47  CD       135.8770   18.2370  166.3850 C.2   175  GLU175      0.3649
     48  OE1      136.8730   18.7370  166.9540 O.co2 175  GLU175     -0.2457
     49  OE2      135.6480   18.3650  165.1650 O.co2 175  GLU175     -0.2457
     50  N        141.6500   19.6150  174.2200 N.3   199  ASP199     -0.1239
     51  CA       141.8580   18.8520  173.0060 C.3   199  ASP199      0.1674
     52  C        143.1460   19.2620  172.3050 C.2   199  ASP199      0.2266
     53  O        143.2360   20.3260  171.7120 O.2   199  ASP199     -0.2867
     54  CB       140.6460   19.1060  172.1090 C.3   199  ASP199      0.1410
     55  CG       140.6220   18.2480  170.8710 C.2   199  ASP199      0.3668
     56  OD1      141.6790   17.7560  170.4590 O.co2 199  ASP199     -0.2456
     57  OD2      139.5270   18.0880  170.3050 O.co2 199  ASP199     -0.2456
     58  N        145.4050   17.5210  169.5730 N.3   201  GLY201     -0.1210
     59  CA       145.6670   16.4740  168.5890 C.3   201  GLY201      0.1956
     60  C        145.2930   16.8940  167.1910 C.2   201  GLY201      0.2612
     61  O        144.5110   17.8330  167.0180 O.2   201  GLY201     -0.2717
     62  N        145.8920   16.2330  166.2010 N.am  202  GLY202     -0.1956
     63  CA       145.6260   16.4990  164.7940 C.3   202  GLY202      0.1869
     64  C        146.2700   17.7290  164.1840 C.2   202  GLY202      0.2309
     65  O        146.1300   17.9430  162.9750 O.2   202  GLY202     -0.2863
     66  N        145.9400   20.8060  165.8590 N.3   204  THR204     -0.1218
     67  CA       145.1320   21.8990  166.4110 C.3   204  THR204      0.1862
     68  C        145.0350   21.7410  167.9200 C.2   204  THR204      0.2287
     69  O        145.1140   20.6210  168.4360 O.2   204  THR204     -0.2866
     70  CB       143.7150   21.8850  165.7990 C.3   204  THR204      0.1770
     71  OG1      143.0840   20.6320  166.0820 O.3   204  THR204     -0.2211
     72  CG2      143.7180   22.1330  164.3070 C.3   204  THR204      0.0375
     73  N        142.3760   22.8850  170.9400 N.3   206  ASP206     -0.1239
     74  CA       141.0700   23.4450  171.2710 C.3   206  ASP206      0.1674
     75  C        140.7140   23.2090  172.7090 C.2   206  ASP206      0.2266
     76  O        140.7270   22.0610  173.1630 O.2   206  ASP206     -0.2867
     77  CB       139.9680   22.8410  170.3850 C.3   206  ASP206      0.1410
     78  CG       140.1530   23.0640  168.8980 C.2   206  ASP206      0.3668
     79  OD1      140.1990   24.2440  168.4750 O.co2 206  ASP206     -0.2456
     80  OD2      140.1850   22.0630  168.1480 O.co2 206  ASP206     -0.2456
     81  N        141.6020   14.9820  175.3060 N.3   337  VAL337     -0.1231
     82  CA       141.3090   14.4880  173.9440 C.3   337  VAL337      0.1692
     83  C        142.4780   14.8680  173.0280 C.2   337  VAL337      0.2592
     84  O        143.0990   15.9030  173.2510 O.2   337  VAL337     -0.2718
     85  CB       139.9370   15.0490  173.4560 C.3   337  VAL337      0.0266
     86  CG1      139.7250   14.8500  171.9620 C.3   337  VAL337      0.0020
     87  CG2      138.7890   14.4190  174.2270 C.3   337  VAL337      0.0020
     88  N        142.7780   14.0310  172.0380 N.am  338  GLY338     -0.1957
     89  CA       143.8790   14.2630  171.1070 C.3   338  GLY338      0.1869
     90  C        145.1280   13.5480  171.5740 C.2   338  GLY338      0.2309
     91  O        145.4050   13.5110  172.7730 O.2   338  GLY338     -0.2863
     92  N        142.8090    8.8280  173.7290 N.3   365  PRO365     -0.2102
     93  CA       142.4570   10.2220  173.3640 C.3   365  PRO365      0.1504
     94  C        142.3050   10.5120  171.8630 C.2   365  PRO365      0.2575
     95  O        141.6270   11.4780  171.5180 O.2   365  PRO365     -0.2718
     96  CB       143.5680   11.0610  174.0210 C.3   365  PRO365      0.0282
     97  CG       144.7220   10.1090  174.1780 C.3   365  PRO365      0.0208
     98  CD       144.0730    8.7850  174.4980 C.3   365  PRO365      0.0893
     99  N        142.8880    9.6720  170.9850 N.am  366  ASP366     -0.1974
    100  CA       142.7680    9.7770  169.5210 C.3   366  ASP366      0.1708
    101  C        141.3920    9.2840  169.0430 C.2   366  ASP366      0.2293
    102  O        140.9850    9.5800  167.9210 O.2   366  ASP366     -0.2864
    103  CB       143.8290    8.8930  168.8180 C.3   366  ASP366      0.1436
    104  CG       145.2730    9.2260  169.1240 C.2   366  ASP366      0.3671
    105  OD1      145.6760   10.3760  168.8770 O.co2 366  ASP366     -0.2456
    106  OD2      146.0110    8.3180  169.5620 O.co2 366  ASP366     -0.2456
    107  N        136.4520   11.1600  170.7010 N.3   369  VAL369     -0.1245
    108  CA       135.3910   11.9090  170.0000 C.3   369  VAL369      0.1561
    109  C        134.5210   10.9450  169.1660 C.2   369  VAL369      0.2260
    110  O        133.3000   10.9940  169.2840 O.2   369  VAL369     -0.2867
    111  CB       135.9680   13.1300  169.2050 C.3   369  VAL369      0.0252
    112  CG1      134.9670   13.7110  168.2110 C.3   369  VAL369      0.0019
    113  CG2      136.4450   14.2200  170.1640 C.3   369  VAL369      0.0019
@<TRIPOS>BOND
     1    32    33    1
     2    33    34    1
     3    33    36    1
     4    34    35    2
     5    16    15    2
     6    36    37    1
     7    15    14    1
     8    12    11    2
     9    37    38    1
    10    19    17    1
    11    14    17    1
    12    14    13    1
    13    20    21    1
    14    21    22    1
    15    21    24    1
    16    11    13   am
    17    11    10    1
    18    38    39    1
    19    17    18    1
    20    22    23    2
    21     9    10    1
    22    24    25    1
    23    39    40    1
    24     4     3    2
    25     3     2    1
    26    65    64    2
    27    25    27   ar
    28    25    26   ar
    29     1     2    1
    30    27    29   ar
    31    26    28   ar
    32     2     5    1
    33    64    63    1
    34    72    70    1
    35    63    62    1
    36     7     6   ar
    37    29    30   ar
    38     5     6    1
    39    49    47   ar
    40    28    30   ar
    41     6     8   ar
    42    30    31    1
    43    70    71    1
    44    70    67    1
    45    66    67    1
    46    62    60   am
    47    47    48   ar
    48    47    46    1
    49    67    68    1
    50    61    60    2
    51    60    59    1
    52    46    45    1
    53    68    69    2
    54   102   101    2
    55    80    78   ar
    56   112   111    1
    57    79    78   ar
    58    59    58    1
    59    45    42    1
    60   103   104    1
    61   103   100    1
    62   105   104   ar
    63    41    42    1
    64    78    77    1
    65   101   100    1
    66   104   106   ar
    67   109   110    2
    68   109   108    1
    69   111   108    1
    70   111   113    1
    71    42    43    1
    72   100    99    1
    73   108   107    1
    74    57    55   ar
    75    77    74    1
    76    56    55   ar
    77    43    44    2
    78    55    54    1
    79    73    74    1
    80    99    94   am
    81    89    90    1
    82    89    88    1
    83    74    75    1
    84    95    94    2
    85    90    91    2
    86    53    52    2
    87    94    93    1
    88    86    85    1
    89    88    83   am
    90    54    51    1
    91    52    51    1
    92    75    76    2
    93    51    50    1
    94    83    84    2
    95    83    82    1
    96    93    92    1
    97    93    96    1
    98    85    82    1
    99    85    87    1
   100    92    98    1
   101    82    81    1
   102    96    97    1
   103    97    98    1
