@<TRIPOS>MOLECULE
tmp/5aqsC00.pdb
 78 72 0 0 0
SMALL
GASTEIGER

@<TRIPOS>ATOM
      1  N        -27.2290   -5.8460  -20.6560 N.3   227  GLY227     -0.1225
      2  CA       -26.1290   -4.9090  -20.8740 C.3   227  GLY227      0.1811
      3  C        -24.8560   -5.2730  -20.1400 C.2   227  GLY227      0.2280
      4  O        -23.7600   -5.0570  -20.6670 O.2   227  GLY227     -0.2866
      5  N        -22.5320   -7.4090  -22.0640 N.3   230  PHE230     -0.1241
      6  CA       -21.8340   -6.6530  -23.1050 C.3   230  PHE230      0.1605
      7  C        -20.7130   -5.8080  -22.5100 C.2   230  PHE230      0.2264
      8  O        -19.7400   -5.5090  -23.2080 O.2   230  PHE230     -0.2867
      9  CB       -22.7940   -5.8070  -23.9700 C.3   230  PHE230      0.0534
     10  CG       -24.0610   -6.4990  -24.4350 C.ar  230  PHE230     -0.0203
     11  CD1      -24.0170   -7.7790  -24.9900 C.ar  230  PHE230     -0.0042
     12  CD2      -25.2930   -5.8550  -24.3580 C.ar  230  PHE230     -0.0042
     13  CE1      -25.1880   -8.4150  -25.4190 C.ar  230  PHE230     -0.0003
     14  CE2      -26.4620   -6.4870  -24.8020 C.ar  230  PHE230     -0.0003
     15  CZ       -26.4010   -7.7610  -25.3280 C.ar  230  PHE230     -0.0000
     16  N        -19.4070    2.0320  -24.1540 N.3   268  LYS268     -0.1231
     17  CA       -20.4730    1.2630  -24.7940 C.3   268  LYS268      0.1693
     18  C        -21.5650    2.2370  -25.3340 C.2   268  LYS268      0.2591
     19  O        -21.8410    2.2210  -26.5380 O.2   268  LYS268     -0.2718
     20  CB       -21.0640    0.2540  -23.7910 C.3   268  LYS268      0.0285
     21  CG       -22.3920   -0.3960  -24.2200 C.3   268  LYS268      0.0035
     22  CD       -23.0110   -1.2760  -23.1410 C.3   268  LYS268      0.0206
     23  CE       -23.7640   -0.4890  -22.0980 C.3   268  LYS268      0.1093
     24  NZ       -24.4530   -1.3910  -21.1390 N.3   268  LYS268     -0.1314
     25  N        -22.1350    3.0920  -24.4520 N.am  269  ARG269     -0.1980
     26  CA       -23.1580    4.1140  -24.7510 C.3   269  ARG269      0.1597
     27  C        -22.7260    5.0730  -25.8660 C.2   269  ARG269      0.2287
     28  O        -23.5350    5.4040  -26.7400 O.2   269  ARG269     -0.2864
     29  CB       -23.4980    4.9370  -23.5010 C.3   269  ARG269      0.0334
     30  CG       -24.3540    4.2510  -22.4350 C.3   269  ARG269      0.0492
     31  CD       -25.0010    5.3090  -21.5320 C.3   269  ARG269      0.2205
     32  NE       -24.4190    5.4470  -20.1860 N.pl3 269  ARG269     -0.0865
     33  CZ       -23.5030    6.3550  -19.8430 C.cat 269  ARG269      0.5346
     34  NH1      -23.0410    7.2170  -20.7450 N.pl3 269  ARG269      0.1354
     35  NH2      -23.0310    6.3950  -18.6040 N.pl3 269  ARG269      0.1354
     36  N        -22.9260    3.9860  -29.6190 N.3   272  SER272     -0.1217
     37  CA       -24.2520    3.9810  -30.2340 C.3   272  SER272      0.1889
     38  C        -24.4240    5.2280  -31.1200 C.2   272  SER272      0.2288
     39  O        -25.1490    5.1740  -32.1190 O.2   272  SER272     -0.2866
     40  CB       -25.3350    3.9250  -29.1660 C.3   272  SER272      0.2089
     41  OG       -25.3800    2.6220  -28.6120 O.3   272  SER272     -0.2183
     42  N        -32.7870   -0.1660  -22.8650 N.3   336  GLY336     -0.1210
     43  CA       -31.5460    0.5290  -23.1890 C.3   336  GLY336      0.1956
     44  C        -30.6400   -0.1410  -24.2010 C.2   336  GLY336      0.2612
     45  O        -30.0960    0.5410  -25.0780 O.2   336  GLY336     -0.2717
     46  N        -30.4890   -1.4810  -24.1130 N.am  337  SER337     -0.1952
     47  CA       -29.6110   -2.2670  -24.9990 C.3   337  SER337      0.1924
     48  C        -30.0240   -2.2830  -26.4910 C.2   337  SER337      0.2314
     49  O        -29.1590   -2.5060  -27.3380 O.2   337  SER337     -0.2863
     50  CB       -29.4290   -3.6920  -24.4810 C.3   337  SER337      0.2116
     51  OG       -29.1080   -3.7330  -23.1020 O.3   337  SER337     -0.2180
     52  N        -30.4580    0.1310  -28.2720 N.3   339  ARG339     -0.1231
     53  CA       -29.7780    1.3020  -28.8140 C.3   339  ARG339      0.1694
     54  C        -28.5420    0.9280  -29.6310 C.2   339  ARG339      0.2591
     55  O        -28.0990    1.7300  -30.4580 O.2   339  ARG339     -0.2718
     56  CB       -29.3790    2.2590  -27.6850 C.3   339  ARG339      0.0321
     57  CG       -30.4960    3.1750  -27.2220 C.3   339  ARG339      0.0489
     58  CD       -29.8880    4.2970  -26.4210 C.3   339  ARG339      0.2205
     59  NE       -30.8370    5.3660  -26.1340 N.pl3 339  ARG339     -0.0865
     60  CZ       -31.5880    5.4380  -25.0390 C.cat 339  ARG339      0.5346
     61  NH1      -31.5260    4.4810  -24.1160 N.pl3 339  ARG339      0.1354
     62  NH2      -32.4170    6.4560  -24.8640 N.pl3 339  ARG339      0.1354
     63  N        -27.9790   -0.2760  -29.3870 N.am  340  ILE340     -0.1980
     64  CA       -26.7990   -0.7800  -30.0870 C.3   340  ILE340      0.1595
     65  C        -27.1310   -0.9630  -31.5840 C.2   340  ILE340      0.2287
     66  O        -28.0390   -1.7410  -31.9120 O.2   340  ILE340     -0.2864
     67  CB       -26.2260   -2.0820  -29.4460 C.3   340  ILE340      0.0276
     68  CG1      -25.9500   -1.8990  -27.9360 C.3   340  ILE340      0.0022
     69  CG2      -24.9660   -2.5380  -30.1900 C.3   340  ILE340      0.0022
     70  CD1      -25.8570   -3.2050  -27.1130 C.3   340  ILE340      0.0001
     71  N        -35.8370    2.8530  -22.8340 N.3   363  ASP363     -0.1239
     72  CA       -35.9080    2.8200  -21.3690 C.3   363  ASP363      0.1674
     73  C        -37.2720    3.2980  -20.8670 C.2   363  ASP363      0.2266
     74  O        -37.7340    2.8410  -19.8240 O.2   363  ASP363     -0.2867
     75  CB       -34.8140    3.7220  -20.7760 C.3   363  ASP363      0.1410
     76  CG       -33.4130    3.1890  -20.9770 C.2   363  ASP363      0.3668
     77  OD1      -33.1710    2.0150  -20.6220 O.co2 363  ASP363     -0.2456
     78  OD2      -32.5410    3.9620  -21.4420 O.co2 363  ASP363     -0.2456
@<TRIPOS>BOND
     1    39    38    2
     2    66    65    2
     3    65    64    1
     4    38    37    1
     5    55    54    2
     6    37    36    1
     7    37    40    1
     8    69    67    1
     9    64    67    1
    10    64    63    1
    11    54    63   am
    12    54    53    1
    13    67    68    1
    14    40    41    1
    15    53    52    1
    16    53    56    1
    17    68    70    1
    18    56    57    1
    19    49    48    2
    20    57    58    1
    21    28    27    2
    22    19    18    2
    23    48    47    1
    24    58    59    1
    25    59    60    2
    26    27    26    1
    27    13    15   ar
    28    13    11   ar
    29    18    17    1
    30    18    25   am
    31    15    14   ar
    32    45    44    2
    33    60    62    1
    34    60    61    1
    35    47    50    1
    36    47    46    1
    37    11    10   ar
    38    14    12   ar
    39    17    16    1
    40    17    20    1
    41    26    25    1
    42    26    29    1
    43    50    51    1
    44    10    12   ar
    45    10     9    1
    46    21    20    1
    47    21    22    1
    48    44    46   am
    49    44    43    1
    50     9     6    1
    51    29    30    1
    52     8     7    2
    53    43    42    1
    54    22    23    1
    55     6     7    1
    56     6     5    1
    57    71    72    1
    58    30    31    1
    59    23    24    1
    60    31    32    1
    61    78    76   ar
    62    72    73    1
    63    72    75    1
    64    76    75    1
    65    76    77   ar
    66     2     1    1
    67     2     3    1
    68    73    74    2
    69    34    33    1
    70     4     3    2
    71    32    33    2
    72    33    35    1
