@<TRIPOS>MOLECULE
tmp/5aqwA00.pdb
 124 115 0 0 0
SMALL
GASTEIGER

@<TRIPOS>ATOM
      1  N        -12.8470   -9.6420   15.6580 N.3    12  THR12      -0.1203
      2  CA       -12.3600  -10.9660   15.2330 C.3    12  THR12       0.1994
      3  C        -11.4410  -10.9010   14.0080 C.2    12  THR12       0.2617
      4  O        -10.5070  -11.7090   13.9390 O.2    12  THR12      -0.2717
      5  CB       -13.5280  -11.9550   15.0240 C.3    12  THR12       0.1784
      6  OG1      -14.2530  -11.6160   13.8450 O.3    12  THR12      -0.2211
      7  CG2      -14.4990  -11.9860   16.2160 C.3    12  THR12       0.0376
      8  N        -11.7200   -9.9910   13.0430 N.am   13  TYR13      -0.1975
      9  CA       -10.9030   -9.8150   11.8350 C.3    13  TYR13       0.1639
     10  C        -10.5970   -8.3520   11.5770 C.2    13  TYR13       0.2290
     11  O        -11.3990   -7.4780   11.9180 O.2    13  TYR13      -0.2864
     12  CB       -11.6410  -10.3640   10.5920 C.3    13  TYR13       0.0560
     13  CG       -11.5500  -11.8650   10.4560 C.ar   13  TYR13      -0.0198
     14  CD1      -12.4370  -12.6990   11.1260 C.ar   13  TYR13      -0.0009
     15  CD2      -10.6070  -12.4540    9.6150 C.ar   13  TYR13      -0.0009
     16  CE1      -12.3640  -14.0850   11.0030 C.ar   13  TYR13       0.0417
     17  CE2      -10.5120  -13.8410    9.4960 C.ar   13  TYR13       0.0417
     18  CZ       -11.4060  -14.6510   10.1790 C.ar   13  TYR13       0.1957
     19  OH       -11.3560  -16.0170   10.0570 O.3    13  TYR13      -0.2866
     20  N        -21.1610   -9.0910   12.8820 N.3   196  GLY196     -0.1210
     21  CA       -19.7590   -9.4970   12.8570 C.3   196  GLY196      0.1956
     22  C        -19.4770  -10.8890   13.3700 C.2   196  GLY196      0.2612
     23  O        -20.3850  -11.7220   13.4480 O.2   196  GLY196     -0.2717
     24  N        -18.2060  -11.1540   13.6950 N.am  197  GLY197     -0.1956
     25  CA       -17.7800  -12.4450   14.2190 C.3   197  GLY197      0.1869
     26  C        -18.2080  -12.7190   15.6460 C.2   197  GLY197      0.2309
     27  O        -18.4510  -13.8700   16.0180 O.2   197  GLY197     -0.2863
     28  N        -21.0430  -14.3790   14.2860 N.3   225  GLY225     -0.1210
     29  CA       -20.6750  -15.5740   13.5390 C.3   225  GLY225      0.1956
     30  C        -20.2100  -16.7310   14.4020 C.2   225  GLY225      0.2611
     31  O        -20.5970  -17.8700   14.1560 O.2   225  GLY225     -0.2717
     32  N        -19.4170  -16.4500   15.4590 N.am  226  GLU226     -0.1979
     33  CA       -18.9100  -17.4890   16.3540 C.3   226  GLU226      0.1602
     34  C        -20.0280  -18.2970   17.0220 C.2   226  GLU226      0.2287
     35  O        -19.8580  -19.4970   17.2700 O.2   226  GLU226     -0.2864
     36  CB       -18.0020  -16.8710   17.4200 C.3   226  GLU226      0.0415
     37  CG       -17.4120  -17.8510   18.4130 C.3   226  GLU226      0.1163
     38  CD       -16.2400  -18.6360   17.8610 C.2   226  GLU226      0.3649
     39  OE1      -15.8970  -18.4640   16.6730 O.co2 226  GLU226     -0.2457
     40  OE2      -15.6500  -19.4330   18.6220 O.co2 226  GLU226     -0.2457
     41  N        -21.2190  -20.8610   14.5350 N.3   229  ASP229     -0.1239
     42  CA       -20.2340  -21.9520   14.5240 C.3   229  ASP229      0.1674
     43  C        -20.5040  -22.9170   15.6820 C.2   229  ASP229      0.2266
     44  O        -20.4280  -24.1240   15.4960 O.2   229  ASP229     -0.2867
     45  CB       -18.7940  -21.4200   14.6670 C.3   229  ASP229      0.1410
     46  CG       -18.3200  -20.4720   13.5790 C.2   229  ASP229      0.3668
     47  OD1      -18.9860  -20.3860   12.5400 O.co2 229  ASP229     -0.2456
     48  OD2      -17.2960  -19.8000   13.7890 O.co2 229  ASP229     -0.2456
     49  N        -16.6800  -23.4940   11.0330 N.3   263  GLU263     -0.1245
     50  CA       -16.6420  -22.1480   10.4720 C.3   263  GLU263      0.1567
     51  C        -16.4880  -22.2360    8.9570 C.2   263  GLU263      0.2260
     52  O        -17.1250  -21.4910    8.2290 O.2   263  GLU263     -0.2867
     53  CB       -15.5240  -21.2870   11.0810 C.3   263  GLU263      0.0388
     54  CG       -15.4460  -19.8890   10.4730 C.3   263  GLU263      0.1160
     55  CD       -14.3630  -18.9960   11.0670 C.2   263  GLU263      0.3649
     56  OE1      -13.4500  -19.4990   11.7520 O.co2 263  GLU263     -0.2457
     57  OE2      -14.4160  -17.7750   10.8320 O.co2 263  GLU263     -0.2457
     58  N        -19.8230  -23.4190    7.4300 N.3   266  LYS266     -0.1231
     59  CA       -20.7980  -22.3290    7.4960 C.3   266  LYS266      0.1693
     60  C        -20.5870  -21.3600    6.3030 C.2   266  LYS266      0.2591
     61  O        -21.5670  -20.9730    5.6600 O.2   266  LYS266     -0.2718
     62  CB       -20.6400  -21.5830    8.8300 C.3   266  LYS266      0.0285
     63  CG       -21.4890  -20.3200    8.9440 C.3   266  LYS266      0.0035
     64  CD       -21.0400  -19.4770   10.0960 C.3   266  LYS266      0.0206
     65  CE       -19.6610  -18.8700    9.8270 C.3   266  LYS266      0.1093
     66  NZ       -19.1950  -18.0830   10.9850 N.3   266  LYS266     -0.1314
     67  N        -19.3140  -20.9810    6.0100 N.am  267  ARG267     -0.1980
     68  CA       -19.0230  -20.0620    4.9000 C.3   267  ARG267      0.1597
     69  C        -19.5020  -20.6710    3.5800 C.2   267  ARG267      0.2287
     70  O        -20.1960  -20.0060    2.8130 O.2   267  ARG267     -0.2864
     71  CB       -17.5300  -19.7080    4.8350 C.3   267  ARG267      0.0334
     72  CG       -17.0310  -18.9290    6.0470 C.3   267  ARG267      0.0492
     73  CD       -15.5380  -18.6840    5.9460 C.3   267  ARG267      0.2205
     74  NE       -15.0290  -18.0000    7.1330 N.pl3 267  ARG267     -0.0865
     75  CZ       -13.8060  -17.4880    7.2390 C.cat 267  ARG267      0.5346
     76  NH1      -12.9500  -17.5820    6.2290 N.pl3 267  ARG267      0.1354
     77  NH2      -13.4280  -16.8850    8.3570 N.pl3 267  ARG267      0.1354
     78  N        -23.2430  -20.3810    2.6250 N.3   270  SER270     -0.1217
     79  CA       -23.7720  -19.1000    2.1630 C.3   270  SER270      0.1889
     80  C        -23.8630  -19.0860    0.6140 C.2   270  SER270      0.2288
     81  O        -24.5910  -18.2600    0.0620 O.2   270  SER270     -0.2866
     82  CB       -22.8920  -17.9480    2.6430 C.3   270  SER270      0.2089
     83  OG       -23.0510  -17.7250    4.0370 O.3   270  SER270     -0.2183
     84  N        -20.2410   -6.8840    7.7290 N.3   333  GLY333     -0.1210
     85  CA       -19.8240   -8.1310    8.3750 C.3   333  GLY333      0.1956
     86  C        -20.1330   -9.3330    7.5040 C.2   333  GLY333      0.2612
     87  O        -21.1860   -9.3780    6.8660 O.2   333  GLY333     -0.2717
     88  N        -19.1980  -10.2890    7.4550 N.am  334  GLY334     -0.1942
     89  CA       -19.3210  -11.4910    6.6390 C.3   334  GLY334      0.2014
     90  C        -20.5350  -12.3260    6.9770 C.2   334  GLY334      0.2639
     91  O        -21.0570  -13.0300    6.1130 O.2   334  GLY334     -0.2714
     92  N        -21.0360  -12.2080    8.2220 N.am  335  SER335     -0.1949
     93  CA       -22.2300  -12.9650    8.6300 C.3   335  SER335      0.1924
     94  C        -23.4950  -12.4960    7.8930 C.2   335  SER335      0.2314
     95  O        -24.4760  -13.2470    7.8150 O.2   335  SER335     -0.2863
     96  CB       -22.4370  -12.8960   10.1420 C.3   335  SER335      0.2116
     97  OG       -21.3310  -13.4500   10.8420 O.3   335  SER335     -0.2180
     98  N        -23.6950  -12.2380    4.7750 N.3   337  ARG337     -0.1231
     99  CA       -23.6960  -13.0030    3.5290 C.3   337  ARG337      0.1694
    100  C        -24.6260  -14.2310    3.6560 C.2   337  ARG337      0.2591
    101  O        -24.9600  -14.8470    2.6390 O.2   337  ARG337     -0.2718
    102  CB       -22.2690  -13.4360    3.1500 C.3   337  ARG337      0.0321
    103  CG       -21.3770  -12.2510    2.8500 C.3   337  ARG337      0.0489
    104  CD       -19.9850  -12.6750    2.4660 C.3   337  ARG337      0.2205
    105  NE       -19.9000  -13.0070    1.0460 N.pl3 337  ARG337     -0.0865
    106  CZ       -18.8210  -12.8090    0.3010 C.cat 337  ARG337      0.5346
    107  NH1      -17.7280  -12.2740    0.8310 N.pl3 337  ARG337      0.1354
    108  NH2      -18.8260  -13.1400   -0.9830 N.pl3 337  ARG337      0.1354
    109  N        -25.0470  -14.5850    4.8920 N.am  338  ILE338     -0.1980
    110  CA       -25.9400  -15.7350    5.1090 C.3   338  ILE338      0.1595
    111  C        -27.2990  -15.4360    4.4460 C.2   338  ILE338      0.2287
    112  O        -27.9740  -14.4700    4.8290 O.2   338  ILE338     -0.2864
    113  CB       -26.0710  -16.0990    6.6190 C.3   338  ILE338      0.0276
    114  CG1      -24.6950  -16.4420    7.2480 C.3   338  ILE338      0.0022
    115  CG2      -27.0590  -17.2680    6.8190 C.3   338  ILE338      0.0022
    116  CD1      -24.7020  -16.5030    8.8120 C.3   338  ILE338      0.0001
    117  N        -17.6620   -7.7170    4.4960 N.3   361  ASP361     -0.1239
    118  CA       -16.5090   -7.8410    5.3840 C.3   361  ASP361      0.1674
    119  C        -15.4300   -6.7900    5.0700 C.2   361  ASP361      0.2266
    120  O        -14.4700   -6.6610    5.8390 O.2   361  ASP361     -0.2867
    121  CB       -15.9510   -9.2860    5.3950 C.3   361  ASP361      0.1410
    122  CG       -15.5640   -9.8740    4.0420 C.2   361  ASP361      0.3668
    123  OD1      -16.1310   -9.4370    3.0140 O.co2 361  ASP361     -0.2456
    124  OD2      -14.7500  -10.8180    4.0200 O.co2 361  ASP361     -0.2456
@<TRIPOS>BOND
     1   108   106    1
     2    81    80    2
     3   106   107    1
     4   106   105    2
     5    80    79    1
     6   105   104    1
     7    79    78    1
     8    79    82    1
     9   104   103    1
    10   101   100    2
    11    82    83    1
    12    70    69    2
    13   103   102    1
    14   123   122   ar
    15   102    99    1
    16    99   100    1
    17    99    98    1
    18    69    68    1
    19   100   109   am
    20   124   122   ar
    21   122   121    1
    22   111   112    2
    23   111   110    1
    24   117   118    1
    25    71    68    1
    26    71    72    1
    27   109   110    1
    28    68    67    1
    29   119   118    1
    30   119   120    2
    31   110   113    1
    32   118   121    1
    33    61    60    2
    34    73    72    1
    35    73    74    1
    36    67    60   am
    37    91    90    2
    38    76    75    1
    39    60    59    1
    40   113   115    1
    41   113   114    1
    42    89    90    1
    43    89    88    1
    44    87    86    2
    45    90    92   am
    46    74    75    2
    47    75    77    1
    48   114   116    1
    49    58    59    1
    50    88    86   am
    51    59    62    1
    52    86    85    1
    53    84    85    1
    54    95    94    2
    55    94    93    1
    56    92    93    1
    57    52    51    2
    58    93    96    1
    59    62    63    1
    60    63    64    1
    61    51    50    1
    62    17    15   ar
    63    17    18   ar
    64    15    13   ar
    65    65    64    1
    66    65    66    1
    67    19    18    1
    68    96    97    1
    69    18    16   ar
    70    13    12    1
    71    13    14   ar
    72    50    49    1
    73    50    53    1
    74    54    55    1
    75    54    53    1
    76    12     9    1
    77    57    55   ar
    78    16    14   ar
    79    55    56   ar
    80    10     9    1
    81    10    11    2
    82     9     8    1
    83    47    46   ar
    84    21    20    1
    85    21    22    1
    86     8     3   am
    87    22    23    2
    88    22    24   am
    89    29    28    1
    90    29    30    1
    91    46    48   ar
    92    46    45    1
    93    24    25    1
    94     6     5    1
    95     4     3    2
    96     3     2    1
    97    31    30    2
    98    25    26    1
    99    30    32   am
   100    42    41    1
   101    42    45    1
   102    42    43    1
   103     5     2    1
   104     5     7    1
   105     2     1    1
   106    32    33    1
   107    44    43    2
   108    26    27    2
   109    33    34    1
   110    33    36    1
   111    39    38   ar
   112    34    35    2
   113    36    37    1
   114    38    37    1
   115    38    40   ar
