@<TRIPOS>MOLECULE
tmp/5aqxA00.pdb
 127 117 0 0 0
SMALL
GASTEIGER

@<TRIPOS>ATOM
      1  N        -11.0210    3.9790   -2.5140 N.3    12  THR12      -0.1203
      2  CA       -11.0160    5.4240   -2.7720 C.3    12  THR12       0.1994
      3  C        -11.6910    6.2270   -1.6370 C.2    12  THR12       0.2617
      4  O        -11.2050    7.3020   -1.2940 O.2    12  THR12      -0.2717
      5  CB       -11.6230    5.7370   -4.1690 C.3    12  THR12       0.1784
      6  OG1      -12.9830    5.3330   -4.1880 O.3    12  THR12      -0.2211
      7  CG2      -10.8860    5.0460   -5.3140 C.3    12  THR12       0.0376
      8  N        -12.8100    5.7100   -1.0800 N.am   13  TYR13      -0.1975
      9  CA       -13.5970    6.3680   -0.0290 C.3    13  TYR13       0.1639
     10  C        -13.9280    5.4230    1.1240 C.2    13  TYR13       0.2290
     11  O        -14.0400    4.2210    0.9370 O.2    13  TYR13      -0.2864
     12  CB       -14.9240    6.9250   -0.6230 C.3    13  TYR13       0.0560
     13  CG       -14.7490    8.1850   -1.4470 C.ar   13  TYR13      -0.0198
     14  CD1      -14.2810    8.1280   -2.7590 C.ar   13  TYR13      -0.0009
     15  CD2      -15.0790    9.4330   -0.9280 C.ar   13  TYR13      -0.0009
     16  CE1      -14.1000    9.2880   -3.5170 C.ar   13  TYR13       0.0417
     17  CE2      -14.9330   10.5960   -1.6870 C.ar   13  TYR13       0.0417
     18  CZ       -14.4320   10.5200   -2.9780 C.ar   13  TYR13       0.1957
     19  OH       -14.2470   11.6680   -3.7170 O.3    13  TYR13      -0.2866
     20  N        -19.3960   10.2020    3.0360 N.3    35  THR35      -0.1218
     21  CA       -18.2270    9.3610    2.7170 C.3    35  THR35       0.1862
     22  C        -16.9970   10.2540    2.7840 C.2    35  THR35       0.2287
     23  O        -17.0960   11.4590    2.5490 O.2    35  THR35      -0.2866
     24  CB       -18.3100    8.6600    1.3520 C.3    35  THR35       0.1770
     25  OG1      -18.1130    9.6160    0.3090 O.3    35  THR35      -0.2211
     26  CG2      -19.5920    7.8300    1.1680 C.3    35  THR35       0.0375
     27  N        -17.1470    0.6270   -7.9050 N.3   199  GLY199     -0.1210
     28  CA       -16.5780    1.7750   -7.2090 C.3   199  GLY199      0.1956
     29  C        -15.9630    2.7820   -8.1530 C.2   199  GLY199      0.2612
     30  O        -16.2430    2.7710   -9.3540 O.2   199  GLY199     -0.2717
     31  N        -15.1360    3.6560   -7.6140 N.am  200  GLY200     -0.1956
     32  CA       -14.4470    4.6530   -8.4220 C.3   200  GLY200      0.1869
     33  C        -13.2500    4.1020   -9.1600 C.2   200  GLY200      0.2309
     34  O        -12.8620    4.6600  -10.1830 O.2   200  GLY200     -0.2863
     35  N        -15.6590    4.1490  -11.6360 N.3   228  GLY228     -0.1210
     36  CA       -16.1230    5.5110  -11.8920 C.3   228  GLY228      0.1956
     37  C        -15.1260    6.4260  -12.5710 C.2   228  GLY228      0.2611
     38  O        -15.4900    7.0990  -13.5290 O.2   228  GLY228     -0.2717
     39  N        -13.8560    6.4100  -12.1250 N.am  229  GLU229     -0.1979
     40  CA       -12.7800    7.2400  -12.6900 C.3   229  GLU229      0.1602
     41  C        -12.5230    6.9970  -14.1920 C.2   229  GLU229      0.2287
     42  O        -11.9560    7.8670  -14.8510 O.2   229  GLU229     -0.2864
     43  CB       -11.4760    7.1060  -11.8770 C.3   229  GLU229      0.0415
     44  CG       -10.3100    7.9270  -12.3870 C.3   229  GLU229      0.1163
     45  CD       -10.3970    9.3930  -12.0170 C.2   229  GLU229      0.3649
     46  OE1      -11.3980    9.8050  -11.3950 O.co2 229  GLU229     -0.2457
     47  OE2       -9.4540   10.1440  -12.3470 O.co2 229  GLU229     -0.2457
     48  N        -14.9690    9.0130  -16.0410 N.3   232  ASP232     -0.1239
     49  CA       -14.5180   10.3910  -15.9260 C.3   232  ASP232      0.1674
     50  C        -13.5190   10.7140  -17.0210 C.2   232  ASP232      0.2266
     51  O        -13.5780   11.7660  -17.6460 O.2   232  ASP232     -0.2867
     52  CB       -13.8080   10.6050  -14.5850 C.3   232  ASP232      0.1410
     53  CG       -14.7530   10.6420  -13.4070 C.2   232  ASP232      0.3668
     54  OD1      -15.9730   10.6940  -13.6100 O.co2 232  ASP232     -0.2456
     55  OD2      -14.2600   10.6290  -12.2670 O.co2 232  ASP232     -0.2456
     56  N        -16.3090   14.6640  -13.4420 N.3   266  GLU266     -0.1245
     57  CA       -16.7840   13.8020  -12.3750 C.3   266  GLU266      0.1567
     58  C        -18.1160   14.3560  -11.8010 C.2   266  GLU266      0.2260
     59  O        -18.9960   13.5700  -11.4700 O.2   266  GLU266     -0.2867
     60  CB       -15.6790   13.5980  -11.3110 C.3   266  GLU266      0.0388
     61  CG       -16.0360   12.6140  -10.1980 C.3   266  GLU266      0.1160
     62  CD       -16.9060   13.1600   -9.0750 C.2   266  GLU266      0.3649
     63  OE1      -16.8920   14.3900   -8.8320 O.co2 266  GLU266     -0.2457
     64  OE2      -17.6110   12.3470   -8.4370 O.co2 266  GLU266     -0.2457
     65  N        -20.9560   14.0210  -14.6210 N.3   269  LYS269     -0.1231
     66  CA       -21.3040   12.6010  -14.6260 C.3   269  LYS269      0.1693
     67  C        -22.3610   12.2940  -13.5620 C.2   269  LYS269      0.2591
     68  O        -23.3940   11.6970  -13.8730 O.2   269  LYS269     -0.2718
     69  CB       -20.0460   11.7630  -14.3530 C.3   269  LYS269      0.0285
     70  CG       -20.3200   10.2730  -14.2510 C.3   269  LYS269      0.0035
     71  CD       -19.1030    9.5030  -13.7520 C.3   269  LYS269      0.0206
     72  CE       -18.7810    9.8560  -12.3150 C.3   269  LYS269      0.1093
     73  NZ       -17.6010    9.1200  -11.8570 N.3   269  LYS269     -0.1314
     74  N        -22.0900   12.7000  -12.3080 N.am  270  ARG270     -0.1980
     75  CA       -23.0160   12.5280  -11.1970 C.3   270  ARG270      0.1597
     76  C        -24.4070   13.1070  -11.5310 C.2   270  ARG270      0.2287
     77  O        -25.3940   12.3670  -11.4720 O.2   270  ARG270     -0.2864
     78  CB       -22.4510   13.1380   -9.9190 C.3   270  ARG270      0.0334
     79  CG       -21.3460   12.3120   -9.3120 C.3   270  ARG270      0.0492
     80  CD       -21.1360   12.7500   -7.8950 C.3   270  ARG270      0.2205
     81  NE       -19.9610   13.5990   -7.7860 N.pl3 270  ARG270     -0.0865
     82  CZ       -19.8050   14.5560   -6.8840 C.cat 270  ARG270      0.5346
     83  NH1      -20.7650   14.8070   -6.0000 N.pl3 270  ARG270      0.1354
     84  NH2      -18.6980   15.2840   -6.8680 N.pl3 270  ARG270      0.1354
     85  N        -26.6450   11.0060  -13.7360 N.3   273  SER273     -0.1217
     86  CA       -27.3150    9.8370  -13.1690 C.3   273  SER273      0.1889
     87  C        -28.7680   10.1400  -12.8040 C.2   273  SER273      0.2288
     88  O        -29.5650    9.2160  -12.6850 O.2   273  SER273     -0.2866
     89  CB       -26.5630    9.3160  -11.9490 C.3   273  SER273      0.2089
     90  OG       -25.3850    8.6250  -12.3300 O.3   273  SER273     -0.2183
     91  N        -21.2230    4.0200   -5.7560 N.3   337  GLY337     -0.1210
     92  CA       -21.8940    5.1510   -6.3950 C.3   337  GLY337      0.1956
     93  C        -22.1460    5.0060   -7.8790 C.2   337  GLY337      0.2612
     94  O        -23.2330    5.3660   -8.3340 O.2   337  GLY337     -0.2717
     95  N        -21.1670    4.4210   -8.6400 N.am  338  SER338     -0.1952
     96  CA       -21.2800    4.1800  -10.0860 C.3   338  SER338      0.1924
     97  C        -22.5250    3.3670  -10.4640 C.2   338  SER338      0.2314
     98  O        -22.9380    3.4120  -11.6230 O.2   338  SER338     -0.2863
     99  CB       -20.0270    3.5060  -10.6400 C.3   338  SER338      0.2116
    100  OG       -18.8740    4.3060  -10.4780 O.3   338  SER338     -0.2180
    101  N        -25.3710    4.0600   -9.6040 N.3   340  ARG340     -0.1231
    102  CA       -26.4540    5.0120   -9.7600 C.3   340  ARG340      0.1694
    103  C        -26.7070    5.3280  -11.2420 C.2   340  ARG340      0.2591
    104  O        -27.7420    5.8830  -11.5840 O.2   340  ARG340     -0.2718
    105  CB       -26.1410    6.3030   -9.0080 C.3   340  ARG340      0.0321
    106  CG       -26.2840    6.2060   -7.5000 C.3   340  ARG340      0.0489
    107  CD       -26.3810    7.5890   -6.8810 C.3   340  ARG340      0.2205
    108  NE       -26.6480    7.5410   -5.4480 N.pl3 340  ARG340     -0.0865
    109  CZ       -25.7080    7.5890   -4.5110 C.cat 340  ARG340      0.5346
    110  NH1      -24.4340    7.6830   -4.8530 N.pl3 340  ARG340      0.1354
    111  NH2      -26.0410    7.5370   -3.2330 N.pl3 340  ARG340      0.1354
    112  N        -25.7600    4.9750  -12.1100 N.am  341  ILE341     -0.1980
    113  CA       -25.8620    5.2390  -13.5560 C.3   341  ILE341      0.1595
    114  C        -27.0190    4.4330  -14.1860 C.2   341  ILE341      0.2287
    115  O        -26.9920    3.1970  -14.1870 O.2   341  ILE341     -0.2864
    116  CB       -24.5140    5.0790  -14.3230 C.3   341  ILE341      0.0276
    117  CG1      -23.4330    5.9780  -13.7010 C.3   341  ILE341      0.0022
    118  CG2      -24.7190    5.4120  -15.8270 C.3   341  ILE341      0.0022
    119  CD1      -21.9860    5.5240  -13.9480 C.3   341  ILE341      0.0001
    120  N        -23.3050    3.7410   -2.0570 N.3   364  ASP364     -0.1239
    121  CA       -22.0780    4.1910   -1.4160 C.3   364  ASP364      0.1674
    122  C        -22.0460    3.8010    0.0480 C.2   364  ASP364      0.2266
    123  O        -20.9860    3.5440    0.6050 O.2   364  ASP364     -0.2867
    124  CB       -21.9630    5.7030   -1.5050 C.3   364  ASP364      0.1410
    125  CG       -22.4940    6.2410   -2.7920 C.2   364  ASP364      0.3668
    126  OD1      -21.7670    6.1760   -3.7980 O.co2 364  ASP364     -0.2456
    127  OD2      -23.6430    6.7150   -2.7990 O.co2 364  ASP364     -0.2456
@<TRIPOS>BOND
     1    51    50    2
     2    50    49    1
     3    48    49    1
     4    49    52    1
     5   118   116    1
     6    42    41    2
     7    66    65    1
     8    66    69    1
     9    66    67    1
    10    52    53    1
    11    69    70    1
    12   116   117    1
    13   116   113    1
    14    70    71    1
    15    41    40    1
    16   115   114    2
    17   114   113    1
    18   119   117    1
    19    68    67    2
    20    71    72    1
    21    85    86    1
    22    54    53   ar
    23    67    74   am
    24   113   112    1
    25    38    37    2
    26    56    57    1
    27    53    55   ar
    28    86    87    1
    29    86    89    1
    30    87    88    2
    31    40    39    1
    32    40    43    1
    33    37    39   am
    34    37    36    1
    35    44    45    1
    36    44    43    1
    37    57    58    1
    38    57    60    1
    39    47    45   ar
    40    90    89    1
    41    72    73    1
    42    74    75    1
    43   112   103   am
    44    45    46   ar
    45    36    35    1
    46    58    59    2
    47    98    97    2
    48   104   103    2
    49    76    77    2
    50    76    75    1
    51    60    61    1
    52   103   102    1
    53    75    78    1
    54    99   100    1
    55    99    96    1
    56    97    96    1
    57    61    62    1
    58    34    33    2
    59    96    95    1
    60    78    79    1
    61   102   101    1
    62   102   105    1
    63    30    29    2
    64    79    80    1
    65    33    32    1
    66    62    63   ar
    67    62    64   ar
    68   105   106    1
    69    95    93   am
    70    32    31    1
    71    94    93    2
    72    29    31   am
    73    29    28    1
    74    27    28    1
    75    80    81    1
    76    93    92    1
    77    81    82    2
    78   106   107    1
    79    82    84    1
    80    82    83    1
    81   107   108    1
    82    92    91    1
    83   108   109    2
    84     7     5    1
    85   110   109    1
    86   109   111    1
    87     6     5    1
    88     5     2    1
    89   126   125   ar
    90    19    18    1
    91    16    18   ar
    92    16    14   ar
    93    18    17   ar
    94   127   125   ar
    95   125   124    1
    96     2     1    1
    97     2     3    1
    98    14    13   ar
    99   120   121    1
   100    17    15   ar
   101     3     4    2
   102     3     8   am
   103   124   121    1
   104    13    15   ar
   105    13    12    1
   106   121   122    1
   107     8     9    1
   108    12     9    1
   109     9    10    1
   110   122   123    2
   111    25    24    1
   112    11    10    2
   113    26    24    1
   114    24    21    1
   115    23    22    2
   116    21    22    1
   117    21    20    1
