@<TRIPOS>MOLECULE
tmp/5aqyA00.pdb
 126 117 0 0 0
SMALL
GASTEIGER

@<TRIPOS>ATOM
      1  N          6.0700   -6.5840   -3.2420 N.3    13  THR13      -0.1203
      2  CA         6.0180   -7.9560   -3.7710 C.3    13  THR13       0.1994
      3  C          6.7390   -8.9610   -2.8380 C.2    13  THR13       0.2617
      4  O          6.3160  -10.1180   -2.7290 O.2    13  THR13      -0.2717
      5  CB         6.5180   -8.0420   -5.2690 C.3    13  THR13       0.1784
      6  OG1        7.9370   -7.8390   -5.3260 O.3    13  THR13      -0.2211
      7  CG2        5.8100   -7.0380   -6.2320 C.3    13  THR13       0.0376
      8  N          7.8450   -8.5560   -2.2280 N.am   14  TYR14      -0.1975
      9  CA         8.6130   -9.4300   -1.3460 C.3    14  TYR14       0.1639
     10  C          9.0510   -8.6450   -0.1300 C.2    14  TYR14       0.2290
     11  O          9.2010   -7.4200   -0.1970 O.2    14  TYR14      -0.2864
     12  CB         9.8810   -9.9680   -2.0740 C.3    14  TYR14       0.0560
     13  CG         9.6330  -11.0770   -3.0680 C.ar   14  TYR14      -0.0198
     14  CD1        9.2250  -10.7960   -4.3710 C.ar   14  TYR14      -0.0009
     15  CD2        9.8340  -12.4100   -2.7200 C.ar   14  TYR14      -0.0009
     16  CE1        8.9820  -11.8200   -5.2870 C.ar   14  TYR14       0.0417
     17  CE2        9.5440  -13.4430   -3.6140 C.ar   14  TYR14       0.0417
     18  CZ         9.1530  -13.1410   -4.9030 C.ar   14  TYR14       0.1957
     19  OH         8.9120  -14.1520   -5.7980 O.3    14  TYR14      -0.2866
     20  N         12.4540   -2.7600   -8.6220 N.3   200  GLY200     -0.1210
     21  CA        12.0400   -4.0520   -8.1100 C.3   200  GLY200      0.1956
     22  C         11.1580   -4.8860   -9.0100 C.2   200  GLY200      0.2612
     23  O         11.2190   -4.7860  -10.2220 O.2   200  GLY200     -0.2717
     24  N         10.3710   -5.7550   -8.3860 N.am  201  GLY201     -0.1956
     25  CA         9.4400   -6.6140   -9.0880 C.3   201  GLY201      0.1869
     26  C          8.2920   -5.8990   -9.7780 C.2   201  GLY201      0.2309
     27  O          7.8880   -6.2820  -10.8680 O.2   201  GLY201     -0.2863
     28  N         10.1980   -5.6070  -12.7000 N.3   229  GLY229     -0.1210
     29  CA        10.5320   -6.9290  -13.2130 C.3   229  GLY229      0.1956
     30  C          9.3930   -7.6400  -13.9060 C.2   229  GLY229      0.2611
     31  O          9.6070   -8.2830  -14.9450 O.2   229  GLY229     -0.2717
     32  N          8.1630   -7.4960  -13.3590 N.am  230  GLU230     -0.1979
     33  CA         6.9780   -8.1290  -13.9550 C.3   230  GLU230      0.1602
     34  C          6.7130   -7.6360  -15.3780 C.2   230  GLU230      0.2287
     35  O          6.2250   -8.4080  -16.1920 O.2   230  GLU230     -0.2864
     36  CB         5.7280   -7.9930  -13.0780 C.3   230  GLU230      0.0415
     37  CG         5.0330   -6.6350  -13.1020 C.3   230  GLU230      0.1163
     38  CD         3.6350   -6.6470  -12.5110 C.2   230  GLU230      0.3649
     39  OE1        2.7000   -7.1370  -13.1880 O.co2 230  GLU230     -0.2457
     40  OE2        3.4780   -6.1770  -11.3610 O.co2 230  GLU230     -0.2457
     41  N          9.0340   -9.5630  -17.5830 N.3   233  ASP233     -0.1239
     42  CA         8.4850  -10.9220  -17.7420 C.3   233  ASP233      0.1674
     43  C          7.3860  -10.9100  -18.8000 C.2   233  ASP233      0.2266
     44  O          7.3770  -11.8050  -19.6400 O.2   233  ASP233     -0.2867
     45  CB         7.8960  -11.4460  -16.4320 C.3   233  ASP233      0.1410
     46  CG         8.8920  -11.6130  -15.3090 C.2   233  ASP233      0.3668
     47  OD1       10.1170  -11.5880  -15.5860 O.co2 233  ASP233     -0.2456
     48  OD2        8.4500  -11.8060  -14.1540 O.co2 233  ASP233     -0.2456
     49  N         10.6790  -15.8100  -16.4650 N.3   267  GLU267     -0.1245
     50  CA        11.2940  -15.1560  -15.3140 C.3   267  GLU267      0.1567
     51  C         12.6650  -15.8070  -14.9390 C.2   267  GLU267      0.2260
     52  O         13.6030  -15.0810  -14.6130 O.2   267  GLU267     -0.2867
     53  CB        10.3100  -15.1550  -14.1350 C.3   267  GLU267      0.0388
     54  CG        10.7230  -14.2560  -12.9780 C.3   267  GLU267      0.1160
     55  CD        11.6770  -14.8700  -11.9730 C.2   267  GLU267      0.3649
     56  OE1       11.8140  -16.1160  -11.9410 O.co2 267  GLU267     -0.2457
     57  OE2       12.2860  -14.0940  -11.2020 O.co2 267  GLU267     -0.2457
     58  N         15.2350  -15.0260  -17.6640 N.3   270  LYS270     -0.1231
     59  CA        15.5720  -13.6150  -17.4250 C.3   270  LYS270      0.1693
     60  C         16.7260  -13.4950  -16.3970 C.2   270  LYS270      0.2591
     61  O         17.6730  -12.7350  -16.6230 O.2   270  LYS270     -0.2718
     62  CB        14.3360  -12.8520  -16.9290 C.3   270  LYS270      0.0285
     63  CG        14.6180  -11.3770  -16.6240 C.3   270  LYS270      0.0035
     64  CD        13.4220  -10.6840  -15.9880 C.3   270  LYS270      0.0206
     65  CE        13.1550  -11.1250  -14.5720 C.3   270  LYS270      0.1093
     66  NZ        12.0190  -10.3600  -13.9690 N.3   270  LYS270     -0.1314
     67  N         16.6510  -14.2570  -15.2930 N.am  271  ARG271     -0.1980
     68  CA        17.7170  -14.2570  -14.2760 C.3   271  ARG271      0.1597
     69  C         19.0350  -14.7780  -14.8510 C.2   271  ARG271      0.2287
     70  O         20.0680  -14.1620  -14.6200 O.2   271  ARG271     -0.2864
     71  CB        17.3060  -15.0430  -13.0370 C.3   271  ARG271      0.0334
     72  CG        16.1550  -14.3920  -12.2870 C.3   271  ARG271      0.0492
     73  CD        16.0550  -15.0110  -10.9160 C.3   271  ARG271      0.2205
     74  NE        14.8690  -14.5580  -10.1970 N.pl3 271  ARG271     -0.0865
     75  CZ        14.8040  -14.4300   -8.8770 C.cat 271  ARG271      0.5346
     76  NH1       15.8640  -14.6980   -8.1260 N.pl3 271  ARG271      0.1354
     77  NH2       13.6880  -14.0160   -8.3000 N.pl3 271  ARG271      0.1354
     78  N         21.2220  -12.3090  -16.8350 N.3   274  SER274     -0.1202
     79  CA        22.0170  -11.3140  -16.1340 C.3   274  SER274      0.2020
     80  C         23.4680  -11.7900  -15.9460 C.2   274  SER274      0.2619
     81  O         24.3460  -10.9570  -15.7000 O.2   274  SER274     -0.2717
     82  CB        21.3910  -10.9650  -14.7900 C.3   274  SER274      0.2103
     83  OG        20.1600  -10.3140  -15.0470 O.3   274  SER274     -0.2182
     84  N         23.7040  -13.1200  -16.0800 N.am  275  SER275     -0.1951
     85  CA        25.0050  -13.7990  -15.9130 C.3   275  SER275      0.1924
     86  C         25.5690  -14.4080  -17.2110 C.2   275  SER275      0.2314
     87  O         26.7930  -14.5200  -17.3570 O.2   275  SER275     -0.2863
     88  CB        24.8920  -14.8930  -14.8540 C.3   275  SER275      0.2116
     89  OG        24.4740  -14.3490  -13.6140 O.3   275  SER275     -0.2180
     90  N         15.8880   -6.1290   -7.0510 N.3   338  GLY338     -0.1210
     91  CA        16.3450   -7.2900   -7.8050 C.3   338  GLY338      0.1956
     92  C         16.5750   -7.0500   -9.2860 C.2   338  GLY338      0.2612
     93  O         17.5010   -7.6180   -9.8730 O.2   338  GLY338     -0.2717
     94  N         15.7600   -6.1820   -9.8990 N.am  339  SER339     -0.1952
     95  CA        15.9120   -5.8740  -11.3200 C.3   339  SER339      0.1924
     96  C         17.1780   -5.0740  -11.6600 C.2   339  SER339      0.2314
     97  O         17.5540   -5.0250  -12.8310 O.2   339  SER339     -0.2863
     98  CB        14.6610   -5.1810  -11.8500 C.3   339  SER339      0.2116
     99  OG        13.5190   -6.0040  -11.7050 O.3   339  SER339     -0.2180
    100  N         20.0540   -6.0250  -11.1940 N.3   341  ARG341     -0.1231
    101  CA        21.0390   -7.0420  -11.5740 C.3   341  ARG341      0.1694
    102  C         21.1820   -7.1140  -13.1020 C.2   341  ARG341      0.2591
    103  O         22.1670   -7.6460  -13.6080 O.2   341  ARG341     -0.2718
    104  CB        20.6160   -8.4210  -11.0560 C.3   341  ARG341      0.0321
    105  CG        20.8660   -8.5760   -9.5570 C.3   341  ARG341      0.0489
    106  CD        20.9190  -10.0500   -9.1900 C.3   341  ARG341      0.2205
    107  NE        21.1570  -10.2260   -7.7560 N.pl3 341  ARG341     -0.0865
    108  CZ        20.1960  -10.2260   -6.8420 C.cat 341  ARG341      0.5346
    109  NH1       18.9280  -10.0880   -7.2040 N.pl3 341  ARG341      0.1354
    110  NH2       20.4940  -10.3800   -5.5570 N.pl3 341  ARG341      0.1354
    111  N         20.1960   -6.5840  -13.8410 N.am  342  ILE342     -0.1980
    112  CA        20.2180   -6.5990  -15.3060 C.3   342  ILE342      0.1595
    113  C         21.3870   -5.7630  -15.8280 C.2   342  ILE342      0.2287
    114  O         21.3840   -4.5490  -15.6100 O.2   342  ILE342     -0.2864
    115  CB        18.8580   -6.1240  -15.8720 C.3   342  ILE342      0.0276
    116  CG1       17.7180   -7.0500  -15.3800 C.3   342  ILE342      0.0022
    117  CG2       18.9040   -6.0880  -17.4250 C.3   342  ILE342      0.0022
    118  CD1       16.2350   -6.5140  -15.6340 C.3   342  ILE342      0.0001
    119  N         18.5150   -6.9080   -3.3410 N.3   365  ASP365     -0.1239
    120  CA        17.3030   -7.4140   -2.7240 C.3   365  ASP365      0.1674
    121  C         17.3070   -7.2230   -1.2100 C.2   365  ASP365      0.2266
    122  O         16.2600   -7.1820   -0.5860 O.2   365  ASP365     -0.2867
    123  CB        17.1630   -8.9100   -2.9900 C.3   365  ASP365      0.1410
    124  CG        16.9280   -9.2270   -4.4400 C.2   365  ASP365      0.3668
    125  OD1       16.0610   -8.5840   -5.0570 O.co2 365  ASP365     -0.2456
    126  OD2       17.6010  -10.1340   -4.9520 O.co2 365  ASP365     -0.2456
@<TRIPOS>BOND
     1    44    43    2
     2    43    42    1
     3    42    41    1
     4    42    45    1
     5    58    59    1
     6   117   115    1
     7    59    62    1
     8    59    60    1
     9    87    86    2
    10    86    85    1
    11    62    63    1
    12    78    79    1
    13    63    64    1
    14    61    60    2
    15    49    50    1
    16    45    46    1
    17    60    67   am
    18    35    34    2
    19    79    80    1
    20    79    82    1
    21    84    80   am
    22    84    85    1
    23    64    65    1
    24    80    81    2
    25    85    88    1
    26   115   116    1
    27   115   112    1
    28   113   114    2
    29   113   112    1
    30   118   116    1
    31    47    46   ar
    32    34    33    1
    33    50    51    1
    34    50    53    1
    35    46    48   ar
    36   112   111    1
    37    67    68    1
    38    83    82    1
    39    31    30    2
    40    51    52    2
    41    88    89    1
    42    69    70    2
    43    69    68    1
    44    65    66    1
    45    68    71    1
    46    53    54    1
    47    33    32    1
    48    33    36    1
    49    30    32   am
    50    30    29    1
    51   111   102   am
    52   103   102    2
    53    29    28    1
    54    39    38   ar
    55   102   101    1
    56    37    36    1
    57    37    38    1
    58    71    72    1
    59    54    55    1
    60    97    96    2
    61    38    40   ar
    62    72    73    1
    63    55    56   ar
    64    55    57   ar
    65    98    99    1
    66    98    95    1
    67    96    95    1
    68   101   100    1
    69   101   104    1
    70    95    94    1
    71   104   105    1
    72    73    74    1
    73    27    26    2
    74    23    22    2
    75    74    75    2
    76    94    92   am
    77    93    92    2
    78    26    25    1
    79   105   106    1
    80    92    91    1
    81   106   107    1
    82    25    24    1
    83    22    24   am
    84    22    21    1
    85    75    77    1
    86    75    76    1
    87    20    21    1
    88    91    90    1
    89   107   108    2
    90   109   108    1
    91   108   110    1
    92     7     5    1
    93    19    18    1
    94     6     5    1
    95    16    18   ar
    96    16    14   ar
    97     5     2    1
    98   125   124   ar
    99   126   124   ar
   100    18    17   ar
   101   124   123    1
   102    14    13   ar
   103     2     1    1
   104     2     3    1
   105    17    15   ar
   106   119   120    1
   107    13    15   ar
   108    13    12    1
   109   123   120    1
   110     3     4    2
   111     3     8   am
   112   120   121    1
   113     8     9    1
   114    12     9    1
   115     9    10    1
   116   121   122    2
   117    11    10    2
