@<TRIPOS>MOLECULE
tmp/5aqzA00.pdb
 113 104 0 0 0
SMALL
GASTEIGER

@<TRIPOS>ATOM
      1  N          7.5340   -8.7090   -1.7580 N.3    17  TYR17      -0.1241
      2  CA         8.3690   -9.5730   -0.9050 C.3    17  TYR17       0.1605
      3  C          8.8130   -8.8210    0.3260 C.2    17  TYR17       0.2264
      4  O          9.0350   -7.6150    0.2700 O.2    17  TYR17      -0.2867
      5  CB         9.6250  -10.0790   -1.6530 C.3    17  TYR17       0.0534
      6  CG         9.3670  -11.2130   -2.6250 C.ar   17  TYR17      -0.0201
      7  CD1        8.9320  -10.9580   -3.9230 C.ar   17  TYR17      -0.0009
      8  CD2        9.5840  -12.5400   -2.2580 C.ar   17  TYR17      -0.0009
      9  CE1        8.7020  -11.9990   -4.8300 C.ar   17  TYR17       0.0417
     10  CE2        9.3160  -13.5900   -3.1400 C.ar   17  TYR17       0.0417
     11  CZ         8.8880  -13.3120   -4.4310 C.ar   17  TYR17       0.1957
     12  OH         8.6480  -14.3330   -5.3190 O.3    17  TYR17      -0.2866
     13  N         12.1230   -2.6480   -8.3450 N.3   203  GLY203     -0.1210
     14  CA        11.6290   -3.9150   -7.8260 C.3   203  GLY203      0.1956
     15  C         10.8120   -4.7170   -8.8150 C.2   203  GLY203      0.2612
     16  O         11.0050   -4.6170  -10.0400 O.2   203  GLY203     -0.2717
     17  N          9.8980   -5.5150   -8.2650 N.am  204  GLY204     -0.1956
     18  CA         9.0260   -6.4050   -9.0200 C.3   204  GLY204      0.1869
     19  C          7.9640   -5.7100   -9.8450 C.2   204  GLY204      0.2309
     20  O          7.6490   -6.1610  -10.9520 O.2   204  GLY204     -0.2863
     21  N         10.1580   -5.5030  -12.6930 N.3   232  GLY232     -0.1210
     22  CA        10.5110   -6.8270  -13.1940 C.3   232  GLY232      0.1956
     23  C          9.4010   -7.5480  -13.9290 C.2   232  GLY232      0.2611
     24  O          9.6570   -8.1960  -14.9570 O.2   232  GLY232     -0.2717
     25  N          8.1410   -7.4040  -13.4260 N.am  233  GLU233     -0.1979
     26  CA         6.9540   -8.0440  -14.0160 C.3   233  GLU233      0.1602
     27  C          6.7050   -7.5800  -15.4740 C.2   233  GLU233      0.2287
     28  O          6.2560   -8.3820  -16.2980 O.2   233  GLU233     -0.2864
     29  CB         5.7050   -7.8930  -13.1260 C.3   233  GLU233      0.0415
     30  CG         5.0630   -6.5100  -13.0620 C.3   233  GLU233      0.1163
     31  CD         3.7050   -6.4720  -12.3870 C.2   233  GLU233      0.3649
     32  OE1        2.7300   -6.9970  -12.9740 O.co2 233  GLU233     -0.2457
     33  OE2        3.6160   -5.9320  -11.2600 O.co2 233  GLU233     -0.2457
     34  N          9.1530   -9.6120  -17.6060 N.3   236  ASP236     -0.1239
     35  CA         8.5840  -10.9690  -17.7430 C.3   236  ASP236      0.1674
     36  C          7.4940  -10.9550  -18.8400 C.2   236  ASP236      0.2266
     37  O          7.4870  -11.8470  -19.6860 O.2   236  ASP236     -0.2867
     38  CB         7.9620  -11.4420  -16.4160 C.3   236  ASP236      0.1410
     39  CG         8.9240  -11.5900  -15.2530 C.2   236  ASP236      0.3668
     40  OD1       10.1510  -11.5800  -15.4880 O.co2 236  ASP236     -0.2456
     41  OD2        8.4520  -11.6930  -14.1060 O.co2 236  ASP236     -0.2456
     42  N         10.6500  -15.6800  -16.3260 N.3   270  GLU270     -0.1245
     43  CA        11.2220  -15.0190  -15.1490 C.3   270  GLU270      0.1567
     44  C         12.5580  -15.6800  -14.7430 C.2   270  GLU270      0.2260
     45  O         13.5040  -14.9790  -14.3750 O.2   270  GLU270     -0.2867
     46  CB        10.2190  -15.0360  -13.9920 C.3   270  GLU270      0.0388
     47  CG        10.6290  -14.1780  -12.8020 C.3   270  GLU270      0.1160
     48  CD        11.6090  -14.7960  -11.8220 C.2   270  GLU270      0.3649
     49  OE1       11.6330  -16.0400  -11.6920 O.co2 270  GLU270     -0.2457
     50  OE2       12.3750  -14.0310  -11.1980 O.co2 270  GLU270     -0.2457
     51  N         15.1330  -14.9190  -17.4960 N.3   273  LYS273     -0.1231
     52  CA        15.4930  -13.5050  -17.2900 C.3   273  LYS273      0.1693
     53  C         16.6320  -13.3870  -16.2400 C.2   273  LYS273      0.2591
     54  O         17.6140  -12.6840  -16.4810 O.2   273  LYS273     -0.2718
     55  CB        14.2620  -12.7000  -16.8320 C.3   273  LYS273      0.0285
     56  CG        14.5700  -11.2260  -16.5090 C.3   273  LYS273      0.0035
     57  CD        13.3930  -10.4930  -15.8510 C.3   273  LYS273      0.0206
     58  CE        13.1310  -10.9380  -14.4340 C.3   273  LYS273      0.1093
     59  NZ        11.9700  -10.2030  -13.8540 N.3   273  LYS273     -0.1314
     60  N         16.5230  -14.1210  -15.1270 N.am  274  ARG274     -0.1980
     61  CA        17.5530  -14.1090  -14.0690 C.3   274  ARG274      0.1597
     62  C         18.8910  -14.6400  -14.5860 C.2   274  ARG274      0.2287
     63  O         19.9280  -14.0460  -14.3140 O.2   274  ARG274     -0.2864
     64  CB        17.1060  -14.9170  -12.8520 C.3   274  ARG274      0.0334
     65  CG        15.9470  -14.3130  -12.0930 C.3   274  ARG274      0.0492
     66  CD        15.9120  -14.9310  -10.7020 C.3   274  ARG274      0.2205
     67  NE        14.7610  -14.4690   -9.9310 N.pl3 274  ARG274     -0.0865
     68  CZ        14.6940  -14.4640   -8.6050 C.cat 274  ARG274      0.5346
     69  NH1       15.7220  -14.8890   -7.8800 N.pl3 274  ARG274      0.1354
     70  NH2       13.6060  -14.0170   -7.9920 N.pl3 274  ARG274      0.1354
     71  N         21.1930  -12.2850  -16.5650 N.3   277  SER277     -0.1217
     72  CA        21.9560  -11.2830  -15.8140 C.3   277  SER277      0.1889
     73  C         23.4170  -11.7380  -15.5580 C.2   277  SER277      0.2288
     74  O         24.2630  -10.9030  -15.2190 O.2   277  SER277     -0.2866
     75  CB        21.2770  -10.9530  -14.4890 C.3   277  SER277      0.2089
     76  OG        20.0420  -10.2980  -14.7220 O.3   277  SER277     -0.2183
     77  N         15.7960   -6.3710   -6.7840 N.3   341  GLY341     -0.1210
     78  CA        16.3610   -7.4620   -7.5720 C.3   341  GLY341      0.1956
     79  C         16.5610   -7.1880   -9.0490 C.2   341  GLY341      0.2612
     80  O         17.4940   -7.7330   -9.6440 O.2   341  GLY341     -0.2717
     81  N         15.7220   -6.3120   -9.6470 N.am  342  SER342     -0.1952
     82  CA        15.8230   -5.9510  -11.0630 C.3   342  SER342      0.1924
     83  C         17.0750   -5.1290  -11.3880 C.2   342  SER342      0.2314
     84  O         17.4860   -5.0780  -12.5470 O.2   342  SER342     -0.2863
     85  CB        14.5550   -5.2470  -11.5480 C.3   342  SER342      0.2116
     86  OG        13.3990   -6.0440  -11.3480 O.3   342  SER342     -0.2180
     87  N         19.9480   -6.0330  -10.8670 N.3   344  ARG344     -0.1231
     88  CA        20.9910   -6.9980  -11.2390 C.3   344  ARG344      0.1694
     89  C         21.1770   -7.0560  -12.7790 C.2   344  ARG344      0.2591
     90  O         22.1730   -7.6080  -13.2670 O.2   344  ARG344     -0.2718
     91  CB        20.6350   -8.4040  -10.7400 C.3   344  ARG344      0.0321
     92  CG        20.9000   -8.5930   -9.2570 C.3   344  ARG344      0.0489
     93  CD        20.7630  -10.0510   -8.8870 C.3   344  ARG344      0.2205
     94  NE        21.3120  -10.3340   -7.5610 N.pl3 344  ARG344     -0.0865
     95  CZ        20.6270  -10.2340   -6.4260 C.cat 344  ARG344      0.5346
     96  NH1       19.3570   -9.8450   -6.4380 N.pl3 344  ARG344      0.1354
     97  NH2       21.2100  -10.5110   -5.2700 N.pl3 344  ARG344      0.1354
     98  N         20.2090   -6.5180  -13.5380 N.am  345  ILE345     -0.1980
     99  CA        20.2530   -6.5230  -15.0130 C.3   345  ILE345      0.1595
    100  C         21.4440   -5.6820  -15.5180 C.2   345  ILE345      0.2287
    101  O         21.4830   -4.4790  -15.2300 O.2   345  ILE345     -0.2864
    102  CB        18.8920   -6.1300  -15.6620 C.3   345  ILE345      0.0276
    103  CG1       17.7490   -7.0810  -15.1940 C.3   345  ILE345      0.0022
    104  CG2       19.0130   -6.1190  -17.2190 C.3   345  ILE345      0.0022
    105  CD1       16.2670   -6.5370  -15.3570 C.3   345  ILE345      0.0001
    106  N         18.1830   -6.8950   -2.9860 N.3   368  ASP368     -0.1239
    107  CA        16.9620   -7.3960   -2.3870 C.3   368  ASP368      0.1674
    108  C         16.9770   -7.2790   -0.8620 C.2   368  ASP368      0.2266
    109  O         15.9320   -7.2510   -0.2270 O.2   368  ASP368     -0.2867
    110  CB        16.7560   -8.8580   -2.7730 C.3   368  ASP368      0.1410
    111  CG        16.3790   -9.0260   -4.2200 C.2   368  ASP368      0.3668
    112  OD1       15.5880   -8.2100   -4.7270 O.co2 368  ASP368     -0.2456
    113  OD2       16.8720   -9.9760   -4.8510 O.co2 368  ASP368     -0.2456
@<TRIPOS>BOND
     1    37    36    2
     2    36    35    1
     3    35    34    1
     4    35    38    1
     5    51    52    1
     6    52    55    1
     7    52    53    1
     8   104   102    1
     9    55    56    1
    10    71    72    1
    11    56    57    1
    12    54    53    2
    13    38    39    1
    14    42    43    1
    15    28    27    2
    16    53    60   am
    17    57    58    1
    18    72    73    1
    19    72    75    1
    20   102   103    1
    21   102    99    1
    22    73    74    2
    23   100   101    2
    24   100    99    1
    25    40    39   ar
    26    27    26    1
    27   105   103    1
    28    39    41   ar
    29    43    44    1
    30    43    46    1
    31    60    61    1
    32    99    98    1
    33    24    23    2
    34    44    45    2
    35    76    75    1
    36    62    63    2
    37    62    61    1
    38    58    59    1
    39    61    64    1
    40    26    25    1
    41    26    29    1
    42    46    47    1
    43    23    25   am
    44    23    22    1
    45    98    89   am
    46    90    89    2
    47    22    21    1
    48    29    30    1
    49    30    31    1
    50    32    31   ar
    51    64    65    1
    52    47    48    1
    53    89    88    1
    54    84    83    2
    55    31    33   ar
    56    65    66    1
    57    48    49   ar
    58    48    50   ar
    59    85    86    1
    60    85    82    1
    61    83    82    1
    62    88    87    1
    63    88    91    1
    64    82    81    1
    65    20    19    2
    66    91    92    1
    67    66    67    1
    68    16    15    2
    69    67    68    2
    70    19    18    1
    71    81    79   am
    72    80    79    2
    73    92    93    1
    74    79    78    1
    75    18    17    1
    76    93    94    1
    77    15    17   am
    78    15    14    1
    79    68    70    1
    80    68    69    1
    81    13    14    1
    82    78    77    1
    83    94    95    2
    84    96    95    1
    85    95    97    1
    86    12    11    1
    87   113   111   ar
    88     9    11   ar
    89     9     7   ar
    90   112   111   ar
    91    11    10   ar
    92   111   110    1
    93     7     6   ar
    94    10     8   ar
    95   106   107    1
    96   110   107    1
    97     6     8   ar
    98     6     5    1
    99   107   108    1
   100     1     2    1
   101     5     2    1
   102     2     3    1
   103   108   109    2
   104     4     3    2
