@<TRIPOS>MOLECULE
tmp/5ar0A00.pdb
 143 131 0 0 0
SMALL
GASTEIGER

@<TRIPOS>ATOM
      1  N         13.7450    3.5660   -2.9880 N.3    12  THR12      -0.1203
      2  CA        13.8370    5.0000   -3.3100 C.3    12  THR12       0.1994
      3  C         13.1010    5.8630   -2.3090 C.2    12  THR12       0.2617
      4  O         13.5260    6.9820   -2.0580 O.2    12  THR12      -0.2717
      5  CB        13.3430    5.2590   -4.7510 C.3    12  THR12       0.1784
      6  OG1       11.9520    4.9390   -4.8180 O.3    12  THR12      -0.2211
      7  CG2       14.0690    4.4080   -5.7760 C.3    12  THR12       0.0376
      8  N         11.9840    5.3540   -1.7650 N.am   13  TYR13      -0.1975
      9  CA        11.1560    6.0720   -0.7870 C.3    13  TYR13       0.1639
     10  C         10.7780    5.1960    0.3680 C.2    13  TYR13       0.2290
     11  O         10.5850    3.9960    0.1930 O.2    13  TYR13      -0.2864
     12  CB         9.8570    6.6060   -1.4460 C.3    13  TYR13       0.0560
     13  CG        10.0700    7.9060   -2.1880 C.ar   13  TYR13      -0.0198
     14  CD1       10.5150    7.9140   -3.5100 C.ar   13  TYR13      -0.0009
     15  CD2        9.7800    9.1240   -1.5920 C.ar   13  TYR13      -0.0009
     16  CE1       10.7080    9.1100   -4.2010 C.ar   13  TYR13       0.0417
     17  CE2        9.9360   10.3250   -2.2850 C.ar   13  TYR13       0.0417
     18  CZ        10.4010   10.3110   -3.5870 C.ar   13  TYR13       0.1957
     19  OH        10.5620   11.4940   -4.2550 O.3    13  TYR13      -0.2866
     20  N          5.1080   15.6120    3.5570 N.3    31  ASN31      -0.1240
     21  CA         5.0120   14.4780    2.6450 C.3    31  ASN31       0.1653
     22  C          4.7800   13.1590    3.3800 C.2    31  ASN31       0.2266
     23  O          5.3850   12.9100    4.4080 O.2    31  ASN31      -0.2867
     24  CB         6.2620   14.4020    1.7740 C.3    31  ASN31       0.1155
     25  CG         6.4970   15.6750    0.9850 C.2    31  ASN31       0.2627
     26  OD1        5.5730   16.2450    0.4240 O.2    31  ASN31      -0.2716
     27  ND2        7.7380   16.1270    0.9480 N.am   31  ASN31      -0.0877
     28  N          5.4570   10.2200    2.2000 N.3    33  THR33      -0.1218
     29  CA         6.5860    9.3470    1.9030 C.3    33  THR33       0.1862
     30  C          7.8400   10.1980    1.9620 C.2    33  THR33       0.2287
     31  O          7.7860   11.4150    1.7200 O.2    33  THR33      -0.2866
     32  CB         6.4350    8.4850    0.6200 C.3    33  THR33       0.1770
     33  OG1        6.6270    9.2890   -0.5400 O.3    33  THR33      -0.2211
     34  CG2        5.1030    7.7000    0.5670 C.3    33  THR33       0.0375
     35  N         14.0270   14.3650    2.1240 N.3    49  ASP49      -0.1239
     36  CA        13.7780   15.4450    1.1630 C.3    49  ASP49       0.1674
     37  C         14.9980   16.3550    1.0140 C.2    49  ASP49       0.2266
     38  O         15.4130   16.6200   -0.1150 O.2    49  ASP49      -0.2867
     39  CB        12.5420   16.2720    1.5850 C.3    49  ASP49       0.1410
     40  CG        11.2570   15.4680    1.4750 C.2    49  ASP49       0.3668
     41  OD1       11.0020   14.9010    0.3840 O.co2  49  ASP49      -0.2456
     42  OD2       10.4930   15.4280    2.4670 O.co2  49  ASP49      -0.2456
     43  N          7.3550    0.6100   -8.1800 N.3   197  GLY197     -0.1210
     44  CA         7.8760    1.7020   -7.3610 C.3   197  GLY197      0.1956
     45  C          8.7220    2.6880   -8.1200 C.2   197  GLY197      0.2612
     46  O          8.4950    2.9240   -9.3140 O.2   197  GLY197     -0.2717
     47  N          9.6660    3.2790   -7.4020 N.am  198  GLY198     -0.1956
     48  CA        10.6300    4.2030   -7.9530 C.3   198  GLY198      0.1869
     49  C         11.6670    3.5840   -8.8750 C.2   198  GLY198      0.2309
     50  O         12.0360    4.1690   -9.8790 O.2   198  GLY198     -0.2863
     51  N          9.6610    3.9880  -11.5920 N.3   226  GLY226     -0.1210
     52  CA         9.4140    5.4120  -11.7700 C.3   226  GLY226      0.1956
     53  C         10.5450    6.1830  -12.4000 C.2   226  GLY226      0.2611
     54  O         10.2870    7.0220  -13.2590 O.2   226  GLY226     -0.2717
     55  N         11.8120    5.8890  -12.0070 N.am  227  GLU227     -0.1979
     56  CA        12.9990    6.5830  -12.5710 C.3   227  GLU227      0.1602
     57  C         13.1580    6.3940  -14.0990 C.2   227  GLU227      0.2287
     58  O         13.6470    7.2930  -14.7790 O.2   227  GLU227     -0.2864
     59  CB        14.2930    6.1770  -11.8340 C.3   227  GLU227      0.0415
     60  CG        14.7010    4.7250  -11.9870 C.3   227  GLU227      0.1163
     61  CD        15.8050    4.3200  -11.0310 C.2   227  GLU227      0.3649
     62  OE1       16.5580    5.2060  -10.5710 O.co2 227  GLU227     -0.2457
     63  OE2       15.9200    3.1070  -10.7460 O.co2 227  GLU227     -0.2457
     64  N         10.8270    8.7790  -15.7300 N.3   230  ASP230     -0.1239
     65  CA        11.3970   10.1380  -15.5860 C.3   230  ASP230      0.1674
     66  C         12.4440   10.3370  -16.6750 C.2   230  ASP230      0.2266
     67  O         12.4890   11.4130  -17.2750 O.2   230  ASP230     -0.2867
     68  CB        12.1160   10.3230  -14.2400 C.3   230  ASP230      0.1410
     69  CG        11.2490   10.2610  -13.0140 C.2   230  ASP230      0.3668
     70  OD1       10.0250   10.2650  -13.1610 O.co2 230  ASP230     -0.2456
     71  OD2       11.8030   10.2700  -11.9000 O.co2 230  ASP230     -0.2456
     72  N         10.1580   14.4060  -13.1490 N.3   264  GLU264     -0.1245
     73  CA         9.4630   13.5730  -12.1480 C.3   264  GLU264      0.1567
     74  C          8.2030   14.3020  -11.6630 C.2   264  GLU264      0.2260
     75  O          7.1880   13.6610  -11.4610 O.2   264  GLU264     -0.2867
     76  CB        10.3570   13.2070  -10.9400 C.3   264  GLU264      0.0388
     77  CG         9.6580   12.2510   -9.9620 C.3   264  GLU264      0.1160
     78  CD        10.3280   11.9850   -8.6260 C.2   264  GLU264      0.3649
     79  OE1       11.4130   12.5610   -8.3840 O.co2 264  GLU264     -0.2457
     80  OE2        9.7660   11.2090   -7.8130 O.co2 264  GLU264     -0.2457
     81  N          5.5140   14.2610  -14.4600 N.3   267  LYS267     -0.1231
     82  CA         4.9790   12.9020  -14.5080 C.3   267  LYS267      0.1693
     83  C          3.9000   12.6970  -13.4420 C.2   267  LYS267      0.2591
     84  O          2.8310   12.1660  -13.7560 O.2   267  LYS267     -0.2718
     85  CB         6.1190   11.8990  -14.3220 C.3   267  LYS267      0.0285
     86  CG         5.6880   10.4430  -14.2400 C.3   267  LYS267      0.0035
     87  CD         6.8460    9.5800  -13.7420 C.3   267  LYS267      0.0206
     88  CE         7.0720    9.7060  -12.2470 C.3   267  LYS267      0.1093
     89  NZ         8.1690    8.7970  -11.7570 N.3   267  LYS267     -0.1314
     90  N          4.1640   13.1140  -12.1890 N.am  268  ARG268     -0.1980
     91  CA         3.1840   12.9680  -11.1010 C.3   268  ARG268      0.1597
     92  C          1.8870   13.7210  -11.3750 C.2   268  ARG268      0.2287
     93  O          0.8170   13.1720  -11.1410 O.2   268  ARG268     -0.2864
     94  CB         3.7750   13.3530   -9.7360 C.3   268  ARG268      0.0334
     95  CG         4.9400   12.4590   -9.2950 C.3   268  ARG268      0.0492
     96  CD         5.2880   12.6170   -7.8200 C.3   268  ARG268      0.2205
     97  NE         5.3650   14.0150   -7.3910 N.pl3 268  ARG268     -0.0865
     98  CZ         6.4970   14.6710   -7.1730 C.cat 268  ARG268      0.5346
     99  NH1        7.6660   14.0580   -7.3130 N.pl3 268  ARG268      0.1354
    100  NH2        6.4700   15.9400   -6.7950 N.pl3 268  ARG268      0.1354
    101  N         -0.7510   12.1850  -13.7130 N.3   271  SER271     -0.1217
    102  CA        -1.5900   11.0970  -13.1950 C.3   271  SER271      0.1889
    103  C         -2.9420   11.6460  -12.7840 C.2   271  SER271      0.2288
    104  O         -3.8980   10.8840  -12.7180 O.2   271  SER271     -0.2866
    105  CB        -0.9360   10.4200  -11.9980 C.3   271  SER271      0.2089
    106  OG         0.1630    9.6400  -12.4270 O.3   271  SER271     -0.2183
    107  N          4.2150    3.8870   -5.9490 N.3   335  GLY335     -0.1210
    108  CA         3.8150    5.1900   -6.4660 C.3   335  GLY335      0.1956
    109  C          3.5030    5.2280   -7.9440 C.2   335  GLY335      0.2612
    110  O          2.6240    5.9770   -8.3510 O.2   335  GLY335     -0.2717
    111  N          4.2040    4.4160   -8.7590 N.am  336  SER336     -0.1952
    112  CA         4.0100    4.3870  -10.2100 C.3   336  SER336      0.1924
    113  C          2.6890    3.7500  -10.6480 C.2   336  SER336      0.2314
    114  O          2.2950    3.9300  -11.8050 O.2   336  SER336     -0.2863
    115  CB         5.1790    3.6990  -10.9030 C.3   336  SER336      0.2116
    116  OG         6.4220    4.2880  -10.5770 O.3   336  SER336     -0.2180
    117  N         -0.0270    4.7100   -9.7580 N.3   338  ARG338     -0.1231
    118  CA        -0.9120    5.8650   -9.8300 C.3   338  ARG338      0.1694
    119  C         -1.1580    6.2710  -11.2830 C.2   338  ARG338      0.2591
    120  O         -2.1270    6.9490  -11.5840 O.2   338  ARG338     -0.2718
    121  CB        -0.3310    7.0560   -9.0730 C.3   338  ARG338      0.0321
    122  CG        -0.3570    6.8330   -7.5770 C.3   338  ARG338      0.0489
    123  CD        -0.2320    8.1830   -6.9340 C.3   338  ARG338      0.2205
    124  NE        -0.2050    7.9870   -5.5030 N.pl3 338  ARG338     -0.0865
    125  CZ        -1.1030    8.4510   -4.6550 C.cat 338  ARG338      0.5346
    126  NH1       -2.1130    9.1600   -5.1170 N.pl3 338  ARG338      0.1354
    127  NH2       -0.9870    8.1210   -3.3760 N.pl3 338  ARG338      0.1354
    128  N         -0.2560    5.8880  -12.1770 N.am  339  ILE339     -0.1980
    129  CA        -0.3970    6.2580  -13.5780 C.3   339  ILE339      0.1595
    130  C         -1.6260    5.5790  -14.1910 C.2   339  ILE339      0.2287
    131  O         -1.7330    4.3610  -14.1930 O.2   339  ILE339     -0.2864
    132  CB         0.8800    5.8590  -14.3610 C.3   339  ILE339      0.0276
    133  CG1        2.1150    6.5500  -13.7700 C.3   339  ILE339      0.0022
    134  CG2        0.7560    6.1890  -15.8370 C.3   339  ILE339      0.0022
    135  CD1        3.4270    6.0720  -14.3550 C.3   339  ILE339      0.0001
    136  N          1.5770    3.9120   -2.5820 N.3   362  ASP362     -0.1239
    137  CA         2.9050    4.1050   -1.9940 C.3   362  ASP362      0.1674
    138  C          2.8100    4.0380   -0.4670 C.2   362  ASP362      0.2266
    139  O          3.8280    4.1150    0.2120 O.2   362  ASP362     -0.2867
    140  CB         3.5250    5.4510   -2.4610 C.3   362  ASP362      0.1410
    141  CG         2.5320    6.5750   -2.6610 C.2   362  ASP362      0.3668
    142  OD1        1.6460    6.7370   -1.8160 O.co2 362  ASP362     -0.2456
    143  OD2        2.6010    7.2430   -3.7050 O.co2 362  ASP362     -0.2456
@<TRIPOS>BOND
     1    67    66    2
     2    66    65    1
     3   134   132    1
     4    64    65    1
     5    65    68    1
     6    58    57    2
     7    82    81    1
     8    82    85    1
     9    82    83    1
    10   132   133    1
    11   132   129    1
    12   135   133    1
    13    85    86    1
    14    86    87    1
    15    68    69    1
    16   131   130    2
    17   130   129    1
    18    57    56    1
    19    84    83    2
    20    87    88    1
    21   101   102    1
    22   129   128    1
    23    83    90   am
    24    54    53    2
    25   102   103    1
    26   102   105    1
    27    70    69   ar
    28    72    73    1
    29    69    71   ar
    30   103   104    2
    31    56    55    1
    32    56    59    1
    33   106   105    1
    34    53    55   am
    35    53    52    1
    36    88    89    1
    37    90    91    1
    38   128   119   am
    39    73    74    1
    40    73    76    1
    41    60    59    1
    42    60    61    1
    43   114   113    2
    44    52    51    1
    45    74    75    2
    46   120   119    2
    47    92    93    2
    48    92    91    1
    49   119   118    1
    50    91    94    1
    51    61    63   ar
    52    61    62   ar
    53    76    77    1
    54   115   116    1
    55   115   112    1
    56   113   112    1
    57   112   111    1
    58    77    78    1
    59    50    49    2
    60   118   117    1
    61   118   121    1
    62    94    95    1
    63    46    45    2
    64    95    96    1
    65   121   122    1
    66    49    48    1
    67   111   109   am
    68    78    79   ar
    69    78    80   ar
    70   110   109    2
    71    43    44    1
    72    45    47   am
    73    45    44    1
    74    48    47    1
    75   109   108    1
    76    96    97    1
    77   122   123    1
    78    97    98    2
    79    99    98    1
    80    98   100    1
    81   123   124    1
    82   108   107    1
    83     7     5    1
    84   124   125    2
    85   126   125    1
    86     6     5    1
    87     5     2    1
    88   125   127    1
    89    19    18    1
    90    16    18   ar
    91    16    14   ar
    92   143   141   ar
    93    18    17   ar
    94    14    13   ar
    95     2     1    1
    96     2     3    1
    97   141   140    1
    98   141   142   ar
    99   136   137    1
   100   140   137    1
   101     3     4    2
   102     3     8   am
   103    17    15   ar
   104    13    15   ar
   105    13    12    1
   106   137   138    1
   107     8     9    1
   108    12     9    1
   109     9    10    1
   110    33    32    1
   111   138   139    2
   112    38    37    2
   113    11    10    2
   114    41    40   ar
   115    26    25    2
   116    34    32    1
   117    32    29    1
   118    27    25   am
   119    25    24    1
   120    37    36    1
   121    36    39    1
   122    36    35    1
   123    40    39    1
   124    40    42   ar
   125    31    30    2
   126    24    21    1
   127    29    30    1
   128    29    28    1
   129    21    22    1
   130    21    20    1
   131    22    23    2
