@<TRIPOS>MOLECULE
tmp/5ar3A00.pdb
 177 163 0 0 0
SMALL
GASTEIGER

@<TRIPOS>ATOM
      1  N         84.4960   66.1790   24.4930 N.3    19  LEU19      -0.1231
      2  CA        84.2190   64.7470   24.5930 C.3    19  LEU19       0.1693
      3  C         85.0900   63.9420   23.6250 C.2    19  LEU19       0.2592
      4  O         85.7900   63.0080   24.0260 O.2    19  LEU19      -0.2718
      5  CB        82.7340   64.4820   24.3060 C.3    19  LEU19       0.0284
      6  CG        82.1550   63.0780   24.5000 C.3    19  LEU19       0.0019
      7  CD1       81.9640   62.7740   25.9810 C.3    19  LEU19       0.0001
      8  CD2       80.8310   62.9620   23.7600 C.3    19  LEU19       0.0001
      9  N         85.0370   64.3230   22.3500 N.am   20  SER20      -0.1952
     10  CA        85.7580   63.6400   21.2790 C.3    20  SER20       0.1924
     11  C         86.1320   64.6140   20.1540 C.2    20  SER20       0.2314
     12  O         85.3060   65.4270   19.7300 O.2    20  SER20      -0.2863
     13  CB        84.8900   62.4960   20.7340 C.3    20  SER20       0.2116
     14  OG        85.4200   61.9340   19.5470 O.3    20  SER20      -0.2180
     15  N         87.8450   64.8510   16.2250 N.3    22  GLY22      -0.1210
     16  CA        88.2460   64.1700   14.9990 C.3    22  GLY22       0.1956
     17  C         88.5910   65.2020   13.9420 C.2    22  GLY22       0.2612
     18  O         88.3190   66.3930   14.1230 O.2    22  GLY22      -0.2717
     19  N         89.1890   64.7490   12.8410 N.am   23  ALA23      -0.1965
     20  CA        89.5790   65.6350   11.7370 C.3    23  ALA23       0.1728
     21  C         88.3820   66.4170   11.1770 C.2    23  ALA23       0.2617
     22  O         87.4160   65.8160   10.7010 O.2    23  ALA23      -0.2715
     23  CB        90.2690   64.8370   10.6350 C.3    23  ALA23       0.0334
     24  N         88.4550   67.7480   11.2610 N.am   24  SER24      -0.1936
     25  CA        87.4160   68.6770   10.7590 C.3    24  SER24       0.2055
     26  C         86.3550   69.1050   11.7820 C.2    24  SER24       0.2643
     27  O         85.6520   70.0980   11.5670 O.2    24  SER24      -0.2714
     28  CB        86.7310   68.1580    9.4780 C.3    24  SER24       0.2130
     29  OG        87.6490   68.0430    8.4040 O.3    24  SER24      -0.2179
     30  N         86.2440   68.3780   12.8910 N.am   25  GLY25      -0.1954
     31  CA        85.2370   68.7140   13.8940 C.3    25  GLY25       0.1869
     32  C         85.5980   68.3920   15.3260 C.2    25  GLY25       0.2309
     33  O         86.7020   67.9340   15.6160 O.2    25  GLY25      -0.2863
     34  N         83.3770   66.9610   18.9490 N.3    27  VAL27      -0.1245
     35  CA        82.1730   66.5910   19.6700 C.3    27  VAL27       0.1561
     36  C         82.4080   66.8820   21.1470 C.2    27  VAL27       0.2260
     37  O         83.4690   66.5690   21.6960 O.2    27  VAL27      -0.2867
     38  CB        81.7970   65.1050   19.4400 C.3    27  VAL27       0.0252
     39  CG1       80.6460   64.6720   20.3420 C.3    27  VAL27       0.0019
     40  CG2       81.4470   64.8630   17.9770 C.3    27  VAL27       0.0019
     41  N         74.6470   66.0040   23.4750 N.3    40  ALA40      -0.1245
     42  CA        75.9310   65.9870   22.7940 C.3    40  ALA40       0.1562
     43  C         75.9180   67.0400   21.6860 C.2    40  ALA40       0.2260
     44  O         74.8910   67.2500   21.0340 O.2    40  ALA40      -0.2867
     45  CB        76.2190   64.6090   22.2330 C.3    40  ALA40       0.0290
     46  N         77.9980   68.5330   18.2350 N.3    42  LYS42      -0.1245
     47  CA        78.9800   68.2850   17.1920 C.3    42  LYS42       0.1561
     48  C         79.2330   69.6020   16.4570 C.2    42  LYS42       0.2260
     49  O         78.3850   70.0670   15.6900 O.2    42  LYS42      -0.2867
     50  CB        78.4670   67.1960   16.2400 C.3    42  LYS42       0.0271
     51  CG        79.4750   66.7060   15.2140 C.3    42  LYS42       0.0035
     52  CD        78.8360   65.7430   14.2250 C.3    42  LYS42       0.0206
     53  CE        79.8380   65.3220   13.1620 C.3    42  LYS42       0.1093
     54  NZ        79.2740   64.3600   12.1760 N.3    42  LYS42      -0.1314
     55  N         73.9300   67.4110    7.2270 N.3    56  GLU56      -0.1245
     56  CA        73.8310   66.3510    8.2280 C.3    56  GLU56       0.1567
     57  C         72.6150   66.5580    9.1370 C.2    56  GLU56       0.2260
     58  O         71.8220   65.6360    9.3440 O.2    56  GLU56      -0.2867
     59  CB        75.1240   66.2280    9.0430 C.3    56  GLU56       0.0388
     60  CG        75.1040   65.0530   10.0130 C.3    56  GLU56       0.1160
     61  CD        76.4560   64.7190   10.6200 C.2    56  GLU56       0.3649
     62  OE1       77.4430   65.4350   10.3510 O.co2  56  GLU56      -0.2457
     63  OE2       76.5290   63.7210   11.3720 O.co2  56  GLU56      -0.2457
     64  N         70.3070   57.9500   15.5710 N.3    69  LEU69      -0.1245
     65  CA        70.6160   58.9470   16.6000 C.3    69  LEU69       0.1561
     66  C         69.6570   60.1280   16.5380 C.2    69  LEU69       0.2260
     67  O         69.6200   60.8330   15.5340 O.2    69  LEU69      -0.2867
     68  CB        72.0650   59.4410   16.4780 C.3    69  LEU69       0.0270
     69  CG        72.5400   60.5770   17.4020 C.3    69  LEU69       0.0019
     70  CD1       72.4140   60.2440   18.8850 C.3    69  LEU69       0.0001
     71  CD2       73.9750   60.9460   17.0710 C.3    69  LEU69       0.0001
     72  N         72.3350   66.5950   19.5590 N.3    85  THR85      -0.1203
     73  CA        71.6750   65.3030   19.5790 C.3    85  THR85       0.1994
     74  C         71.5310   64.8360   21.0160 C.2    85  THR85       0.2618
     75  O         71.8790   65.5610   21.9510 O.2    85  THR85      -0.2717
     76  CB        72.4770   64.2430   18.7930 C.3    85  THR85       0.1784
     77  OG1       73.7220   63.9720   19.4540 O.3    85  THR85      -0.2211
     78  CG2       72.7310   64.7080   17.3680 C.3    85  THR85       0.0376
     79  N         71.0050   63.6290   21.1870 N.am   86  GLU86      -0.1965
     80  CA        70.8980   63.0380   22.5050 C.3    86  GLU86       0.1733
     81  C         72.2650   62.5410   22.8800 C.2    86  GLU86       0.2616
     82  O         73.1070   62.3040   22.0070 O.2    86  GLU86      -0.2715
     83  CB        69.9400   61.8620   22.5060 C.3    86  GLU86       0.0429
     84  CG        68.4920   62.2440   22.3420 C.3    86  GLU86       0.1163
     85  CD        67.5790   61.0500   22.4310 C.2    86  GLU86       0.3649
     86  OE1       68.0730   59.9460   22.7510 O.co2  86  GLU86      -0.2457
     87  OE2       66.3690   61.2210   22.1690 O.co2  86  GLU86      -0.2457
     88  N         72.4910   62.3950   24.1790 N.am   87  TYR87      -0.1960
     89  CA        73.7600   61.8830   24.6460 C.3    87  TYR87       0.1771
     90  C         73.7060   60.3690   24.7620 C.2    87  TYR87       0.2619
     91  O         72.8110   59.8160   25.3950 O.2    87  TYR87      -0.2715
     92  CB        74.1960   62.5250   25.9710 C.3    87  TYR87       0.0574
     93  CG        75.4360   61.8750   26.5300 C.ar   87  TYR87      -0.0198
     94  CD1       76.6760   62.0320   25.9010 C.ar   87  TYR87      -0.0009
     95  CD2       75.3700   61.0750   27.6710 C.ar   87  TYR87      -0.0009
     96  CE1       77.8140   61.4180   26.4010 C.ar   87  TYR87       0.0417
     97  CE2       76.5020   60.4610   28.1810 C.ar   87  TYR87       0.0417
     98  CZ        77.7160   60.6330   27.5420 C.ar   87  TYR87       0.1957
     99  OH        78.8280   60.0170   28.0510 O.3    87  TYR87      -0.2866
    100  N         74.6660   59.7100   24.1270 N.am   88  MET88      -0.1977
    101  CA        74.7720   58.2660   24.1910 C.3    88  MET88       0.1605
    102  C         75.7930   57.8930   25.2730 C.2    88  MET88       0.2287
    103  O         77.0030   58.0330   25.0740 O.2    88  MET88      -0.2864
    104  CB        75.1410   57.6900   22.8180 C.3    88  MET88       0.0413
    105  CG        74.1110   57.9110   21.7110 C.3    88  MET88       0.0598
    106  SD        72.4500   57.2800   22.0630 S.3    88  MET88      -0.1393
    107  CE        71.6010   58.7220   22.6970 C.3    88  MET88       0.0692
    108  N         78.9160   55.2180   24.4390 N.3    91  GLY91      -0.1210
    109  CA        79.8300   55.4340   23.3220 C.3    91  GLY91       0.1956
    110  C         79.4880   54.6880   22.0510 C.2    91  GLY91       0.2612
    111  O         78.3340   54.6640   21.6220 O.2    91  GLY91      -0.2717
    112  N         80.4980   54.0660   21.4530 N.am   92  SER92      -0.1952
    113  CA        80.3060   53.3560   20.1970 C.3    92  SER92       0.1924
    114  C         80.4630   51.8510   20.3330 C.2    92  SER92       0.2314
    115  O         81.0440   51.3450   21.3050 O.2    92  SER92      -0.2863
    116  CB        81.2810   53.8720   19.1360 C.3    92  SER92       0.2116
    117  OG        82.6100   53.4570   19.4130 O.3    92  SER92      -0.2180
    118  N         84.0920   50.6570   20.7790 N.3    95  GLU95      -0.1245
    119  CA        84.6390   50.5980   22.1180 C.3    95  GLU95       0.1567
    120  C         84.2080   49.3170   22.8300 C.2    95  GLU95       0.2260
    121  O         85.0500   48.6140   23.3910 O.2    95  GLU95      -0.2867
    122  CB        84.2210   51.8360   22.9000 C.3    95  GLU95       0.0388
    123  CG        84.5620   53.1380   22.1900 C.3    95  GLU95       0.1160
    124  CD        83.8640   54.3440   22.7890 C.2    95  GLU95       0.3649
    125  OE1       83.7510   54.4240   24.0340 O.co2  95  GLU95      -0.2457
    126  OE2       83.4350   55.2230   22.0100 O.co2  95  GLU95      -0.2457
    127  N         80.4120   52.0230   10.1670 N.3   138  LYS138     -0.1245
    128  CA        81.5550   51.4870   10.8980 C.3   138  LYS138      0.1561
    129  C         81.1970   51.4310   12.3720 C.2   138  LYS138      0.2260
    130  O         80.3040   52.1550   12.8260 O.2   138  LYS138     -0.2867
    131  CB        82.8270   52.3160   10.6670 C.3   138  LYS138      0.0271
    132  CG        82.7070   53.8180   10.8660 C.3   138  LYS138      0.0035
    133  CD        84.0500   54.4690   10.5800 C.3   138  LYS138      0.0206
    134  CE        83.9640   55.9820   10.4670 C.3   138  LYS138      0.1093
    135  NZ        85.2840   56.5870   10.1340 N.3   138  LYS138     -0.1314
    136  N         82.4880   52.6470   14.9140 N.3   140  GLN140     -0.1231
    137  CA        82.6460   53.9310   15.6180 C.3   140  GLN140      0.1698
    138  C         81.4330   54.8290   15.3830 C.2   140  GLN140      0.2592
    139  O         81.1280   55.6950   16.2130 O.2   140  GLN140     -0.2718
    140  CB        83.9150   54.6800   15.1990 C.3   140  GLN140      0.0381
    141  CG        85.2200   53.8930   15.2410 C.3   140  GLN140      0.0905
    142  CD        85.4780   53.0560   13.9860 C.2   140  GLN140      0.2608
    143  OE1       84.6110   52.3150   13.5120 O.2   140  GLN140     -0.2717
    144  NE2       86.6910   53.1620   13.4540 N.am  140  GLN140     -0.0878
    145  N         80.7570   54.6260   14.2490 N.am  141  ASN141     -0.1974
    146  CA        79.5540   55.3860   13.8890 C.3   141  ASN141      0.1688
    147  C         78.2650   54.7310   14.3850 C.2   141  ASN141      0.2292
    148  O         77.1550   55.1920   14.0880 O.2   141  ASN141     -0.2864
    149  CB        79.4810   55.6160   12.3800 C.3   141  ASN141      0.1181
    150  CG        80.4940   56.6310   11.8860 C.2   141  ASN141      0.2629
    151  OD1       81.0460   57.4290   12.6570 O.2   141  ASN141     -0.2716
    152  ND2       80.7230   56.6290   10.5810 N.am  141  ASN141     -0.0877
    153  N         76.4780   54.0640   17.6770 N.3   143  LEU143     -0.1245
    154  CA        76.4330   54.4340   19.0880 C.3   143  LEU143      0.1561
    155  C         75.4910   53.5770   19.9360 C.2   143  LEU143      0.2260
    156  O         74.5160   53.0060   19.4280 O.2   143  LEU143     -0.2867
    157  CB        76.0870   55.9190   19.2260 C.3   143  LEU143      0.0270
    158  CG        76.9470   56.9080   18.4210 C.3   143  LEU143      0.0019
    159  CD1       76.3950   58.3200   18.5320 C.3   143  LEU143      0.0001
    160  CD2       78.4120   56.8560   18.8370 C.3   143  LEU143      0.0001
    161  N         74.7600   56.7950   13.6790 N.3   153  ALA153     -0.1231
    162  CA        75.1640   58.1960   13.5900 C.3   153  ALA153      0.1694
    163  C         76.1800   58.4670   12.4710 C.2   153  ALA153      0.2592
    164  O         76.6320   57.5410   11.7970 O.2   153  ALA153     -0.2718
    165  CB        75.7090   58.6550   14.9350 C.3   153  ALA153      0.0304
    166  N         76.5150   59.7480   12.2840 N.am  154  ASP154     -0.1974
    167  CA        77.5000   60.2130   11.2910 C.3   154  ASP154      0.1709
    168  C         76.9670   60.1080    9.8620 C.2   154  ASP154      0.2293
    169  O         77.3380   59.2120    9.1030 O.2   154  ASP154     -0.2864
    170  CB        78.8450   59.4770   11.4640 C.3   154  ASP154      0.1436
    171  CG        79.9950   60.0880   10.6490 C.2   154  ASP154      0.3671
    172  OD1       79.7770   61.0050    9.8270 O.co2 154  ASP154     -0.2456
    173  OD2       81.1440   59.6300   10.8430 O.co2 154  ASP154     -0.2456
    174  N         77.5850   62.1690    7.5030 N.3   156  GLY156     -0.1225
    175  CA        78.4760   63.0570    6.7620 C.3   156  GLY156      0.1811
    176  C         78.6420   62.6450    5.3140 C.2   156  GLY156      0.2280
    177  O         78.7200   63.5040    4.4360 O.2   156  GLY156     -0.2866
@<TRIPOS>BOND
     1   177   176    2
     2   176   175    1
     3   175   174    1
     4    55    56    1
     5    56    59    1
     6    56    57    1
     7    29    28    1
     8    59    60    1
     9   169   168    2
    10    57    58    2
    11    28    25    1
    12   172   171   ar
    13   168   167    1
    14    60    61    1
    15   135   134    1
    16   127   128    1
    17    62    61   ar
    18   134   133    1
    19   133   132    1
    20   152   150   am
    21    61    63   ar
    22    23    20    1
    23   171   173   ar
    24   171   170    1
    25   131   132    1
    26   131   128    1
    27    22    21    2
    28    25    24    1
    29    25    26    1
    30   128   129    1
    31    21    24   am
    32    21    20    1
    33   167   170    1
    34   167   166    1
    35    27    26    2
    36    20    19    1
    37    26    30   am
    38   164   163    2
    39   150   149    1
    40   150   151    2
    41    54    53    1
    42   166   163   am
    43   129   130    2
    44   149   146    1
    45   163   162    1
    46    19    17   am
    47    30    31    1
    48    53    52    1
    49   144   142   am
    50   143   142    2
    51   162   161    1
    52   162   165    1
    53   146   145    1
    54   146   147    1
    55    31    32    1
    56    17    18    2
    57    17    16    1
    58   142   141    1
    59   148   147    2
    60    52    51    1
    61   145   138   am
    62   136   137    1
    63    16    15    1
    64   140   141    1
    65   140   137    1
    66    51    50    1
    67    32    33    2
    68   138   137    1
    69   138   139    2
    70    67    66    2
    71    64    65    1
    72    49    48    2
    73    50    47    1
    74    48    47    1
    75    68    65    1
    76    68    69    1
    77    66    65    1
    78    71    69    1
    79    47    46    1
    80    78    76    1
    81    69    70    1
    82   153   154    1
    83    40    38    1
    84   158   159    1
    85   158   160    1
    86   158   157    1
    87    76    77    1
    88    76    73    1
    89    34    35    1
    90   154   157    1
    91   154   155    1
    92   116   117    1
    93   116   113    1
    94   156   155    2
    95    38    35    1
    96    38    39    1
    97    14    13    1
    98    72    73    1
    99    73    74    1
   100    35    36    1
   101    12    11    2
   102    11    10    1
   103   113   114    1
   104   113   112    1
   105   114   115    2
   106    13    10    1
   107   118   119    1
   108    74    79   am
   109    74    75    2
   110    44    43    2
   111    36    37    2
   112    79    80    1
   113    10     9    1
   114   112   110   am
   115   111   110    2
   116    43    42    1
   117   105   106    1
   118   105   104    1
   119    82    81    2
   120   126   124   ar
   121   110   109    1
   122   106   107    1
   123   119   120    1
   124   119   122    1
   125    87    85   ar
   126   123   124    1
   127   123   122    1
   128    45    42    1
   129    84    85    1
   130    84    83    1
   131     9     3   am
   132    85    86   ar
   133    80    83    1
   134    80    81    1
   135   124   125   ar
   136    42    41    1
   137   104   101    1
   138   120   121    2
   139    81    88   am
   140   109   108    1
   141     3     4    2
   142     3     2    1
   143     8     6    1
   144   100   101    1
   145   100    90   am
   146    88    89    1
   147   101   102    1
   148     5     6    1
   149     5     2    1
   150     1     2    1
   151     6     7    1
   152    89    90    1
   153    89    92    1
   154    90    91    2
   155   103   102    2
   156    94    96   ar
   157    94    93   ar
   158    92    93    1
   159    96    98   ar
   160    93    95   ar
   161    98    99    1
   162    98    97   ar
   163    95    97   ar
