@<TRIPOS>MOLECULE
tmp/5ar4B00.pdb
 177 164 0 0 0
SMALL
GASTEIGER

@<TRIPOS>ATOM
      1  N         44.2820   45.8490   20.4320 N.3    19  LEU19      -0.1231
      2  CA        44.9550   45.9410   21.7210 C.3    19  LEU19       0.1693
      3  C         43.9670   46.5190   22.7240 C.2    19  LEU19       0.2593
      4  O         43.7010   45.9160   23.7630 O.2    19  LEU19      -0.2718
      5  CB        46.1590   46.8700   21.6680 C.3    19  LEU19       0.0284
      6  CG        47.4070   46.3820   21.0400 C.3    19  LEU19       0.0019
      7  CD1       48.4320   47.5210   21.0240 C.3    19  LEU19       0.0001
      8  CD2       47.9380   45.1640   21.7610 C.3    19  LEU19       0.0001
      9  N         43.4430   47.7040   22.4130 N.am   20  SER20      -0.1938
     10  CA        42.5190   48.4160   23.2730 C.3    20  SER20       0.2055
     11  C         41.8400   49.5510   22.5250 C.2    20  SER20       0.2643
     12  O         42.0320   49.7390   21.3250 O.2    20  SER20      -0.2714
     13  CB        43.2720   48.9990   24.4720 C.3    20  SER20       0.2130
     14  OG        44.0940   50.0900   24.0830 O.3    20  SER20      -0.2179
     15  N         41.0450   50.3020   23.2760 N.am   21  ARG21      -0.1963
     16  CA        40.4620   51.5690   22.8880 C.3    21  ARG21       0.1729
     17  C         41.5500   52.5660   23.3640 C.2    21  ARG21       0.2617
     18  O         42.2250   52.3040   24.3810 O.2    21  ARG21      -0.2715
     19  CB        39.1470   51.8480   23.6440 C.3    21  ARG21       0.0348
     20  CG        38.0320   50.8480   23.3560 C.3    21  ARG21       0.0492
     21  CD        37.4930   50.2690   24.6550 C.3    21  ARG21       0.2205
     22  NE        36.2150   49.5730   24.4720 N.pl3  21  ARG21      -0.0865
     23  CZ        35.0190   50.1320   24.6500 C.cat  21  ARG21       0.5346
     24  NH1       34.9190   51.4070   25.0130 N.pl3  21  ARG21       0.1354
     25  NH2       33.9150   49.4210   24.4650 N.pl3  21  ARG21       0.1354
     26  N         41.7510   53.6420   22.5990 N.am   22  GLY22      -0.1940
     27  CA        42.6990   54.6960   22.9320 C.3    22  GLY22       0.2014
     28  C         41.9650   55.8520   23.5660 C.2    22  GLY22       0.2638
     29  O         41.0290   55.6380   24.3490 O.2    22  GLY22      -0.2714
     30  N         42.3840   57.0890   23.2300 N.am   23  ALA23      -0.1977
     31  CA        41.7130   58.3080   23.6790 C.3    23  ALA23       0.1597
     32  C         40.3970   58.2920   22.8940 C.2    23  ALA23       0.2287
     33  O         39.3290   57.9890   23.4510 O.2    23  ALA23      -0.2864
     34  CB        42.5390   59.5270   23.3030 C.3    23  ALA23       0.0319
     35  N         43.1960   51.0460   19.1320 N.3    27  VAL27      -0.1245
     36  CA        44.6410   50.9280   19.0940 C.3    27  VAL27       0.1561
     37  C         44.8940   49.4760   18.7320 C.2    27  VAL27       0.2260
     38  O         44.4330   48.5560   19.4130 O.2    27  VAL27      -0.2867
     39  CB        45.3200   51.3130   20.4440 C.3    27  VAL27       0.0252
     40  CG1       46.8340   51.1590   20.3420 C.3    27  VAL27       0.0019
     41  CG2       44.9540   52.7320   20.8790 C.3    27  VAL27       0.0019
     42  N         52.2160   50.3220   16.2850 N.3    40  ALA40      -0.1245
     43  CA        50.8930   50.5460   16.8770 C.3    40  ALA40       0.1562
     44  C         50.1010   51.4100   15.8740 C.2    40  ALA40       0.2260
     45  O         50.6680   52.2960   15.2410 O.2    40  ALA40      -0.2867
     46  CB        51.0220   51.2830   18.1920 C.3    40  ALA40       0.0290
     47  N         46.4970   53.6900   15.6150 N.3    42  LYS42      -0.1245
     48  CA        45.2890   54.2540   16.2380 C.3    42  LYS42       0.1561
     49  C         44.3850   54.6360   15.0890 C.2    42  LYS42       0.2260
     50  O         44.7410   55.5080   14.3050 O.2    42  LYS42      -0.2867
     51  CB        45.5850   55.4760   17.1140 C.3    42  LYS42       0.0271
     52  CG        44.4790   55.8100   18.1080 C.3    42  LYS42       0.0035
     53  CD        44.6750   57.2390   18.5850 C.3    42  LYS42       0.0206
     54  CE        43.9910   57.5540   19.8830 C.3    42  LYS42       0.1093
     55  NZ        44.5970   58.7490   20.5310 N.3    42  LYS42      -0.1314
     56  N         45.9780   65.0280   15.5850 N.3    55  GLU55      -0.1245
     57  CA        46.8160   64.2900   16.5320 C.3    55  GLU55       0.1567
     58  C         48.1980   63.9650   15.9010 C.2    55  GLU55       0.2260
     59  O         49.2460   64.2890   16.4820 O.2    55  GLU55      -0.2867
     60  CB        46.1090   63.0370   17.0590 C.3    55  GLU55       0.0388
     61  CG        46.9490   62.3030   18.0930 C.3    55  GLU55       0.1160
     62  CD        46.3150   61.1600   18.8660 C.2    55  GLU55       0.3649
     63  OE1       45.2230   60.6930   18.4670 O.co2  55  GLU55      -0.2457
     64  OE2       46.9270   60.7170   19.8680 O.co2  55  GLU55      -0.2457
     65  N         51.8390   65.0090   17.3200 N.3    59  LEU59      -0.1245
     66  CA        52.8860   64.0030   17.5850 C.3    59  LEU59       0.1561
     67  C         54.1110   64.2470   16.7380 C.2    59  LEU59       0.2260
     68  O         55.2190   64.1150   17.2360 O.2    59  LEU59      -0.2867
     69  CB        52.3880   62.5610   17.3380 C.3    59  LEU59       0.0270
     70  CG        51.2840   62.0330   18.2380 C.3    59  LEU59       0.0019
     71  CD1       50.5700   60.8770   17.5830 C.3    59  LEU59       0.0001
     72  CD2       51.8170   61.6920   19.6180 C.3    59  LEU59       0.0001
     73  N         55.6920   59.8700   22.5660 N.3    68  LEU68      -0.1245
     74  CA        55.4150   58.7240   21.6740 C.3    68  LEU68       0.1561
     75  C         55.8540   59.0140   20.2240 C.2    68  LEU68       0.2260
     76  O         55.3600   59.9780   19.6380 O.2    68  LEU68      -0.2867
     77  CB        53.9210   58.3320   21.7250 C.3    68  LEU68       0.0270
     78  CG        53.4370   57.1650   20.8610 C.3    68  LEU68       0.0019
     79  CD1       54.1660   55.8610   21.1900 C.3    68  LEU68       0.0001
     80  CD2       51.9510   56.9730   21.0110 C.3    68  LEU68       0.0001
     81  N         46.7470   56.5200   12.6920 N.3    82  ILE82      -0.1245
     82  CA        48.0660   57.0510   13.0370 C.3    82  ILE82       0.1561
     83  C         48.9420   55.8490   13.3850 C.2    82  ILE82       0.2260
     84  O         48.5210   54.9720   14.1540 O.2    82  ILE82      -0.2867
     85  CB        48.0530   58.1150   14.1670 C.3    82  ILE82       0.0252
     86  CG1       47.0860   59.2640   13.8610 C.3    82  ILE82       0.0019
     87  CG2       49.4590   58.6510   14.4180 C.3    82  ILE82       0.0019
     88  CD1       46.3690   59.7890   15.0660 C.3    82  ILE82       0.0001
     89  N         52.4840   54.5710   15.0050 N.3    84  THR84      -0.1203
     90  CA        53.5860   54.9530   15.9110 C.3    84  THR84       0.1994
     91  C         54.4870   53.7490   16.2050 C.2    84  THR84       0.2618
     92  O         54.1610   52.6270   15.7970 O.2    84  THR84      -0.2717
     93  CB        52.9960   55.4880   17.2510 C.3    84  THR84       0.1784
     94  OG1       52.3200   54.4240   17.9000 O.3    84  THR84      -0.2211
     95  CG2       52.0320   56.6680   17.0640 C.3    84  THR84       0.0376
     96  N         55.5760   53.9640   16.9740 N.am   85  GLU85      -0.1965
     97  CA        56.4030   52.8640   17.5070 C.3    85  GLU85       0.1733
     98  C         55.5430   52.0680   18.5010 C.2    85  GLU85       0.2616
     99  O         54.6280   52.6240   19.1320 O.2    85  GLU85      -0.2715
    100  CB        57.6500   53.3810   18.2380 C.3    85  GLU85       0.0429
    101  CG        58.7700   53.7300   17.2910 C.3    85  GLU85       0.1163
    102  CD        59.9920   54.3680   17.9110 C.2    85  GLU85       0.3649
    103  OE1       60.1770   54.2420   19.1460 O.co2  85  GLU85      -0.2457
    104  OE2       60.7520   55.0220   17.1520 O.co2  85  GLU85      -0.2457
    105  N         55.7850   50.7650   18.5810 N.am   86  TYR86      -0.1960
    106  CA        55.0180   49.8990   19.4680 C.3    86  TYR86       0.1771
    107  C         55.6240   49.9270   20.8810 C.2    86  TYR86       0.2619
    108  O         56.8400   49.8010   21.0590 O.2    86  TYR86      -0.2715
    109  CB        54.8550   48.4850   18.8640 C.3    86  TYR86       0.0574
    110  CG        54.1580   47.4860   19.7630 C.ar   86  TYR86      -0.0198
    111  CD1       52.7820   47.5470   19.9740 C.ar   86  TYR86      -0.0009
    112  CD2       54.8740   46.4850   20.4130 C.ar   86  TYR86      -0.0009
    113  CE1       52.1350   46.6230   20.7910 C.ar   86  TYR86       0.0417
    114  CE2       54.2430   45.5830   21.2620 C.ar   86  TYR86       0.0417
    115  CZ        52.8700   45.6460   21.4380 C.ar   86  TYR86       0.1957
    116  OH        52.2350   44.7360   22.2560 O.3    86  TYR86      -0.2866
    117  N         54.7500   50.1700   21.8710 N.am   87  MET87      -0.1977
    118  CA        55.0250   50.2590   23.3040 C.3    87  MET87       0.1605
    119  C         54.6240   48.9420   23.9130 C.2    87  MET87       0.2287
    120  O         53.4300   48.6620   24.0330 O.2    87  MET87      -0.2864
    121  CB        54.2540   51.4430   23.9290 C.3    87  MET87       0.0413
    122  CG        54.6870   52.8160   23.3550 C.3    87  MET87       0.0598
    123  SD        56.4190   53.1610   23.7260 S.3    87  MET87      -0.1393
    124  CE        57.1000   53.2510   22.1750 C.3    87  MET87       0.0692
    125  N         50.8060   50.8850   30.1870 N.3    91  SER91      -0.1217
    126  CA        50.8260   52.2300   30.7690 C.3    91  SER91       0.1889
    127  C         51.2310   52.2060   32.2420 C.2    91  SER91       0.2288
    128  O         51.2770   51.1390   32.8790 O.2    91  SER91      -0.2866
    129  CB        49.4630   52.8970   30.6210 C.3    91  SER91       0.2089
    130  OG        48.4710   52.2080   31.3690 O.3    91  SER91      -0.2183
    131  N         47.2500   61.7250   32.5180 N.3   137  LYS137     -0.1245
    132  CA        46.7400   60.7040   33.4250 C.3   137  LYS137      0.1561
    133  C         47.6440   59.4660   33.3650 C.2   137  LYS137      0.2260
    134  O         48.3750   59.3110   32.3850 O.2   137  LYS137     -0.2867
    135  CB        45.2750   60.3540   33.0780 C.3   137  LYS137      0.0271
    136  CG        44.9380   60.1830   31.5920 C.3   137  LYS137      0.0035
    137  CD        43.5320   59.6190   31.4510 C.3   137  LYS137      0.0206
    138  CE        42.9500   59.7360   30.0710 C.3   137  LYS137      0.1093
    139  NZ        41.6110   59.1030   30.0230 N.3   137  LYS137     -0.1314
    140  N         46.8730   56.4530   32.7090 N.3   139  GLN139     -0.1231
    141  CA        46.4070   55.6090   31.5890 C.3   139  GLN139      0.1698
    142  C         47.0540   55.9900   30.2590 C.2   139  GLN139      0.2592
    143  O         47.1530   55.1230   29.3960 O.2   139  GLN139     -0.2718
    144  CB        44.8730   55.6100   31.4540 C.3   139  GLN139      0.0381
    145  CG        44.0400   55.1670   32.6910 C.3   139  GLN139      0.0905
    146  CD        43.9680   56.1850   33.8340 C.2   139  GLN139      0.2608
    147  OE1       44.4280   57.3310   33.7440 O.2   139  GLN139     -0.2717
    148  NE2       43.4250   55.7730   34.9630 N.am  139  GLN139     -0.0878
    149  N         47.5200   57.2470   30.0810 N.am  140  ASN140     -0.1974
    150  CA        48.1630   57.6090   28.8150 C.3   140  ASN140      0.1688
    151  C         49.7090   57.8650   28.9200 C.2   140  ASN140      0.2292
    152  O         50.3150   58.4080   27.9920 O.2   140  ASN140     -0.2864
    153  CB        47.4440   58.7510   28.1070 C.3   140  ASN140      0.1181
    154  CG        47.3310   60.0550   28.8440 C.2   140  ASN140      0.2629
    155  OD1       48.1690   60.4340   29.6710 O.2   140  ASN140     -0.2716
    156  ND2       46.3370   60.8320   28.4480 N.am  140  ASN140     -0.0877
    157  N         52.7490   55.9560   28.6290 N.3   142  LEU142     -0.1245
    158  CA        53.0870   54.6480   28.0670 C.3   142  LEU142      0.1561
    159  C         54.4870   54.2090   28.4010 C.2   142  LEU142      0.2260
    160  O         55.3960   55.0310   28.5040 O.2   142  LEU142     -0.2867
    161  CB        52.8300   54.5790   26.5500 C.3   142  LEU142      0.0270
    162  CG        51.5790   55.2240   26.0020 C.3   142  LEU142      0.0019
    163  CD1       51.5990   55.1640   24.5020 C.3   142  LEU142      0.0001
    164  CD2       50.3030   54.5890   26.5690 C.3   142  LEU142      0.0001
    165  N         51.5810   60.2720   25.5130 N.3   152  ALA152     -0.1231
    166  CA        50.6520   60.2860   24.3910 C.3   152  ALA152      0.1694
    167  C         49.3540   61.0240   24.7910 C.2   152  ALA152      0.2592
    168  O         49.1650   61.3480   25.9710 O.2   152  ALA152     -0.2718
    169  CB        50.3330   58.8550   23.9840 C.3   152  ALA152      0.0304
    170  N         48.4530   61.2640   23.8080 N.am  153  ASP153     -0.1974
    171  CA        47.1330   61.9010   23.9670 C.3   153  ASP153      0.1709
    172  C         47.1850   63.3000   24.5700 C.2   153  ASP153      0.2293
    173  O         46.3530   63.6560   25.4010 O.2   153  ASP153     -0.2864
    174  CB        46.1590   61.0050   24.7590 C.3   153  ASP153      0.1436
    175  CG        45.9570   59.5980   24.2230 C.2   153  ASP153      0.3671
    176  OD1       46.1230   59.3950   22.9860 O.co2 153  ASP153     -0.2456
    177  OD2       45.5370   58.7110   25.0240 O.co2 153  ASP153     -0.2456
@<TRIPOS>BOND
     1    81    82    1
     2    82    83    1
     3    82    85    1
     4    83    84    2
     5    86    85    1
     6    86    88    1
     7    85    87    1
     8    50    49    2
     9    89    90    1
    10    49    48    1
    11    45    44    2
    12    56    57    1
    13    47    48    1
    14    92    91    2
    15    44    43    1
    16    58    59    2
    17    58    57    1
    18    90    91    1
    19    90    93    1
    20    91    96   am
    21    48    51    1
    22    42    43    1
    23    57    60    1
    24    67    68    2
    25    67    66    1
    26    43    46    1
    27    96    97    1
    28    60    61    1
    29    95    93    1
    30    51    52    1
    31   104   102   ar
    32    93    94    1
    33   101   102    1
    34   101   100    1
    35    65    66    1
    36    69    66    1
    37    69    70    1
    38    97   100    1
    39    97    98    1
    40    71    70    1
    41   102   103   ar
    42    61    62    1
    43    52    53    1
    44    70    72    1
    45    63    62   ar
    46    98   105   am
    47    98    99    2
    48   105   106    1
    49    53    54    1
    50    37    36    1
    51    37    38    2
    52   109   106    1
    53   109   110    1
    54    62    64   ar
    55    36    35    1
    56    36    39    1
    57   106   107    1
    58    76    75    2
    59   110   111   ar
    60   110   112   ar
    61    54    55    1
    62   111   113   ar
    63    75    74    1
    64    40    39    1
    65   112   114   ar
    66     1     2    1
    67    39    41    1
    68   113   115   ar
    69    78    80    1
    70    78    79    1
    71    78    77    1
    72   107   108    2
    73   107   117   am
    74     7     6    1
    75     6     5    1
    76     6     8    1
    77   114   115   ar
    78    12    11    2
    79   115   116    1
    80     5     2    1
    81    74    77    1
    82    74    73    1
    83     2     3    1
    84   117   118    1
    85   124   123    1
    86     9     3   am
    87     9    10    1
    88    11    10    1
    89    11    15   am
    90    26    27    1
    91    26    17   am
    92     3     4    2
    93    16    15    1
    94    16    17    1
    95    16    19    1
    96    32    33    2
    97    32    31    1
    98    27    28    1
    99   176   175   ar
   100    30    28   am
   101    30    31    1
   102    10    13    1
   103    34    31    1
   104   118   119    1
   105   118   121    1
   106   122   123    1
   107   122   121    1
   108    20    19    1
   109    20    21    1
   110    17    18    2
   111    28    29    2
   112   170   171    1
   113   170   167   am
   114   119   120    2
   115   171   172    1
   116   171   174    1
   117   169   166    1
   118    14    13    1
   119   175   174    1
   120   175   177   ar
   121   166   167    1
   122   166   165    1
   123    25    23    1
   124    22    23    2
   125    22    21    1
   126   163   162    1
   127   172   173    2
   128    23    24    1
   129   167   168    2
   130   162   161    1
   131   162   164    1
   132   161   158    1
   133   152   151    2
   134   158   159    1
   135   158   157    1
   136   153   150    1
   137   153   154    1
   138   159   160    2
   139   156   154   am
   140   150   151    1
   141   150   149    1
   142   154   155    2
   143   143   142    2
   144   139   138    1
   145   138   137    1
   146   149   142   am
   147   125   126    1
   148   142   141    1
   149   129   126    1
   150   129   130    1
   151   126   127    1
   152   137   136    1
   153   144   141    1
   154   144   145    1
   155   141   140    1
   156   136   135    1
   157   127   128    2
   158   134   133    2
   159   131   132    1
   160   145   146    1
   161   135   132    1
   162   133   132    1
   163   147   146    2
   164   146   148   am
