@<TRIPOS>MOLECULE
tmp/5ar5B00.pdb
 191 179 0 0 0
SMALL
GASTEIGER

@<TRIPOS>ATOM
      1  N        -29.9280   38.7870   -8.1930 N.3    20  TYR20      -0.1227
      2  CA       -30.4910   39.6830   -7.1700 C.3    20  TYR20       0.1736
      3  C        -31.8850   40.2320   -7.5320 C.2    20  TYR20       0.2595
      4  O        -32.1420   40.5610   -8.6920 O.2    20  TYR20      -0.2718
      5  CB       -29.5080   40.8450   -6.9260 C.3    20  TYR20       0.0548
      6  CG       -30.0380   41.9780   -6.0630 C.ar   20  TYR20      -0.0200
      7  CD1      -30.8130   43.0060   -6.6210 C.ar   20  TYR20      -0.0009
      8  CD2      -29.7540   42.0370   -4.6980 C.ar   20  TYR20      -0.0009
      9  CE1      -31.3090   44.0420   -5.8410 C.ar   20  TYR20       0.0417
     10  CE2      -30.2380   43.0760   -3.9120 C.ar   20  TYR20       0.0417
     11  CZ       -31.0130   44.0730   -4.4900 C.ar   20  TYR20       0.1957
     12  OH       -31.5000   45.1020   -3.7200 O.3    20  TYR20      -0.2866
     13  N        -32.7670   40.3220   -6.5300 N.am   21  LEU21      -0.1966
     14  CA       -34.1300   40.8790   -6.6770 C.3    21  LEU21       0.1728
     15  C        -34.4210   42.0770   -5.7690 C.2    21  LEU21       0.2616
     16  O        -34.8980   43.1200   -6.2290 O.2    21  LEU21      -0.2715
     17  CB       -35.2000   39.8170   -6.4260 C.3    21  LEU21       0.0311
     18  CG       -35.7760   39.0440   -7.6010 C.3    21  LEU21       0.0022
     19  CD1      -36.7430   38.0070   -7.0610 C.3    21  LEU21       0.0001
     20  CD2      -36.4850   39.9900   -8.5610 C.3    21  LEU21       0.0001
     21  N        -34.1570   41.8980   -4.4760 N.am   22  SER22      -0.1950
     22  CA       -34.3650   42.9180   -3.4590 C.3    22  SER22       0.1924
     23  C        -33.6200   42.5090   -2.1870 C.2    22  SER22       0.2314
     24  O        -33.2050   41.3530   -2.0440 O.2    22  SER22      -0.2863
     25  CB       -35.8570   43.0940   -3.1670 C.3    22  SER22       0.2116
     26  OG       -36.4190   41.9180   -2.6030 O.3    22  SER22      -0.2180
     27  N        -32.9120   38.7340   -1.3840 N.3    29  VAL29      -0.1245
     28  CA       -33.7410   37.8290   -2.1580 C.3    29  VAL29       0.1561
     29  C        -33.2480   37.7970   -3.5960 C.2    29  VAL29       0.2260
     30  O        -33.0210   38.8430   -4.2090 O.2    29  VAL29      -0.2867
     31  CB       -35.2360   38.2130   -2.0830 C.3    29  VAL29       0.0252
     32  CG1      -36.0870   37.2560   -2.9120 C.3    29  VAL29       0.0019
     33  CG2      -35.7040   38.2220   -0.6330 C.3    29  VAL29       0.0019
     34  N        -37.4930   31.3770   -5.7150 N.3    42  ALA42      -0.1245
     35  CA       -36.8970   32.5250   -5.0370 C.3    42  ALA42       0.1562
     36  C        -35.9630   31.9900   -3.9570 C.2    42  ALA42       0.2260
     37  O        -36.2190   30.9240   -3.3810 O.2    42  ALA42      -0.2867
     38  CB       -37.9680   33.4090   -4.4200 C.3    42  ALA42       0.0290
     39  N        -33.7180   33.1450   -0.4340 N.3    44  LYS44      -0.1245
     40  CA       -33.4570   34.1380    0.5980 C.3    44  LYS44       0.1561
     41  C        -32.1960   33.7360    1.3450 C.2    44  LYS44       0.2260
     42  O        -32.1900   32.7650    2.1130 O.2    44  LYS44      -0.2867
     43  CB       -34.6400   34.2380    1.5570 C.3    44  LYS44       0.0271
     44  CG       -34.5730   35.3820    2.5520 C.3    44  LYS44       0.0035
     45  CD       -35.6270   35.1660    3.6160 C.3    44  LYS44       0.0206
     46  CE       -35.6920   36.3260    4.5830 C.3    44  LYS44       0.1093
     47  NZ       -36.8150   36.1430    5.5440 N.3    44  LYS44      -0.1314
     48  N        -36.3490   29.9560   10.5800 N.3    59  GLU59      -0.1245
     49  CA       -37.3660   30.4450    9.6450 C.3    59  GLU59       0.1567
     50  C        -37.8380   29.3150    8.7200 C.2    59  GLU59       0.2260
     51  O        -39.0450   29.1090    8.5510 O.2    59  GLU59      -0.2867
     52  CB       -36.8990   31.6630    8.8270 C.3    59  GLU59       0.0388
     53  CG       -38.0500   32.2950    8.0430 C.3    59  GLU59       0.1160
     54  CD       -37.6920   33.5040    7.1780 C.2    59  GLU59       0.3649
     55  OE1      -36.4970   33.8240    7.0080 O.co2  59  GLU59      -0.2457
     56  OE2      -38.6400   34.1370    6.6450 O.co2  59  GLU59      -0.2457
     57  N        -41.7100   28.1080    8.1660 N.3    63  LEU63      -0.1245
     58  CA       -42.3870   28.0350    6.8780 C.3    63  LEU63       0.1561
     59  C        -42.8510   26.6080    6.5410 C.2    63  LEU63       0.2260
     60  O        -43.9350   26.4030    5.9900 O.2    63  LEU63      -0.2867
     61  CB       -41.4700   28.5530    5.7610 C.3    63  LEU63       0.0270
     62  CG       -41.2130   30.0530    5.7020 C.3    63  LEU63       0.0019
     63  CD1      -39.9370   30.3750    4.9370 C.3    63  LEU63       0.0001
     64  CD2      -42.4230   30.7610    5.1100 C.3    63  LEU63       0.0001
     65  N        -46.3890   31.7920    2.3110 N.3    72  LEU72      -0.1245
     66  CA       -45.4100   31.5590    1.2240 C.3    72  LEU72       0.1561
     67  C        -44.9130   30.1200    1.2820 C.2    72  LEU72       0.2260
     68  O        -44.3650   29.7010    2.3060 O.2    72  LEU72      -0.2867
     69  CB       -44.2200   32.5010    1.3320 C.3    72  LEU72       0.0270
     70  CG       -43.0880   32.3900    0.2980 C.3    72  LEU72       0.0019
     71  CD1      -43.5330   32.7950   -1.1010 C.3    72  LEU72       0.0001
     72  CD2      -41.9150   33.2630    0.7420 C.3    72  LEU72       0.0001
     73  N        -32.9260   29.9060    1.8040 N.3    86  ILE86      -0.1245
     74  CA       -34.2660   29.3300    1.8540 C.3    86  ILE86       0.1561
     75  C        -34.8250   29.4010    0.4320 C.2    86  ILE86       0.2260
     76  O        -34.7780   30.4680   -0.2020 O.2    86  ILE86      -0.2867
     77  CB       -35.1820   30.1140    2.8210 C.3    86  ILE86       0.0252
     78  CG1      -34.6470   30.0330    4.2560 C.3    86  ILE86       0.0019
     79  CG2      -36.6140   29.5900    2.7570 C.3    86  ILE86       0.0019
     80  CD1      -35.4130   30.8710    5.2620 C.3    86  ILE86       0.0001
     81  N        -38.0720   29.1480   -1.9600 N.3    88  THR88      -0.1203
     82  CA       -39.5320   29.2220   -1.9290 C.3    88  THR88       0.1994
     83  C        -40.0670   29.3850   -3.3320 C.2    88  THR88       0.2618
     84  O        -39.3020   29.5700   -4.2760 O.2    88  THR88      -0.2717
     85  CB       -40.0300   30.4430   -1.1220 C.3    88  THR88       0.1784
     86  OG1      -39.8180   31.6370   -1.8820 O.3    88  THR88      -0.2211
     87  CG2      -39.3140   30.5660    0.2120 C.3    88  THR88       0.0376
     88  N        -41.3840   29.3280   -3.4720 N.am   89  GLU89      -0.1965
     89  CA       -41.9910   29.5980   -4.7590 C.3    89  GLU89       0.1733
     90  C        -41.6930   31.0490   -5.1070 C.2    89  GLU89       0.2616
     91  O        -41.4540   31.8720   -4.2270 O.2    89  GLU89      -0.2715
     92  CB       -43.4980   29.3410   -4.7540 C.3    89  GLU89       0.0429
     93  CG       -43.8650   27.8930   -4.4960 C.3    89  GLU89       0.1163
     94  CD       -45.3530   27.6060   -4.6370 C.2    89  GLU89       0.3649
     95  OE1      -46.1530   28.5780   -4.7570 O.co2  89  GLU89      -0.2457
     96  OE2      -45.7120   26.3920   -4.6360 O.co2  89  GLU89      -0.2457
     97  N        -41.6660   31.3380   -6.4000 N.am   90  TYR90      -0.1960
     98  CA       -41.4140   32.6810   -6.8690 C.3    90  TYR90       0.1771
     99  C        -42.7360   33.4520   -6.9230 C.2    90  TYR90       0.2619
    100  O        -43.7410   32.9480   -7.4360 O.2    90  TYR90      -0.2715
    101  CB       -40.7240   32.6520   -8.2450 C.3    90  TYR90       0.0574
    102  CG       -40.4640   34.0260   -8.8100 C.ar   90  TYR90      -0.0198
    103  CD1      -39.5220   34.8720   -8.2220 C.ar   90  TYR90      -0.0009
    104  CD2      -41.1580   34.4880   -9.9240 C.ar   90  TYR90      -0.0009
    105  CE1      -39.2780   36.1390   -8.7240 C.ar   90  TYR90       0.0417
    106  CE2      -40.9170   35.7600  -10.4330 C.ar   90  TYR90       0.0417
    107  CZ       -39.9760   36.5800   -9.8230 C.ar   90  TYR90       0.1957
    108  OH       -39.7260   37.8490  -10.3090 O.3    90  TYR90      -0.2866
    109  N        -42.7280   34.6650   -6.3780 N.am   91  MET91      -0.1964
    110  CA       -43.9040   35.5280   -6.3840 C.3    91  MET91       0.1722
    111  C        -43.6550   36.6650   -7.3770 C.2    91  MET91       0.2458
    112  O        -42.9800   37.6410   -7.0570 O.2    91  MET91      -0.2730
    113  CB       -44.1930   36.0700   -4.9780 C.3    91  MET91       0.0427
    114  CG       -44.5510   35.0300   -3.9160 C.3    91  MET91       0.0599
    115  SD       -46.0350   34.0450   -4.2470 S.3    91  MET91      -0.1393
    116  CE       -45.3640   32.4940   -4.8250 C.3    91  MET91       0.0692
    117  N        -44.2130   36.5480   -8.5870 N.am   92  PRO92      -0.2727
    118  CA       -43.9100   37.5130   -9.6460 C.3    92  PRO92       0.1402
    119  C        -44.3310   38.9470   -9.4020 C.2    92  PRO92       0.2269
    120  O        -43.7140   39.8500   -9.9550 O.2    92  PRO92      -0.2865
    121  CB       -44.6700   36.9630  -10.8680 C.3    92  PRO92       0.0296
    122  CG       -44.9270   35.5330  -10.5470 C.3    92  PRO92       0.0237
    123  CD       -45.1240   35.4920   -9.0560 C.3    92  PRO92       0.0939
    124  N        -44.4010   40.7330   -6.5500 N.3    94  GLY94      -0.1210
    125  CA       -43.7820   41.3810   -5.4150 C.3    94  GLY94       0.1956
    126  C        -44.6070   41.4550   -4.1600 C.2    94  GLY94       0.2612
    127  O        -45.2330   40.4730   -3.7570 O.2    94  GLY94      -0.2717
    128  N        -44.5960   42.6390   -3.5490 N.am   95  SER95      -0.1952
    129  CA       -45.2740   42.8840   -2.2820 C.3    95  SER95       0.1924
    130  C        -46.4850   43.7900   -2.4160 C.2    95  SER95       0.2314
    131  O        -46.6470   44.5110   -3.4030 O.2    95  SER95      -0.2863
    132  CB       -44.3020   43.5530   -1.3170 C.3    95  SER95       0.2116
    133  OG       -44.0640   44.8820   -1.7530 O.3    95  SER95      -0.2180
    134  N        -45.5650   47.5660   -2.9170 N.3    98  GLU98      -0.1245
    135  CA       -45.3420   48.0260   -4.2790 C.3    98  GLU98       0.1567
    136  C        -46.6670   48.2810   -4.9890 C.2    98  GLU98       0.2260
    137  O        -46.8160   49.2970   -5.6720 O.2    98  GLU98      -0.2867
    138  CB       -44.4640   47.0340   -5.0470 C.3    98  GLU98       0.0388
    139  CG       -43.1280   46.7340   -4.3620 C.3    98  GLU98       0.1160
    140  CD       -42.4610   45.4600   -4.8680 C.2    98  GLU98       0.3649
    141  OE1      -42.6070   45.1220   -6.0680 O.co2  98  GLU98      -0.2457
    142  OE2      -41.7780   44.7890   -4.0610 O.co2  98  GLU98      -0.2457
    143  N        -46.7900   52.1550   -5.9250 N.3   102  ARG102     -0.1245
    144  CA       -46.3120   52.4180   -7.2850 C.3   102  ARG102      0.1563
    145  C        -47.5210   52.8110   -8.1440 C.2   102  ARG102      0.2260
    146  O        -48.0510   51.9990   -8.9210 O.2   102  ARG102     -0.2867
    147  CB       -45.5240   51.2360   -7.8370 C.3   102  ARG102      0.0307
    148  CG       -44.1720   51.0790   -7.1480 C.3   102  ARG102      0.0489
    149  CD       -43.5070   49.7370   -7.4040 C.3   102  ARG102      0.2205
    150  NE       -43.3570   49.4510   -8.8340 N.pl3 102  ARG102     -0.0865
    151  CZ       -42.8210   48.3400   -9.3390 C.cat 102  ARG102      0.5346
    152  NH1      -42.3570   47.3840   -8.5380 N.pl3 102  ARG102      0.1354
    153  NH2      -42.7460   48.1900  -10.6560 N.pl3 102  ARG102      0.1354
    154  N        -44.7740   45.2490    3.1480 N.3   143  GLN143     -0.1231
    155  CA       -43.5490   44.8130    2.4760 C.3   143  GLN143      0.1698
    156  C        -43.4020   43.3070    2.4940 C.2   143  GLN143      0.2592
    157  O        -42.7460   42.7500    1.6100 O.2   143  GLN143     -0.2718
    158  CB       -42.2860   45.4480    3.0880 C.3   143  GLN143      0.0381
    159  CG       -42.1840   46.9760    3.0410 C.3   143  GLN143      0.0905
    160  CD       -42.8990   47.7150    4.1880 C.2   143  GLN143      0.2608
    161  OE1      -43.9700   47.3110    4.6760 O.2   143  GLN143     -0.2717
    162  NE2      -42.3070   48.8310    4.6060 N.am  143  GLN143     -0.0878
    163  N        -43.9930   42.6400    3.4880 N.am  144  ASN144     -0.1974
    164  CA       -43.8980   41.1720    3.5500 C.3   144  ASN144      0.1688
    165  C        -45.2130   40.3890    3.3230 C.2   144  ASN144      0.2292
    166  O        -45.3890   39.2550    3.7870 O.2   144  ASN144     -0.2864
    167  CB       -43.0890   40.6900    4.7680 C.3   144  ASN144      0.1181
    168  CG       -43.6920   41.1080    6.0830 C.2   144  ASN144      0.2629
    169  OD1      -44.9170   41.2610    6.2080 O.2   144  ASN144     -0.2716
    170  ND2      -42.8330   41.2800    7.0940 N.am  144  ASN144     -0.0877
    171  N        -46.7560   39.1130    0.1720 N.3   146  LEU146     -0.1245
    172  CA       -46.3850   38.9130   -1.2210 C.3   146  LEU146      0.1561
    173  C        -47.5840   38.5040   -2.0940 C.2   146  LEU146      0.2260
    174  O        -48.5930   37.9640   -1.5910 O.2   146  LEU146     -0.2867
    175  CB       -45.2280   37.9120   -1.3270 C.3   146  LEU146      0.0270
    176  CG       -44.0290   38.0970   -0.3720 C.3   146  LEU146      0.0019
    177  CD1      -43.1270   36.8760   -0.4150 C.3   146  LEU146      0.0001
    178  CD2      -43.2310   39.3680   -0.6340 C.3   146  LEU146      0.0001
    179  N        -45.1830   36.1670    4.4100 N.3   156  ALA156     -0.1231
    180  CA       -43.7820   35.8090    4.6230 C.3   156  ALA156      0.1694
    181  C        -43.1390   36.5840    5.7800 C.2   156  ALA156      0.2592
    182  O        -43.7930   37.4260    6.4070 O.2   156  ALA156     -0.2718
    183  CB       -42.9950   36.0150    3.3360 C.3   156  ALA156      0.0304
    184  N        -41.8480   36.3020    6.0190 N.am  157  ASP157     -0.1974
    185  CA       -41.0040   36.9030    7.0830 C.3   157  ASP157      0.1709
    186  C        -41.4170   36.5090    8.4840 C.2   157  ASP157      0.2293
    187  O        -42.1240   37.2440    9.1770 O.2   157  ASP157     -0.2864
    188  CB       -40.8810   38.4390    6.9980 C.3   157  ASP157      0.1436
    189  CG       -39.9770   38.9190    5.8580 C.2   157  ASP157      0.3671
    190  OD1      -39.4840   38.1010    5.0410 O.co2 157  ASP157     -0.2456
    191  OD2      -39.7670   40.1510    5.7870 O.co2 157  ASP157     -0.2456
@<TRIPOS>BOND
     1   121   122    1
     2   121   118    1
     3   153   151    1
     4   122   123    1
     5   106   104   ar
     6   106   107   ar
     7   108   107    1
     8   120   119    2
     9   104   102   ar
    10   107   105   ar
    11   118   119    1
    12   118   117    1
    13   151   150    2
    14   151   152    1
    15   123   117    1
    16   146   145    2
    17   150   149    1
    18   102   101    1
    19   102   103   ar
    20   105   103   ar
    21     4     3    2
    22   117   111   am
    23    20    18    1
    24   101    98    1
    25     1     2    1
    26   145   144    1
    27   147   144    1
    28   147   148    1
    29    18    19    1
    30    18    17    1
    31     3     2    1
    32     3    13   am
    33   100    99    2
    34   149   148    1
    35   111   112    2
    36   111   110    1
    37   144   143    1
    38     2     5    1
    39     5     6    1
    40    99    98    1
    41    99   109   am
    42    98    97    1
    43    14    13    1
    44    14    17    1
    45    14    15    1
    46     7     6   ar
    47     7     9   ar
    48   124   125    1
    49    97    90   am
    50   110   109    1
    51   110   113    1
    52    16    15    2
    53   141   140   ar
    54     6     8   ar
    55     9    11   ar
    56    15    21   am
    57    34    35    1
    58   137   136    2
    59   125   126    1
    60    90    89    1
    61    90    91    2
    62   138   139    1
    63   138   135    1
    64    35    38    1
    65    35    36    1
    66   136   135    1
    67   113   114    1
    68   140   139    1
    69   140   142   ar
    70   116   115    1
    71    89    92    1
    72    89    88    1
    73    95    94   ar
    74    92    93    1
    75     8    10   ar
    76    94    96   ar
    77    94    93    1
    78    11    10   ar
    79    11    12    1
    80    21    22    1
    81   135   134    1
    82    84    83    2
    83   115   114    1
    84    30    29    2
    85   126   127    2
    86   126   128   am
    87    36    37    2
    88    29    28    1
    89   128   129    1
    90    88    83   am
    91    22    25    1
    92    22    23    1
    93   131   130    2
    94    83    82    1
    95    25    26    1
    96    32    31    1
    97   130   129    1
    98   129   132    1
    99    23    24    2
   100    28    31    1
   101    28    27    1
   102   173   174    2
   103   173   172    1
   104    31    33    1
   105    81    82    1
   106    82    85    1
   107    86    85    1
   108   133   132    1
   109   175   172    1
   110   175   176    1
   111   172   171    1
   112    85    87    1
   113    71    70    1
   114   178   176    1
   115    39    40    1
   116   177   176    1
   117    76    75    2
   118    70    72    1
   119    70    69    1
   120    75    74    1
   121    40    41    1
   122    40    43    1
   123    66    67    1
   124    66    69    1
   125    66    65    1
   126    67    68    2
   127    41    42    2
   128    43    44    1
   129   157   156    2
   130    73    74    1
   131    74    77    1
   132   155   156    1
   133   155   158    1
   134   155   154    1
   135   156   163   am
   136    44    45    1
   137    79    77    1
   138    77    78    1
   139   159   158    1
   140   159   160    1
   141   165   164    1
   142   165   166    2
   143   183   180    1
   144   163   164    1
   145   164   167    1
   146    45    46    1
   147   160   162   am
   148   160   161    2
   149    78    80    1
   150   179   180    1
   151    46    47    1
   152   180   181    1
   153   167   168    1
   154    63    62    1
   155   190   189   ar
   156    64    62    1
   157    62    61    1
   158    61    58    1
   159   181   184   am
   160   181   182    2
   161   191   189   ar
   162   189   188    1
   163    60    59    2
   164   184   185    1
   165   168   169    2
   166   168   170   am
   167    59    58    1
   168    56    54   ar
   169    58    57    1
   170   188   185    1
   171    55    54   ar
   172   185   186    1
   173    54    53    1
   174    53    52    1
   175   186   187    2
   176    51    50    2
   177    50    49    1
   178    52    49    1
   179    49    48    1
