@<TRIPOS>MOLECULE
tmp/5ar7B00.pdb
 185 173 0 0 0
SMALL
GASTEIGER

@<TRIPOS>ATOM
      1  N         87.4760  -46.2330   20.4960 N.3    19  LEU19      -0.1245
      2  CA        86.8270  -46.3980   21.7960 C.3    19  LEU19       0.1561
      3  C         87.8410  -46.9810   22.7720 C.2    19  LEU19       0.2260
      4  O         88.0520  -46.4010   23.8350 O.2    19  LEU19      -0.2867
      5  CB        85.5920  -47.3000   21.7360 C.3    19  LEU19       0.0270
      6  CG        84.3890  -46.8060   20.9820 C.3    19  LEU19       0.0019
      7  CD1       83.3280  -47.8830   20.9610 C.3    19  LEU19       0.0001
      8  CD2       83.8490  -45.5010   21.5560 C.3    19  LEU19       0.0001
      9  N         88.7380  -51.3100   19.1930 N.3    27  VAL27      -0.1245
     10  CA        87.2790  -51.1980   19.1020 C.3    27  VAL27       0.1561
     11  C         86.9230  -49.7700   18.7340 C.2    27  VAL27       0.2260
     12  O         87.3600  -48.8230   19.3950 O.2    27  VAL27      -0.2867
     13  CB        86.5520  -51.6730   20.3950 C.3    27  VAL27       0.0252
     14  CG1       85.0430  -51.4430   20.3020 C.3    27  VAL27       0.0019
     15  CG2       86.8470  -53.1370   20.6920 C.3    27  VAL27       0.0019
     16  N         79.3320  -50.6990   16.5380 N.3    40  ALA40      -0.1245
     17  CA        80.6270  -50.9230   17.1620 C.3    40  ALA40       0.1562
     18  C         81.4290  -51.8280   16.2050 C.2    40  ALA40       0.2260
     19  O         80.8780  -52.7680   15.6270 O.2    40  ALA40      -0.2867
     20  CB        80.4470  -51.6000   18.5010 C.3    40  ALA40       0.0290
     21  N         84.8990  -54.1260   16.0070 N.3    42  LYS42      -0.1245
     22  CA        86.0670  -54.7690   16.6160 C.3    42  LYS42       0.1561
     23  C         86.9660  -55.1970   15.4580 C.2    42  LYS42       0.2260
     24  O         86.6060  -56.0870   14.6940 O.2    42  LYS42      -0.2867
     25  CB        85.6820  -55.9680   17.5170 C.3    42  LYS42       0.0271
     26  CG        86.7950  -56.4160   18.4820 C.3    42  LYS42       0.0035
     27  CD        86.6710  -57.8950   18.8070 C.3    42  LYS42       0.0206
     28  CE        87.3820  -58.2980   20.0760 C.3    42  LYS42       0.1093
     29  NZ        87.1310  -59.7300   20.4300 N.3    42  LYS42      -0.1314
     30  N         85.2910  -65.8700   15.3570 N.3    56  GLU56      -0.1245
     31  CA        84.5770  -65.0250   16.3230 C.3    56  GLU56       0.1567
     32  C         83.2160  -64.6670   15.7560 C.2    56  GLU56       0.2260
     33  O         82.2080  -64.8630   16.4310 O.2    56  GLU56      -0.2867
     34  CB        85.3750  -63.7600   16.6670 C.3    56  GLU56       0.0388
     35  CG        84.7340  -62.8610   17.7220 C.3    56  GLU56       0.1160
     36  CD        85.5340  -61.6280   18.1170 C.2    56  GLU56       0.3649
     37  OE1       86.6770  -61.4590   17.6260 O.co2  56  GLU56      -0.2457
     38  OE2       85.0150  -60.8250   18.9260 O.co2  56  GLU56      -0.2457
     39  N         80.7830  -67.7060   15.9530 N.3    59  ILE59      -0.1231
     40  CA        80.3370  -67.9840   17.3220 C.3    59  ILE59       0.1692
     41  C         79.2490  -66.9850   17.6810 C.2    59  ILE59       0.2591
     42  O         78.1680  -67.3840   18.0970 O.2    59  ILE59      -0.2718
     43  CB        81.5190  -67.9910   18.3560 C.3    59  ILE59       0.0266
     44  CG1       82.5210  -69.1350   18.0580 C.3    59  ILE59       0.0019
     45  CG2       81.0130  -68.0740   19.8090 C.3    59  ILE59       0.0020
     46  CD1       83.9820  -68.7890   18.3350 C.3    59  ILE59       0.0001
     47  N         79.5380  -65.6950   17.4570 N.am   60  LEU60      -0.1980
     48  CA        78.6640  -64.5620   17.7340 C.3    60  LEU60       0.1596
     49  C         77.3430  -64.6520   16.9480 C.2    60  LEU60       0.2287
     50  O         76.2850  -64.3430   17.5000 O.2    60  LEU60      -0.2864
     51  CB        79.4480  -63.2730   17.4300 C.3    60  LEU60       0.0297
     52  CG        79.2180  -61.9880   18.2590 C.3    60  LEU60       0.0022
     53  CD1       78.8280  -62.2530   19.7020 C.3    60  LEU60       0.0001
     54  CD2       80.4150  -61.0560   18.1510 C.3    60  LEU60       0.0001
     55  N         75.4750  -67.7540   18.5650 N.3    63  ALA63      -0.1245
     56  CA        75.1330  -67.4560   19.9630 C.3    63  ALA63       0.1562
     57  C         74.0020  -66.4180   20.1600 C.2    63  ALA63       0.2260
     58  O         73.7580  -65.9800   21.2960 O.2    63  ALA63      -0.2867
     59  CB        76.3780  -67.0060   20.7110 C.3    63  ALA63       0.0290
     60  N         73.0290  -61.5670   24.7550 N.3    68  ILE68      -0.1231
     61  CA        74.2980  -61.7660   24.0620 C.3    68  ILE68       0.1692
     62  C         74.4720  -60.6100   23.0860 C.2    68  ILE68       0.2591
     63  O         73.5180  -60.2640   22.3910 O.2    68  ILE68      -0.2718
     64  CB        74.3230  -63.1730   23.3420 C.3    68  ILE68       0.0266
     65  CG1       74.0380  -64.3670   24.3250 C.3    68  ILE68       0.0019
     66  CG2       75.6090  -63.4060   22.5430 C.3    68  ILE68       0.0020
     67  CD1       75.1140  -64.6400   25.4170 C.3    68  ILE68       0.0001
     68  N         75.6870  -60.0250   23.0170 N.am   69  LEU69      -0.1980
     69  CA        75.9810  -58.9190   22.0940 C.3    69  LEU69       0.1596
     70  C         75.5740  -59.2690   20.6520 C.2    69  LEU69       0.2287
     71  O         76.0980  -60.2260   20.1080 O.2    69  LEU69      -0.2864
     72  CB        77.4690  -58.4860   22.1650 C.3    69  LEU69       0.0297
     73  CG        77.8940  -57.3070   21.2720 C.3    69  LEU69       0.0022
     74  CD1       77.1300  -56.0200   21.6160 C.3    69  LEU69       0.0001
     75  CD2       79.3780  -57.0820   21.3280 C.3    69  LEU69       0.0001
     76  N         84.7130  -57.1920   12.9790 N.3    83  ILE83      -0.1245
     77  CA        83.3840  -57.6540   13.4060 C.3    83  ILE83       0.1561
     78  C         82.5520  -56.4210   13.7190 C.2    83  ILE83       0.2260
     79  O         83.0110  -55.5030   14.4140 O.2    83  ILE83      -0.2867
     80  CB        83.4760  -58.6960   14.5910 C.3    83  ILE83       0.0252
     81  CG1       83.8230  -60.0950   14.0640 C.3    83  ILE83       0.0019
     82  CG2       82.2370  -58.7810   15.4820 C.3    83  ILE83       0.0019
     83  CD1       85.0590  -60.6100   14.6840 C.3    83  ILE83       0.0001
     84  N         79.0760  -55.0830   15.3850 N.3    85  THR85      -0.1203
     85  CA        77.9770  -55.4040   16.3070 C.3    85  THR85       0.1994
     86  C         77.1680  -54.1500   16.6210 C.2    85  THR85       0.2618
     87  O         77.6010  -53.0340   16.3010 O.2    85  THR85      -0.2717
     88  CB        78.4870  -56.0160   17.6660 C.3    85  THR85       0.1784
     89  OG1       78.9770  -54.9790   18.5320 O.3    85  THR85      -0.2211
     90  CG2       79.5020  -57.1550   17.5010 C.3    85  THR85       0.0376
     91  N         76.0390  -54.3340   17.3410 N.am   86  GLU86      -0.1965
     92  CA        75.2450  -53.2330   17.8930 C.3    86  GLU86       0.1733
     93  C         76.1310  -52.4490   18.8820 C.2    86  GLU86       0.2616
     94  O         76.9720  -53.0370   19.5700 O.2    86  GLU86      -0.2715
     95  CB        74.0090  -53.7640   18.6530 C.3    86  GLU86       0.0429
     96  CG        72.8410  -54.1010   17.7560 C.3    86  GLU86       0.1163
     97  CD        71.5580  -54.5570   18.4210 C.2    86  GLU86       0.3649
     98  OE1       71.3770  -54.3460   19.6490 O.co2  86  GLU86      -0.2457
     99  OE2       70.7090  -55.1070   17.6790 O.co2  86  GLU86      -0.2457
    100  N         75.9530  -51.1300   18.9260 N.am   87  TYR87      -0.1960
    101  CA        76.6950  -50.2610   19.8240 C.3    87  TYR87       0.1771
    102  C         76.0010  -50.2090   21.1930 C.2    87  TYR87       0.2619
    103  O         74.7950  -49.9810   21.2690 O.2    87  TYR87      -0.2715
    104  CB        76.8910  -48.8660   19.1870 C.3    87  TYR87       0.0574
    105  CG        77.5620  -47.8670   20.1000 C.ar   87  TYR87      -0.0198
    106  CD1       78.9120  -47.9850   20.4240 C.ar   87  TYR87      -0.0009
    107  CD2       76.8350  -46.8420   20.6980 C.ar   87  TYR87      -0.0009
    108  CE1       79.5290  -47.0840   21.2910 C.ar   87  TYR87       0.0417
    109  CE2       77.4370  -45.9450   21.5770 C.ar   87  TYR87       0.0417
    110  CZ        78.7860  -46.0680   21.8670 C.ar   87  TYR87       0.1957
    111  OH        79.3840  -45.1800   22.7260 O.3    87  TYR87      -0.2866
    112  N         76.7580  -50.4880   22.2710 N.am   88  MET88      -0.1977
    113  CA        76.2430  -50.5030   23.6560 C.3    88  MET88       0.1605
    114  C         76.6240  -49.1940   24.2690 C.2    88  MET88       0.2287
    115  O         77.8100  -48.9110   24.4200 O.2    88  MET88      -0.2864
    116  CB        76.7170  -51.7400   24.4510 C.3    88  MET88       0.0413
    117  CG        76.1950  -53.0560   23.8620 C.3    88  MET88       0.0598
    118  SD        74.3830  -53.0990   23.9100 S.3    88  MET88      -0.1393
    119  CE        74.0290  -53.6720   22.2830 C.3    88  MET88       0.0692
    120  N         74.1930  -70.0050   26.4560 N.3   125  LEU125     -0.1245
    121  CA        75.4120  -70.4900   25.7880 C.3   125  LEU125      0.1561
    122  C         75.6460  -71.9580   26.1550 C.2   125  LEU125      0.2260
    123  O         75.7910  -72.7960   25.2670 O.2   125  LEU125     -0.2867
    124  CB        76.6430  -69.6240   26.1620 C.3   125  LEU125      0.0270
    125  CG        76.6000  -68.1340   25.7900 C.3   125  LEU125      0.0019
    126  CD1       77.6590  -67.3710   26.5220 C.3   125  LEU125      0.0001
    127  CD2       76.7650  -67.9300   24.2970 C.3   125  LEU125      0.0001
    128  N         78.4340  -73.9350   24.4740 N.3   132  LEU132     -0.1245
    129  CA        79.3880  -72.8510   24.2760 C.3   132  LEU132      0.1561
    130  C         79.7900  -72.3640   25.6650 C.2   132  LEU132      0.2260
    131  O         78.9220  -72.0760   26.4960 O.2   132  LEU132     -0.2867
    132  CB        78.7310  -71.7130   23.4780 C.3   132  LEU132      0.0270
    133  CG        79.6060  -70.9350   22.5080 C.3   132  LEU132      0.0019
    134  CD1       78.7500  -70.1500   21.5580 C.3   132  LEU132      0.0001
    135  CD2       80.5740  -69.9900   23.2270 C.3   132  LEU132      0.0001
    136  N         82.2050  -69.6180   27.9140 N.3   134  HIS134     -0.1241
    137  CA        82.8700  -68.3220   27.8160 C.3   134  HIS134      0.1621
    138  C         84.3480  -68.4340   28.1650 C.2   134  HIS134      0.2264
    139  O         85.2010  -68.2260   27.3020 O.2   134  HIS134     -0.2867
    140  CB        82.1300  -67.2690   28.6660 C.3   134  HIS134      0.0745
    141  CG        82.4760  -65.8590   28.3140 C.ar  134  HIS134      0.0817
    142  ND1       83.6740  -65.2940   28.7040 N.ar  134  HIS134     -0.2268
    143  CD2       81.7400  -64.9280   27.6580 C.ar  134  HIS134      0.1154
    144  CE1       83.6400  -64.0460   28.2630 C.ar  134  HIS134      0.1986
    145  NE2       82.4890  -63.7790   27.6320 N.ar  134  HIS134     -0.2212
    146  N         78.3420  -55.9370   28.9000 N.3   143  LEU143     -0.1245
    147  CA        77.9680  -54.6440   28.3340 C.3   143  LEU143      0.1561
    148  C         76.5440  -54.3150   28.6870 C.2   143  LEU143      0.2260
    149  O         75.7190  -55.2150   28.8910 O.2   143  LEU143     -0.2867
    150  CB        78.2080  -54.5430   26.8220 C.3   143  LEU143      0.0270
    151  CG        79.6080  -54.8920   26.3030 C.3   143  LEU143      0.0019
    152  CD1       79.6320  -54.9060   24.7620 C.3   143  LEU143      0.0001
    153  CD2       80.6770  -53.9850   26.8850 C.3   143  LEU143      0.0001
    154  N         76.1960  -59.9490   26.9800 N.3   152  ILE152     -0.1231
    155  CA        77.4830  -60.5930   27.2310 C.3   152  ILE152      0.1692
    156  C         78.3530  -60.4870   25.9690 C.2   152  ILE152      0.2592
    157  O         77.9060  -60.8290   24.8740 O.2   152  ILE152     -0.2718
    158  CB        77.3420  -62.0450   27.7730 C.3   152  ILE152      0.0266
    159  CG1       76.7830  -62.0290   29.2040 C.3   152  ILE152      0.0019
    160  CG2       78.6680  -62.7660   27.7720 C.3   152  ILE152      0.0020
    161  CD1       75.7540  -63.0730   29.4610 C.3   152  ILE152      0.0001
    162  N         79.5830  -59.9670   26.1430 N.am  153  ALA153     -0.1966
    163  CA        80.5750  -59.7920   25.0910 C.3   153  ALA153      0.1728
    164  C         81.8410  -60.5450   25.4580 C.2   153  ALA153      0.2616
    165  O         81.9210  -61.1500   26.5240 O.2   153  ALA153     -0.2715
    166  CB        80.8980  -58.3070   24.9100 C.3   153  ALA153      0.0334
    167  N         82.8350  -60.4850   24.5710 N.am  154  ASP154     -0.1957
    168  CA        84.1540  -61.0520   24.7480 C.3   154  ASP154      0.1840
    169  C         85.1470  -60.1550   24.0160 C.2   154  ASP154      0.2622
    170  O         85.3290  -60.2900   22.7980 O.2   154  ASP154     -0.2715
    171  CB        84.2110  -62.4920   24.2280 C.3   154  ASP154      0.1450
    172  CG        85.4110  -63.2670   24.7190 C.2   154  ASP154      0.3671
    173  OD1       86.4810  -62.6430   24.9300 O.co2 154  ASP154     -0.2456
    174  OD2       85.2780  -64.4930   24.9180 O.co2 154  ASP154     -0.2456
    175  N         85.7800  -59.2260   24.7690 N.am  155  PHE155     -0.1974
    176  CA        86.7520  -58.2790   24.2310 C.3   155  PHE155      0.1639
    177  C         88.0570  -58.9010   23.7130 C.2   155  PHE155      0.2290
    178  O         88.7830  -58.2360   22.9730 O.2   155  PHE155     -0.2864
    179  CB        87.0570  -57.1720   25.2350 C.3   155  PHE155      0.0560
    180  CG        86.0730  -56.0290   25.1970 C.ar  155  PHE155     -0.0200
    181  CD1       86.2610  -54.9520   24.3280 C.ar  155  PHE155     -0.0042
    182  CD2       84.9490  -56.0270   26.0190 C.ar  155  PHE155     -0.0042
    183  CE1       85.3450  -53.8820   24.2970 C.ar  155  PHE155     -0.0003
    184  CE2       84.0420  -54.9590   25.9930 C.ar  155  PHE155     -0.0003
    185  CZ        84.2400  -53.8970   25.1260 C.ar  155  PHE155     -0.0000
@<TRIPOS>BOND
     1    76    77    1
     2    77    78    1
     3    77    80    1
     4    78    79    2
     5    81    80    1
     6    81    83    1
     7    80    82    1
     8    24    23    2
     9    30    31    1
    10    84    85    1
    11    23    22    1
    12    19    18    2
    13    32    31    1
    14    32    33    2
    15    39    40    1
    16    21    22    1
    17    18    17    1
    18    87    86    2
    19    85    86    1
    20    85    88    1
    21    31    34    1
    22    16    17    1
    23    22    25    1
    24    86    91   am
    25    34    35    1
    26    49    50    2
    27    49    48    1
    28    17    20    1
    29    40    41    1
    30    40    43    1
    31    91    92    1
    32    51    48    1
    33    51    52    1
    34    47    41   am
    35    47    48    1
    36    90    88    1
    37    25    26    1
    38    37    36   ar
    39    88    89    1
    40    99    97   ar
    41    41    42    2
    42    35    36    1
    43    96    97    1
    44    96    95    1
    45    92    95    1
    46    92    93    1
    47    44    46    1
    48    44    43    1
    49    36    38   ar
    50    54    52    1
    51    52    53    1
    52    43    45    1
    53    97    98   ar
    54    26    27    1
    55    55    56    1
    56    11    10    1
    57    11    12    2
    58    27    28    1
    59    93   100   am
    60    93    94    2
    61   100   101    1
    62    10     9    1
    63    10    13    1
    64   104   101    1
    65   104   105    1
    66   101   102    1
    67    56    57    1
    68    56    59    1
    69    28    29    1
    70   105   106   ar
    71   105   107   ar
    72    71    70    2
    73    57    58    2
    74    14    13    1
    75    13    15    1
    76   106   108   ar
    77     1     2    1
    78    70    69    1
    79   107   109   ar
    80     7     6    1
    81     6     8    1
    82     6     5    1
    83   102   103    2
    84   102   112   am
    85    73    75    1
    86    73    74    1
    87    73    72    1
    88   108   110   ar
    89   134   133    1
    90   109   110   ar
    91     5     2    1
    92     2     3    1
    93   110   111    1
    94    69    72    1
    95    69    68    1
    96   112   113    1
    97   119   118    1
    98    63    62    2
    99   133   135    1
   100   133   132    1
   101    66    64    1
   102     3     4    2
   103   170   169    2
   104   178   177    2
   105    68    62   am
   106    62    61    1
   107    64    61    1
   108    64    65    1
   109   132   129    1
   110   113   114    1
   111   113   116    1
   112   177   176    1
   113   117   118    1
   114   117   116    1
   115   169   168    1
   116   169   175   am
   117    61    60    1
   118   171   172    1
   119   171   168    1
   120   176   175    1
   121   176   179    1
   122   114   115    2
   123   129   128    1
   124   129   130    1
   125   183   181   ar
   126   183   185   ar
   127   127   125    1
   128    65    67    1
   129   181   180   ar
   130   167   168    1
   131   167   164   am
   132   172   174   ar
   133   172   173   ar
   134   152   151    1
   135   157   156    2
   136   166   163    1
   137   163   164    1
   138   163   162    1
   139   185   184   ar
   140   180   179    1
   141   180   182   ar
   142   123   122    2
   143   164   165    2
   144   130   131    2
   145   121   122    1
   146   121   124    1
   147   121   120    1
   148   125   124    1
   149   125   126    1
   150   156   162   am
   151   156   155    1
   152   184   182   ar
   153   151   150    1
   154   151   153    1
   155   150   147    1
   156   154   155    1
   157   155   158    1
   158   139   138    2
   159   145   143   ar
   160   145   144   ar
   161   143   141   ar
   162   160   158    1
   163   158   159    1
   164   137   136    1
   165   137   138    1
   166   137   140    1
   167   144   142   ar
   168   141   140    1
   169   141   142   ar
   170   147   148    1
   171   147   146    1
   172   148   149    2
   173   159   161    1
