@<TRIPOS>MOLECULE
tmp/5ar8B00.pdb
 218 203 0 0 0
SMALL
GASTEIGER

@<TRIPOS>ATOM
      1  N         69.4960  -15.1190   50.3590 N.3    17  LEU17      -0.1231
      2  CA        68.9340  -15.4970   49.0550 C.3    17  LEU17       0.1693
      3  C         68.9710  -14.2770   48.1420 C.2    17  LEU17       0.2592
      4  O         69.7710  -14.2480   47.2060 O.2    17  LEU17      -0.2718
      5  CB        67.4820  -16.0490   49.1500 C.3    17  LEU17       0.0284
      6  CG        67.2620  -17.4110   49.7830 C.3    17  LEU17       0.0019
      7  CD1       65.8010  -17.7280   49.8640 C.3    17  LEU17       0.0001
      8  CD2       68.0370  -18.5110   49.0670 C.3    17  LEU17       0.0001
      9  N         68.1320  -13.2600   48.4340 N.am   18  SER18      -0.1952
     10  CA        68.0540  -12.0350   47.6510 C.3    18  SER18       0.1924
     11  C         67.6440  -10.7930   48.4640 C.2    18  SER18       0.2314
     12  O         66.7770  -10.8650   49.3400 O.2    18  SER18      -0.2863
     13  CB        67.1140  -12.2200   46.4610 C.3    18  SER18       0.2116
     14  OG        65.7550  -12.1550   46.8590 O.3    18  SER18      -0.2180
     15  N         65.8940   -7.2370   48.1940 N.3    20  GLY20      -0.1225
     16  CA        64.9120   -6.5190   47.3930 C.3    20  GLY20       0.1811
     17  C         64.3710   -5.3030   48.1040 C.2    20  GLY20       0.2280
     18  O         64.7630   -5.0190   49.2390 O.2    20  GLY20      -0.2866
     19  N         61.2970   -4.7150   49.3430 N.3    22  SER22      -0.1217
     20  CA        60.5340   -5.2380   50.4870 C.3    22  SER22       0.1889
     21  C         61.4110   -5.6180   51.6990 C.2    22  SER22       0.2288
     22  O         60.9920   -5.4430   52.8500 O.2    22  SER22      -0.2866
     23  CB        59.7140   -6.4460   50.0450 C.3    22  SER22       0.2089
     24  OG        60.4450   -7.2480   49.1290 O.3    22  SER22      -0.2183
     25  N         65.8140  -11.5260   51.9420 N.3    25  VAL25      -0.1245
     26  CA        65.2500  -12.8610   52.0320 C.3    25  VAL25       0.1561
     27  C         66.3910  -13.8610   52.2550 C.2    25  VAL25       0.2260
     28  O         67.4220  -13.7860   51.5760 O.2    25  VAL25      -0.2867
     29  CB        64.3360  -13.1770   50.8120 C.3    25  VAL25       0.0252
     30  CG1       64.0020  -14.6640   50.7060 C.3    25  VAL25       0.0019
     31  CG2       63.0560  -12.3550   50.8810 C.3    25  VAL25       0.0019
     32  N         61.8420  -19.8660   54.7720 N.3    38  ALA38      -0.1245
     33  CA        62.3710  -18.6580   54.1690 C.3    38  ALA38       0.1562
     34  C         61.9430  -17.5510   55.0920 C.2    38  ALA38       0.2260
     35  O         60.7830  -17.4900   55.5350 O.2    38  ALA38      -0.2867
     36  CB        61.8150  -18.4420   52.7740 C.3    38  ALA38       0.0290
     37  N         61.8720  -13.4220   55.5830 N.3    40  LYS40      -0.1245
     38  CA        61.9690  -12.1040   54.9820 C.3    40  LYS40       0.1561
     39  C         62.1670  -11.0640   56.0920 C.2    40  LYS40       0.2260
     40  O         61.2300  -10.7700   56.8480 O.2    40  LYS40      -0.2867
     41  CB        60.7330  -11.7880   54.1220 C.3    40  LYS40       0.0271
     42  CG        60.7980  -10.4210   53.4450 C.3    40  LYS40       0.0035
     43  CD        60.0700  -10.3960   52.1180 C.3    40  LYS40       0.0206
     44  CE        58.8210   -9.5750   52.2040 C.3    40  LYS40       0.1093
     45  NZ        58.1130   -9.5170   50.8980 N.3    40  LYS40      -0.1314
     46  N         50.2930   -9.1350   57.6660 N.3    50  ALA50      -0.1245
     47  CA        50.5830  -10.5550   57.8080 C.3    50  ALA50       0.1562
     48  C         49.2900  -11.3720   57.9610 C.2    50  ALA50       0.2260
     49  O         49.1860  -12.4420   57.3630 O.2    50  ALA50      -0.2867
     50  CB        51.5000  -10.7780   58.9990 C.3    50  ALA50       0.0290
     51  N         47.3650  -11.4060   54.5290 N.3    53  LEU53      -0.1245
     52  CA        47.9960  -12.4220   53.6900 C.3    53  LEU53       0.1561
     53  C         47.7800  -13.8220   54.2360 C.2    53  LEU53       0.2260
     54  O         47.6800  -14.7670   53.4540 O.2    53  LEU53      -0.2867
     55  CB        49.4830  -12.1430   53.4900 C.3    53  LEU53       0.0270
     56  CG        49.8460  -10.8670   52.7480 C.3    53  LEU53       0.0019
     57  CD1       51.3380  -10.7230   52.6650 C.3    53  LEU53       0.0001
     58  CD2       49.2260  -10.8160   51.3420 C.3    53  LEU53       0.0001
     59  N         49.3930  -19.8800   46.3250 N.3    61  ILE61      -0.1231
     60  CA        49.7770  -18.6690   47.0580 C.3    61  ILE61       0.1692
     61  C         50.8200  -19.1510   48.0660 C.2    61  ILE61       0.2591
     62  O         50.6200  -20.2050   48.6730 O.2    61  ILE61      -0.2718
     63  CB        48.5670  -17.9700   47.7690 C.3    61  ILE61       0.0266
     64  CG1       47.3180  -17.7820   46.8480 C.3    61  ILE61       0.0019
     65  CG2       48.9690  -16.6430   48.4190 C.3    61  ILE61       0.0020
     66  CD1       47.5070  -17.0360   45.5020 C.3    61  ILE61       0.0001
     67  N         51.9470  -18.4290   48.2120 N.am   62  LEU62      -0.1980
     68  CA        53.0170  -18.8150   49.1540 C.3    62  LEU62       0.1596
     69  C         52.5050  -18.8470   50.6060 C.2    62  LEU62       0.2287
     70  O         52.0030  -17.8290   51.0900 O.2    62  LEU62      -0.2864
     71  CB        54.2540  -17.8860   49.0330 C.3    62  LEU62       0.0297
     72  CG        55.4580  -18.1600   49.9620 C.3    62  LEU62       0.0022
     73  CD1       56.0760  -19.5220   49.7100 C.3    62  LEU62       0.0001
     74  CD2       56.5190  -17.0410   49.8380 C.3    62  LEU62       0.0001
     75  N         52.3500  -18.5430   54.5730 N.3    64  ILE64      -0.1245
     76  CA        53.0030  -17.8770   55.7050 C.3    64  ILE64       0.1561
     77  C         52.9550  -18.8600   56.8790 C.2    64  ILE64       0.2260
     78  O         51.9030  -19.4350   57.1860 O.2    64  ILE64      -0.2867
     79  CB        52.4310  -16.4700   56.0350 C.3    64  ILE64       0.0252
     80  CG1       53.2210  -15.7940   57.1890 C.3    64  ILE64       0.0019
     81  CG2       50.9210  -16.4820   56.2800 C.3    64  ILE64       0.0019
     82  CD1       52.8160  -14.2700   57.5180 C.3    64  ILE64       0.0001
     83  N         59.0530  -12.1340   58.3600 N.3    76  ILE76      -0.1245
     84  CA        57.9630  -13.0050   57.9120 C.3    76  ILE76       0.1561
     85  C         58.5800  -14.3390   57.5410 C.2    76  ILE76       0.2260
     86  O         59.5600  -14.3860   56.7860 O.2    76  ILE76      -0.2867
     87  CB        57.0680  -12.3920   56.7960 C.3    76  ILE76       0.0252
     88  CG1       56.2770  -11.1970   57.3580 C.3    76  ILE76       0.0019
     89  CG2       56.1000  -13.4330   56.2410 C.3    76  ILE76       0.0019
     90  CD1       55.8910  -10.1550   56.3520 C.3    76  ILE76       0.0001
     91  N         57.9630  -17.9630   55.8380 N.3    78  THR78      -0.1203
     92  CA        57.1290  -18.6950   54.8710 C.3    78  THR78       0.1994
     93  C         57.8090  -20.0180   54.5430 C.2    78  THR78       0.2618
     94  O         58.9730  -20.2440   54.9350 O.2    78  THR78      -0.2717
     95  CB        57.0310  -17.9280   53.5350 C.3    78  THR78       0.1784
     96  OG1       58.3350  -17.8910   52.9370 O.3    78  THR78      -0.2211
     97  CG2       56.4250  -16.5220   53.6730 C.3    78  THR78       0.0376
     98  N         57.1160  -20.8460   53.7420 N.am   79  GLU79      -0.1965
     99  CA        57.6720  -22.0840   53.2180 C.3    79  GLU79       0.1733
    100  C         58.8410  -21.7380   52.2610 C.2    79  GLU79       0.2616
    101  O         58.8130  -20.7270   51.5460 O.2    79  GLU79      -0.2715
    102  CB        56.6010  -22.8390   52.4340 C.3    79  GLU79       0.0429
    103  CG        55.8970  -23.9190   53.2280 C.3    79  GLU79       0.1163
    104  CD        54.7690  -24.6380   52.5140 C.2    79  GLU79       0.3649
    105  OE1       54.7350  -24.6200   51.2610 O.co2  79  GLU79      -0.2457
    106  OE2       53.9100  -25.2180   53.2200 O.co2  79  GLU79      -0.2457
    107  N         59.8740  -22.5600   52.2810 N.am   80  TYR80      -0.1960
    108  CA        60.9990  -22.3620   51.4030 C.3    80  TYR80       0.1771
    109  C         60.6880  -23.0570   50.0680 C.2    80  TYR80       0.2619
    110  O         60.3650  -24.2520   50.0430 O.2    80  TYR80      -0.2715
    111  CB        62.2790  -22.9070   52.0370 C.3    80  TYR80       0.0574
    112  CG        63.4760  -22.8300   51.1210 C.ar   80  TYR80      -0.0198
    113  CD1       64.0110  -21.6000   50.7360 C.ar   80  TYR80      -0.0009
    114  CD2       64.0900  -23.9830   50.6520 C.ar   80  TYR80      -0.0009
    115  CE1       65.1290  -21.5260   49.9090 C.ar   80  TYR80       0.0417
    116  CE2       65.2040  -23.9210   49.8200 C.ar   80  TYR80       0.0417
    117  CZ        65.7180  -22.6920   49.4490 C.ar   80  TYR80       0.1957
    118  OH        66.7990  -22.6610   48.6060 O.3    80  TYR80      -0.2866
    119  N         60.7550  -22.2820   48.9680 N.am   81  MET81      -0.1964
    120  CA        60.5300  -22.7430   47.6050 C.3    81  MET81       0.1722
    121  C         61.9010  -23.0770   47.0660 C.2    81  MET81       0.2458
    122  O         62.6930  -22.1770   46.8260 O.2    81  MET81      -0.2730
    123  CB        59.8090  -21.6570   46.7890 C.3    81  MET81       0.0427
    124  CG        58.4150  -21.3500   47.3100 C.3    81  MET81       0.0599
    125  SD        57.3090  -22.7590   47.1110 S.3    81  MET81      -0.1393
    126  CE        57.2610  -23.4080   48.7780 C.3    81  MET81       0.0692
    127  N         62.2560  -24.3690   46.9620 N.am   82  PRO82      -0.2727
    128  CA        63.6220  -24.7140   46.5560 C.3    82  PRO82       0.1402
    129  C         64.0220  -24.3890   45.1280 C.2    82  PRO82       0.2269
    130  O         65.2200  -24.4240   44.8610 O.2    82  PRO82      -0.2865
    131  CB        63.7130  -26.2290   46.8260 C.3    82  PRO82       0.0296
    132  CG        62.3810  -26.6970   46.8230 C.3    82  PRO82       0.0237
    133  CD        61.4760  -25.5770   47.2680 C.3    82  PRO82       0.0939
    134  N         63.4740  -21.5220   43.3210 N.3    84  GLY84      -0.1210
    135  CA        63.5490  -20.0980   43.0820 C.3    84  GLY84       0.1956
    136  C         62.3630  -19.5490   42.3450 C.2    84  GLY84       0.2612
    137  O         61.2240  -19.8330   42.7140 O.2    84  GLY84      -0.2717
    138  N         62.6240  -18.7570   41.3040 N.am   85  SER85      -0.1952
    139  CA        61.5610  -18.0800   40.5720 C.3    85  SER85       0.1924
    140  C         61.4150  -18.5460   39.1420 C.2    85  SER85       0.2314
    141  O         62.3180  -19.1880   38.5870 O.2    85  SER85      -0.2863
    142  CB        61.7920  -16.5670   40.6000 C.3    85  SER85       0.2116
    143  OG        62.9670  -16.1860   39.8930 O.3    85  SER85      -0.2180
    144  N         64.2920  -17.2640   36.7840 N.3    88  GLU88      -0.1196
    145  CA        65.5020  -18.0860   36.6790 C.3    88  GLU88       0.1783
    146  C         65.2480  -19.2730   35.7360 C.2    88  GLU88       0.2306
    147  O         66.1280  -19.6200   34.9540 O.2    88  GLU88      -0.2863
    148  CB        65.9730  -18.5850   38.0680 C.2    88  GLU88       0.0071
    149  CG        66.3310  -17.4970   39.0840 C.2    88  GLU88       0.0834
    150  CD        66.6690  -17.9710   40.4910 C.2    88  GLU88       0.3877
    151  OE1       65.7560  -18.4520   41.1980 O.co2  88  GLU88      -0.2406
    152  OE2       67.8380  -17.8150   40.9100 O.co2  88  GLU88      -0.2406
    153  N         55.1040  -10.3030   38.5300 N.3   131  LYS131     -0.1245
    154  CA        56.2730  -10.3200   37.6690 C.3   131  LYS131      0.1561
    155  C         56.8360  -11.7170   37.7140 C.2   131  LYS131      0.2260
    156  O         56.4570  -12.4710   38.5960 O.2   131  LYS131     -0.2867
    157  CB        57.3310   -9.2230   38.0430 C.3   131  LYS131      0.0271
    158  CG        57.5260   -8.8450   39.5200 C.3   131  LYS131      0.0035
    159  CD        58.8700   -8.1620   39.7270 C.3   131  LYS131      0.0206
    160  CE        58.9170   -7.1300   40.8430 C.3   131  LYS131      0.1093
    161  NZ        60.1200   -6.2410   40.7240 N.3   131  LYS131     -0.1314
    162  N         59.7050  -12.6880   38.6070 N.3   133  GLN133     -0.1231
    163  CA        60.6400  -12.7780   39.7310 C.3   133  GLN133      0.1698
    164  C         59.8720  -13.2350   40.9920 C.2   133  GLN133      0.2592
    165  O         60.4550  -13.8750   41.8710 O.2   133  GLN133     -0.2718
    166  CB        61.2980  -11.4040   39.9990 C.3   133  GLN133      0.0381
    167  CG        62.2300  -10.8700   38.9010 C.3   133  GLN133      0.0905
    168  CD        61.5670  -10.0450   37.7980 C.2   133  GLN133      0.2608
    169  OE1       60.3590  -10.1140   37.5390 O.2   133  GLN133     -0.2717
    170  NE2       62.3700   -9.2850   37.0680 N.am  133  GLN133     -0.0878
    171  N         58.5760  -12.8910   41.0840 N.am  134  ASN134     -0.1974
    172  CA        57.8060  -13.2390   42.2610 C.3   134  ASN134      0.1688
    173  C         56.7360  -14.3610   42.0490 C.2   134  ASN134      0.2292
    174  O         55.7590  -14.4580   42.7880 O.2   134  ASN134     -0.2864
    175  CB        57.2230  -12.0000   42.8980 C.3   134  ASN134      0.1181
    176  CG        56.2910  -11.1650   42.0900 C.2   134  ASN134      0.2629
    177  OD1       55.4940  -11.6530   41.2730 O.2   134  ASN134     -0.2716
    178  ND2       56.2460   -9.9040   42.4730 N.am  134  ASN134     -0.0877
    179  N         57.1590  -18.0520   42.3310 N.3   136  LEU136     -0.1245
    180  CA        58.1230  -18.9940   42.8420 C.3   136  LEU136      0.1561
    181  C         57.7280  -20.4450   42.5540 C.2   136  LEU136      0.2260
    182  O         56.5460  -20.7690   42.3380 O.2   136  LEU136     -0.2867
    183  CB        58.3910  -18.7260   44.3310 C.3   136  LEU136      0.0270
    184  CG        58.7200  -17.2600   44.7280 C.3   136  LEU136      0.0019
    185  CD1       58.5780  -17.0940   46.2020 C.3   136  LEU136      0.0001
    186  CD2       60.1380  -16.8260   44.3090 C.3   136  LEU136      0.0001
    187  N         52.5690  -17.9920   44.3050 N.3   145  ILE145     -0.1231
    188  CA        52.6350  -16.5370   44.1120 C.3   145  ILE145      0.1692
    189  C         53.0470  -15.8800   45.4390 C.2   145  ILE145      0.2592
    190  O         52.5250  -16.2140   46.5160 O.2   145  ILE145     -0.2718
    191  CB        51.3340  -15.9050   43.5160 C.3   145  ILE145      0.0266
    192  CG1       51.0070  -16.4970   42.1240 C.3   145  ILE145      0.0019
    193  CG2       51.4590  -14.3740   43.4280 C.3   145  ILE145      0.0020
    194  CD1       49.6280  -16.7240   41.9280 C.3   145  ILE145      0.0001
    195  N         53.9920  -14.9470   45.3360 N.am  146  ALA146     -0.1966
    196  CA        54.5460  -14.2150   46.4660 C.3   146  ALA146      0.1728
    197  C         54.7130  -12.7430   46.0980 C.2   146  ALA146      0.2616
    198  O         54.3570  -12.3360   44.9840 O.2   146  ALA146     -0.2715
    199  CB        55.9120  -14.8110   46.8250 C.3   146  ALA146      0.0334
    200  N         55.2810  -11.9590   47.0520 N.am  147  ASP147     -0.1957
    201  CA        55.7200  -10.5690   46.9340 C.3   147  ASP147      0.1840
    202  C         54.6440   -9.5710   46.4920 C.2   147  ASP147      0.2622
    203  O         54.9010   -8.7190   45.6340 O.2   147  ASP147     -0.2715
    204  CB        56.9260  -10.5250   45.9870 C.3   147  ASP147      0.1450
    205  CG        58.0070   -9.5660   46.3630 C.2   147  ASP147      0.3671
    206  OD1       58.4460   -9.5960   47.5440 O.co2 147  ASP147     -0.2456
    207  OD2       58.4870   -8.8450   45.4620 O.co2 147  ASP147     -0.2456
    208  N         53.4670   -9.6480   47.1140 N.am  148  PHE148     -0.1974
    209  CA        52.3250   -8.7540   46.8890 C.3   148  PHE148      0.1639
    210  C         52.7220   -7.2610   47.0410 C.2   148  PHE148      0.2290
    211  O         53.4840   -6.9150   47.9650 O.2   148  PHE148     -0.2864
    212  CB        51.2000   -9.0800   47.8970 C.3   148  PHE148      0.0560
    213  CG        50.6170  -10.4600   47.7490 C.ar  148  PHE148     -0.0200
    214  CD1       51.2800  -11.5730   48.2540 C.ar  148  PHE148     -0.0042
    215  CD2       49.4050  -10.6520   47.1080 C.ar  148  PHE148     -0.0042
    216  CE1       50.7520  -12.8500   48.0950 C.ar  148  PHE148     -0.0003
    217  CE2       48.8700  -11.9250   46.9720 C.ar  148  PHE148     -0.0003
    218  CZ        49.5480  -13.0150   47.4630 C.ar  148  PHE148     -0.0000
@<TRIPOS>BOND
     1   147   146    2
     2   146   145    1
     3   145   144    1
     4   145   148    1
     5   170   168   am
     6   169   168    2
     7   154   155    1
     8   154   157    1
     9   154   153    1
    10   155   156    2
    11   168   167    1
    12   157   158    1
    13   148   149    2
    14   141   140    2
    15   162   163    1
    16   167   166    1
    17   149   150    1
    18   140   139    1
    19   158   159    1
    20   159   160    1
    21   163   166    1
    22   163   164    1
    23   143   142    1
    24   150   152   ar
    25   150   151   ar
    26   139   142    1
    27   139   138    1
    28   161   160    1
    29   164   171   am
    30   164   165    2
    31   171   172    1
    32   177   176    2
    33   138   136   am
    34   194   192    1
    35   173   172    1
    36   173   174    2
    37   176   178   am
    38   176   175    1
    39   192   191    1
    40   172   175    1
    41   179   180    1
    42   182   181    2
    43   136   137    2
    44   136   135    1
    45   181   180    1
    46   180   183    1
    47   135   134    1
    48   193   191    1
    49   191   188    1
    50   188   187    1
    51   188   189    1
    52   186   184    1
    53   183   184    1
    54   184   185    1
    55   130   129    2
    56   198   197    2
    57   129   128    1
    58   195   189   am
    59   195   196    1
    60   189   190    2
    61   207   205   ar
    62    66    64    1
    63   203   202    2
    64   204   205    1
    65   204   201    1
    66   197   196    1
    67   197   200   am
    68    59    60    1
    69   205   206   ar
    70    13    14    1
    71    13    10    1
    72   196   199    1
    73   202   201    1
    74   202   208   am
    75   128   131    1
    76   128   127    1
    77   123   124    1
    78   123   120    1
    79   132   131    1
    80   132   133    1
    81   122   121    2
    82    64    63    1
    83   209   210    1
    84   209   208    1
    85   209   212    1
    86   201   200    1
    87   127   121   am
    88   127   133    1
    89   217   215   ar
    90   217   218   ar
    91   210   211    2
    92    60    63    1
    93    60    61    1
    94   121   120    1
    95   215   213   ar
    96   125   124    1
    97   125   126    1
    98     4     3    2
    99    16    17    1
   100    16    15    1
   101   218   216   ar
   102   120   119    1
   103    10     9    1
   104    10    11    1
   105   213   212    1
   106   213   214   ar
   107    63    65    1
   108    61    67   am
   109    61    62    2
   110   216   214   ar
   111    17    18    2
   112     3     9   am
   113     3     2    1
   114    67    68    1
   115    11    12    2
   116   118   117    1
   117   119   109   am
   118    71    68    1
   119    71    72    1
   120     2     5    1
   121     2     1    1
   122     8     6    1
   123    24    23    1
   124     5     6    1
   125    68    69    1
   126    19    20    1
   127   117   116   ar
   128   117   115   ar
   129    73    72    1
   130     6     7    1
   131   116   114   ar
   132    74    72    1
   133   115   113   ar
   134   110   109    2
   135    23    20    1
   136   109   108    1
   137    20    21    1
   138    69    70    2
   139   114   112   ar
   140    30    29    1
   141   113   112   ar
   142    29    31    1
   143    29    26    1
   144    45    44    1
   145   112   111    1
   146   105   104   ar
   147    58    56    1
   148   108   111    1
   149   108   107    1
   150   101   100    2
   151    28    27    2
   152    21    22    2
   153    25    26    1
   154    26    27    1
   155    43    44    1
   156    43    42    1
   157   100   107   am
   158   100    99    1
   159   102    99    1
   160   102   103    1
   161   104   106   ar
   162   104   103    1
   163    57    56    1
   164    56    55    1
   165    36    33    1
   166    96    95    1
   167    99    98    1
   168    42    41    1
   169    54    53    2
   170    55    52    1
   171    95    97    1
   172    95    92    1
   173    52    53    1
   174    52    51    1
   175    98    93   am
   176    41    38    1
   177    33    32    1
   178    33    34    1
   179    93    92    1
   180    93    94    2
   181    75    76    1
   182    92    91    1
   183    38    37    1
   184    38    39    1
   185    34    35    2
   186    76    79    1
   187    76    77    1
   188    79    81    1
   189    79    80    1
   190    39    40    2
   191    89    87    1
   192    90    88    1
   193    86    85    2
   194    87    88    1
   195    87    84    1
   196    77    78    2
   197    80    82    1
   198    49    48    2
   199    85    84    1
   200    46    47    1
   201    47    48    1
   202    47    50    1
   203    84    83    1
