@<TRIPOS>MOLECULE
tmp/5arfA00.pdb
 203 195 0 0 0
SMALL
GASTEIGER

@<TRIPOS>ATOM
      1  N         18.4600   -2.7590  -12.2380 N.3    99  GLU99      -0.1231
      2  CA        19.2750   -3.6670  -11.4230 C.3    99  GLU99       0.1699
      3  C         19.4590   -4.9860  -12.1830 C.2    99  GLU99       0.2592
      4  O         20.5310   -5.6140  -12.1670 O.2    99  GLU99      -0.2718
      5  CB        18.6450   -3.8150  -10.0610 C.3    99  GLU99       0.0402
      6  CG        19.5210   -4.5140   -9.0660 C.3    99  GLU99       0.1161
      7  CD        19.2010   -4.0890   -7.6780 C.2    99  GLU99       0.3649
      8  OE1       19.1040   -2.8460   -7.4070 O.co2  99  GLU99      -0.2457
      9  OE2       18.9520   -5.0290   -6.8740 O.co2  99  GLU99      -0.2457
     10  N         18.4090   -5.3500  -12.9080 N.am  100  THR100     -0.1953
     11  CA        18.4460   -6.5110  -13.7670 C.3   100  THR100      0.1897
     12  C         19.5260   -6.4520  -14.8020 C.2   100  THR100      0.2313
     13  O         20.2370   -7.4220  -15.0070 O.2   100  THR100     -0.2863
     14  CB        17.0890   -6.7720  -14.4060 C.3   100  THR100      0.1794
     15  OG1       16.1510   -7.0320  -13.3540 O.3   100  THR100     -0.2208
     16  CG2       17.1510   -7.9530  -15.3740 C.3   100  THR100      0.0378
     17  N         22.9800   -6.8420  -12.9330 N.3   103  LEU103     -0.1245
     18  CA        23.2750   -8.2190  -12.5090 C.3   103  LEU103      0.1561
     19  C         23.6490   -9.0910  -13.6850 C.2   103  LEU103      0.2260
     20  O         24.5520   -9.8890  -13.6000 O.2   103  LEU103     -0.2867
     21  CB        22.0800   -8.8100  -11.7390 C.3   103  LEU103      0.0270
     22  CG        22.3240  -10.2000  -11.1140 C.3   103  LEU103      0.0019
     23  CD1       23.4280  -10.2100  -10.0940 C.3   103  LEU103      0.0001
     24  CD2       21.0440  -10.8270  -10.5370 C.3   103  LEU103      0.0001
     25  N         17.3480  -15.3430  -15.7320 N.3   174  VAL174     -0.1231
     26  CA        17.4660  -14.3850  -14.6070 C.3   174  VAL174      0.1692
     27  C         16.1040  -14.0910  -13.9540 C.2   174  VAL174      0.2592
     28  O         15.9780  -14.0960  -12.7610 O.2   174  VAL174     -0.2718
     29  CB        18.1800  -13.0650  -15.0310 C.3   174  VAL174      0.0266
     30  CG1       18.1500  -11.9770  -13.9510 C.3   174  VAL174      0.0020
     31  CG2       19.6300  -13.3930  -15.3340 C.3   174  VAL174      0.0020
     32  N         15.1060  -13.8310  -14.7540 N.am  175  ASN175     -0.1960
     33  CA        13.8000  -13.5750  -14.1630 C.3   175  ASN175      0.1819
     34  C         13.2190  -14.8250  -13.4310 C.2   175  ASN175      0.2621
     35  O         12.4920  -14.6790  -12.4620 O.2   175  ASN175     -0.2715
     36  CB        12.8320  -13.0320  -15.2580 C.3   175  ASN175      0.1195
     37  CG        13.1100  -11.5580  -15.5930 C.2   175  ASN175      0.2630
     38  OD1       13.6660  -10.7580  -14.7640 O.2   175  ASN175     -0.2716
     39  ND2       12.7350  -11.1800  -16.7980 N.am  175  ASN175     -0.0877
     40  N         13.5390  -16.0240  -13.9350 N.am  176  CYS176     -0.1954
     41  CA        12.9630  -17.2700  -13.3930 C.3   176  CYS176      0.1843
     42  C         13.7510  -17.7060  -12.1390 C.2   176  CYS176      0.2625
     43  O         13.2410  -18.4390  -11.3300 O.2   176  CYS176     -0.2714
     44  CB        12.9780  -18.3740  -14.4720 C.3   176  CYS176      0.0997
     45  SG        12.2930  -19.9750  -13.9270 S.3   176  CYS176     -0.0797
     46  N         14.9990  -17.2420  -11.9960 N.am  177  ASN177     -0.1958
     47  CA        15.9050  -17.8380  -11.0310 C.3   177  ASN177      0.1819
     48  C         16.6560  -16.8500  -10.1230 C.2   177  ASN177      0.2622
     49  O         17.2730  -17.2680   -9.1470 O.2   177  ASN177     -0.2715
     50  CB        16.9350  -18.6970  -11.7250 C.3   177  ASN177      0.1195
     51  CG        16.3060  -19.8510  -12.4810 C.2   177  ASN177      0.2630
     52  OD1       16.0720  -19.7820  -13.7170 O.2   177  ASN177     -0.2716
     53  ND2       16.0580  -20.9260  -11.7560 N.am  177  ASN177     -0.0877
     54  N         16.6620  -15.5770  -10.4930 N.am  178  GLY178     -0.1940
     55  CA        17.3240  -14.5530   -9.6510 C.3   178  GLY178      0.2014
     56  C         16.6560  -14.3750   -8.3090 C.2   178  GLY178      0.2639
     57  O         15.4670  -14.7170   -8.1350 O.2   178  GLY178     -0.2714
     58  N         17.4180  -13.7710   -7.3700 N.am  179  PHE179     -0.1959
     59  CA        16.9760  -13.4840   -6.0200 C.3   179  PHE179      0.1771
     60  C         17.1780  -12.0080   -5.7130 C.2   179  PHE179      0.2620
     61  O         18.0890  -11.4210   -6.2620 O.2   179  PHE179     -0.2715
     62  CB        17.8620  -14.1980   -4.9870 C.3   179  PHE179      0.0574
     63  CG        17.6460  -15.6660   -4.9180 C.ar  179  PHE179     -0.0200
     64  CD1       18.2190  -16.4870   -5.8710 C.ar  179  PHE179     -0.0042
     65  CD2       16.8460  -16.2170   -3.9050 C.ar  179  PHE179     -0.0042
     66  CE1       17.9740  -17.8470   -5.8660 C.ar  179  PHE179     -0.0003
     67  CE2       16.6100  -17.5770   -3.8790 C.ar  179  PHE179     -0.0003
     68  CZ        17.1420  -18.3900   -4.8640 C.ar  179  PHE179     -0.0000
     69  N         16.3880  -11.4710   -4.7910 N.am  180  THR180     -0.1951
     70  CA        16.7640  -10.2600   -4.0480 C.3   180  THR180      0.1897
     71  C         17.4370  -10.6160   -2.7840 C.2   180  THR180      0.2313
     72  O         17.1450  -11.6600   -2.1940 O.2   180  THR180     -0.2863
     73  CB        15.5630   -9.3780   -3.7080 C.3   180  THR180      0.1794
     74  OG1       14.7540  -10.0630   -2.7470 O.3   180  THR180     -0.2208
     75  CG2       14.8390   -9.0850   -4.9580 C.3   180  THR180      0.0378
     76  N         17.6210   -9.0550    0.9090 N.3   182  GLU182     -0.1245
     77  CA        17.0320   -8.1210    1.8670 C.3   182  GLU182      0.1567
     78  C         17.6390   -8.2320    3.2620 C.2   182  GLU182      0.2260
     79  O         18.0930   -9.3160    3.6720 O.2   182  GLU182     -0.2867
     80  CB        15.5330   -8.3630    1.8970 C.3   182  GLU182      0.0388
     81  CG        14.9070   -8.2540    0.5050 C.3   182  GLU182      0.1160
     82  CD        13.6360   -9.0580    0.3180 C.2   182  GLU182      0.3649
     83  OE1       13.3620  -10.0160    1.0990 O.co2 182  GLU182     -0.2457
     84  OE2       12.8840   -8.6810   -0.5950 O.co2 182  GLU182     -0.2457
     85  N         15.5240   -3.7590    0.8850 N.3   188  HIS188     -0.1241
     86  CA        16.2450   -4.2730   -0.2600 C.3   188  HIS188      0.1621
     87  C         17.6820   -3.8570   -0.1660 C.2   188  HIS188      0.2264
     88  O         17.9610   -2.6700   -0.0040 O.2   188  HIS188     -0.2867
     89  CB        15.6880   -3.6950   -1.5230 C.3   188  HIS188      0.0745
     90  CG        16.2780   -4.2560   -2.7630 C.ar  188  HIS188      0.0817
     91  ND1       16.0330   -5.5400   -3.1890 N.ar  188  HIS188     -0.2268
     92  CD2       17.0280   -3.6670   -3.7290 C.ar  188  HIS188      0.1154
     93  CE1       16.6270   -5.7260   -4.3560 C.ar  188  HIS188      0.1986
     94  NE2       17.2440   -4.6060   -4.7030 N.ar  188  HIS188     -0.2212
     95  N         20.5830   -7.7430   -5.3680 N.3   191  SER191     -0.1217
     96  CA        20.0100   -8.8160   -6.2060 C.3   191  SER191      0.1889
     97  C         21.1880   -9.7330   -6.4690 C.2   191  SER191      0.2288
     98  O         22.3850   -9.2810   -6.4640 O.2   191  SER191     -0.2866
     99  CB        19.3410   -8.2990   -7.4850 C.3   191  SER191      0.2089
    100  OG        18.1550   -7.5110   -7.2570 O.3   191  SER191     -0.2183
    101  N         20.4310  -22.8110   -4.7810 N.3   197  VAL197     -0.1231
    102  CA        19.2310  -22.4350   -4.1180 C.3   197  VAL197      0.1692
    103  C         18.0520  -22.4020   -5.0890 C.2   197  VAL197      0.2591
    104  O         16.9130  -22.6870   -4.6780 O.2   197  VAL197     -0.2718
    105  CB        19.4080  -21.0870   -3.3210 C.3   197  VAL197      0.0266
    106  CG1       18.1810  -20.7470   -2.4760 C.3   197  VAL197      0.0020
    107  CG2       20.6540  -21.1220   -2.4530 C.3   197  VAL197      0.0020
    108  N         18.2940  -22.0600   -6.3610 N.am  198  ALA198     -0.1980
    109  CA        17.2150  -21.9280   -7.3340 C.3   198  ALA198      0.1597
    110  C         16.7000  -23.2640   -7.8240 C.2   198  ALA198      0.2287
    111  O         15.7860  -23.2920   -8.5620 O.2   198  ALA198     -0.2864
    112  CB        17.6150  -21.0770   -8.5470 C.3   198  ALA198      0.0319
    113  N         15.3230  -25.2960   -5.8200 N.3   200  MET200     -0.1245
    114  CA        14.1900  -25.5430   -4.9490 C.3   200  MET200      0.1570
    115  C         12.9460  -24.9720   -5.5530 C.2   200  MET200      0.2261
    116  O         12.9100  -23.8420   -5.9890 O.2   200  MET200     -0.2867
    117  CB        14.3520  -24.9440   -3.5500 C.3   200  MET200      0.0387
    118  CG        15.3820  -25.6130   -2.6570 C.3   200  MET200      0.0595
    119  SD        15.4950  -24.9210   -0.9920 S.3   200  MET200     -0.1393
    120  CE        15.9830  -23.1960   -1.2350 C.3   200  MET200      0.0692
    121  N         15.0710  -19.1650    3.2700 N.3   210  VAL210     -0.1245
    122  CA        16.3280  -18.7060    2.7400 C.3   210  VAL210      0.1561
    123  C         16.5760  -17.3400    3.4070 C.2   210  VAL210      0.2260
    124  O         15.7260  -16.4120    3.4080 O.2   210  VAL210     -0.2867
    125  CB        16.2670  -18.5470    1.2200 C.3   210  VAL210      0.0252
    126  CG1       17.5830  -18.0260    0.6420 C.3   210  VAL210      0.0019
    127  CG2       15.8990  -19.8680    0.4990 C.3   210  VAL210      0.0019
    128  N         20.1810  -14.5160    4.3550 N.3   212  TYR212     -0.1241
    129  CA        21.4850  -14.1100    3.7420 C.3   212  TYR212      0.1605
    130  C         22.4340  -13.7080    4.8380 C.2   212  TYR212      0.2264
    131  O         22.0330  -13.1000    5.7860 O.2   212  TYR212     -0.2867
    132  CB        21.2590  -12.9860    2.7050 C.3   212  TYR212      0.0534
    133  CG        20.1900  -13.3650    1.7180 C.ar  212  TYR212     -0.0201
    134  CD1       20.4780  -14.2060    0.6350 C.ar  212  TYR212     -0.0009
    135  CD2       18.9050  -12.9050    1.8610 C.ar  212  TYR212     -0.0009
    136  CE1       19.4900  -14.6230   -0.2560 C.ar  212  TYR212      0.0417
    137  CE2       17.9330  -13.2470    0.9270 C.ar  212  TYR212      0.0417
    138  CZ        18.2130  -14.1360   -0.1060 C.ar  212  TYR212      0.1957
    139  OH        17.1840  -14.4870   -0.9500 O.3   212  TYR212     -0.2866
    140  N         10.8710  -23.9020   -0.7330 N.3   233  THR233     -0.1203
    141  CA        10.9040  -22.5630   -0.1560 C.3   233  THR233      0.1994
    142  C          9.7310  -21.8040   -0.7370 C.2   233  THR233      0.2619
    143  O          9.0860  -22.2620   -1.6560 O.2   233  THR233     -0.2717
    144  CB        12.2180  -21.8210   -0.5100 C.3   233  THR233      0.1784
    145  OG1       12.2790  -20.6240    0.2580 O.3   233  THR233     -0.2211
    146  CG2       12.3070  -21.5230   -2.0400 C.3   233  THR233      0.0376
    147  N          9.5090  -20.5890   -0.2840 N.am  234  SER234     -0.1937
    148  CA         8.5000  -19.7350   -0.8760 C.3   234  SER234      0.2055
    149  C          9.0910  -18.6900   -1.8340 C.2   234  SER234      0.2643
    150  O         10.1040  -18.0470   -1.4900 O.2   234  SER234     -0.2714
    151  CB         7.7820  -19.0140    0.1970 C.3   234  SER234      0.2130
    152  OG         6.9160  -18.0700   -0.3170 O.3   234  SER234     -0.2179
    153  N          8.4450  -18.4740   -2.9810 N.am  235  TYR235     -0.1959
    154  CA         8.9470  -17.5140   -3.9650 C.3   235  TYR235      0.1771
    155  C          8.3060  -16.1340   -3.7250 C.2   235  TYR235      0.2619
    156  O          8.7000  -15.1130   -4.3570 O.2   235  TYR235     -0.2715
    157  CB         8.6810  -17.9530   -5.4060 C.3   235  TYR235      0.0574
    158  CG         9.3730  -19.2200   -5.9290 C.ar  235  TYR235     -0.0198
    159  CD1       10.2620  -19.9400   -5.1620 C.ar  235  TYR235     -0.0009
    160  CD2        9.1230  -19.6610   -7.2080 C.ar  235  TYR235     -0.0009
    161  CE1       10.8610  -21.0810   -5.6490 C.ar  235  TYR235      0.0417
    162  CE2        9.7340  -20.8090   -7.7380 C.ar  235  TYR235      0.0417
    163  CZ        10.6030  -21.5110   -6.9360 C.ar  235  TYR235      0.1957
    164  OH        11.2190  -22.6290   -7.3940 O.3   235  TYR235     -0.2866
    165  N          7.3280  -16.0820   -2.8290 N.am  236  ILE236     -0.1963
    166  CA         6.5140  -14.8990   -2.7390 C.3   236  ILE236      0.1727
    167  C          6.1250  -14.5260   -1.3380 C.2   236  ILE236      0.2616
    168  O          6.2520  -15.3010   -0.3520 O.2   236  ILE236     -0.2715
    169  CB         5.2180  -15.0790   -3.5750 C.3   236  ILE236      0.0290
    170  CG1        4.4780  -16.3660   -3.0960 C.3   236  ILE236      0.0022
    171  CG2        5.5230  -15.0810   -5.0800 C.3   236  ILE236      0.0023
    172  CD1        3.0620  -16.5890   -3.6310 C.3   236  ILE236      0.0001
    173  N          5.5430  -13.3440   -1.2420 N.am  237  ASP237     -0.1971
    174  CA         4.9010  -12.9100    0.0100 C.3   237  ASP237      0.1709
    175  C          3.6180  -13.7130    0.3050 C.2   237  ASP237      0.2293
    176  O          2.6290  -13.6240   -0.4260 O.2   237  ASP237     -0.2864
    177  CB         4.5880  -11.4140   -0.1020 C.3   237  ASP237      0.1436
    178  CG         4.2130  -10.7540    1.2520 C.2   237  ASP237      0.3671
    179  OD1        3.7130  -11.4450    2.1840 O.co2 237  ASP237     -0.2456
    180  OD2        4.4450   -9.5330    1.3950 O.co2 237  ASP237     -0.2456
    181  N          0.3700  -14.0080   -9.2680 N.3   248  ARG248     -0.1245
    182  CA         1.8050  -13.7120   -9.1920 C.3   248  ARG248      0.1563
    183  C          2.6460  -14.9180   -9.6160 C.2   248  ARG248      0.2260
    184  O          3.5670  -14.7760  -10.4210 O.2   248  ARG248     -0.2867
    185  CB         2.1360  -13.2510   -7.7660 C.3   248  ARG248      0.0307
    186  CG         3.5060  -12.7040   -7.5190 C.3   248  ARG248      0.0489
    187  CD         3.8300  -11.5290   -8.4230 C.3   248  ARG248      0.2205
    188  NE         4.7240  -10.5720   -7.7490 N.pl3 248  ARG248     -0.0865
    189  CZ         6.0370  -10.7360   -7.5620 C.cat 248  ARG248      0.5346
    190  NH1        6.6680  -11.8300   -7.9900 N.pl3 248  ARG248      0.1354
    191  NH2        6.7320   -9.7890   -6.9370 N.pl3 248  ARG248      0.1354
    192  N          6.4780  -16.9510  -12.6420 N.3   253  TYR253     -0.1241
    193  CA         7.1610  -18.2690  -12.7110 C.3   253  TYR253      0.1605
    194  C          6.4750  -19.3100  -13.5930 C.2   253  TYR253      0.2264
    195  O          6.9150  -20.4650  -13.6470 O.2   253  TYR253     -0.2867
    196  CB         7.3690  -18.8210  -11.2890 C.3   253  TYR253      0.0534
    197  CG         8.2240  -17.8820  -10.4660 C.ar  253  TYR253     -0.0201
    198  CD1        9.6160  -17.8680  -10.6380 C.ar  253  TYR253     -0.0009
    199  CD2        7.6610  -16.9470   -9.5910 C.ar  253  TYR253     -0.0009
    200  CE1       10.4170  -16.9810   -9.9460 C.ar  253  TYR253      0.0417
    201  CE2        8.4780  -16.0270   -8.8940 C.ar  253  TYR253      0.0417
    202  CZ         9.8550  -16.0690   -9.0500 C.ar  253  TYR253      0.1957
    203  OH        10.7230  -15.1820   -8.3940 O.3   253  TYR253     -0.2866
@<TRIPOS>BOND
     1    39    37   am
     2    25    26    1
     3    37    36    1
     4    37    38    2
     5    16    14    1
     6    31    29    1
     7    36    33    1
     8    29    26    1
     9    29    30    1
    10    13    12    2
    11    12    11    1
    12    32    33    1
    13    32    27   am
    14    26    27    1
    15    44    45    1
    16    44    41    1
    17    14    11    1
    18    14    15    1
    19    33    34    1
    20    27    28    2
    21    40    34   am
    22    40    41    1
    23    11    10    1
    24    52    51    2
    25    19    20    2
    26    19    18    1
    27   195   194    2
    28   194   193    1
    29    34    35    2
    30    41    42    1
    31    17    18    1
    32    10     3   am
    33   193   192    1
    34   193   196    1
    35    18    21    1
    36    51    53   am
    37    51    50    1
    38     1     2    1
    39     3     4    2
    40     3     2    1
    41    42    46   am
    42    42    43    2
    43    46    47    1
    44    21    22    1
    45    50    47    1
    46     2     5    1
    47   196   197    1
    48    22    24    1
    49    22    23    1
    50    47    48    1
    51   198   197   ar
    52   198   200   ar
    53    54    48   am
    54    54    55    1
    55   197   199   ar
    56   184   183    2
    57    48    49    2
    58     5     6    1
    59   200   202   ar
    60    55    56    1
    61   183   182    1
    62   199   201   ar
    63   181   182    1
    64   182   185    1
    65     6     7    1
    66   202   201   ar
    67   202   203    1
    68   111   110    2
    69   112   109    1
    70   187   188    1
    71   187   186    1
    72    56    57    2
    73    56    58   am
    74   190   189    1
    75   110   109    1
    76   185   186    1
    77   188   189    2
    78   162   160   ar
    79   162   163   ar
    80     7     8   ar
    81     7     9   ar
    82   189   191    1
    83    99   100    1
    84    99    96    1
    85   164   163    1
    86    58    59    1
    87   109   108    1
    88   160   158   ar
    89   163   161   ar
    90    97    98    2
    91    97    96    1
    92   108   103   am
    93    61    60    2
    94    96    95    1
    95    59    60    1
    96    59    62    1
    97   116   115    2
    98   158   157    1
    99   158   159   ar
   100    64    66   ar
   101    64    63   ar
   102    66    68   ar
   103   113   114    1
   104    60    69   am
   105   161   159   ar
   106   115   114    1
   107   157   154    1
   108   103   104    2
   109   103   102    1
   110   171   169    1
   111    62    63    1
   112    75    73    1
   113   114   117    1
   114    63    65   ar
   115    68    67   ar
   116    69    70    1
   117   101   102    1
   118    94    93   ar
   119    94    92   ar
   120   156   155    2
   121    93    91   ar
   122   102   105    1
   123    70    73    1
   124    70    71    1
   125   154   155    1
   126   154   153    1
   127    65    67   ar
   128    92    90   ar
   129   155   165   am
   130    73    74    1
   131   172   170    1
   132   169   170    1
   133   169   166    1
   134   117   118    1
   135   105   106    1
   136   105   107    1
   137    91    90   ar
   138   153   149   am
   139   165   166    1
   140    71    72    2
   141    90    89    1
   142   166   167    1
   143   118   119    1
   144   146   144    1
   145   149   150    2
   146   149   148    1
   147   143   142    2
   148    89    86    1
   149   167   173   am
   150   167   168    2
   151   173   174    1
   152   120   119    1
   153   139   138    1
   154   148   147    1
   155   148   151    1
   156   142   147   am
   157   142   141    1
   158   140   141    1
   159    84    82   ar
   160   144   141    1
   161   144   145    1
   162   176   175    2
   163   152   151    1
   164    86    87    1
   165    86    85    1
   166   136   138   ar
   167   136   134   ar
   168    87    88    2
   169   138   137   ar
   170   177   174    1
   171   177   178    1
   172   174   175    1
   173    82    81    1
   174    82    83   ar
   175   127   125    1
   176    81    80    1
   177   134   133   ar
   178   126   125    1
   179    76    77    1
   180   137   135   ar
   181   125   122    1
   182   178   180   ar
   183   178   179   ar
   184   133   135   ar
   185   133   132    1
   186    77    80    1
   187    77    78    1
   188   132   129    1
   189   122   121    1
   190   122   123    1
   191    78    79    2
   192   123   124    2
   193   129   128    1
   194   129   130    1
   195   130   131    2
