@<TRIPOS>MOLECULE
tmp/5arlA00.pdb
 110 109 0 0 0
SMALL
GASTEIGER

@<TRIPOS>ATOM
      1  N        -20.9550  -16.0250   11.2990 N.3     9  ARG9       -0.1245
      2  CA       -20.0250  -15.1680   12.0290 C.3     9  ARG9        0.1563
      3  C        -19.9310  -13.7990   11.3460 C.2     9  ARG9        0.2260
      4  O        -19.9310  -12.7570   12.0180 O.2     9  ARG9       -0.2867
      5  CB       -18.6670  -15.8580   12.0930 C.3     9  ARG9        0.0307
      6  CG       -17.6850  -15.2290   13.0600 C.3     9  ARG9        0.0489
      7  CD       -16.6220  -16.2380   13.5020 C.3     9  ARG9        0.2205
      8  NE       -16.0360  -15.8280   14.7770 N.pl3   9  ARG9       -0.0865
      9  CZ       -15.1470  -14.8460   14.8980 C.cat   9  ARG9        0.5346
     10  NH1      -14.7270  -14.1800   13.8200 N.pl3   9  ARG9        0.1354
     11  NH2      -14.6610  -14.5220   16.0970 N.pl3   9  ARG9        0.1354
     12  N        -21.0850  -10.3580   12.9420 N.3    13  GLN13      -0.1231
     13  CA       -20.0800   -9.3350   13.2100 C.3    13  GLN13       0.1698
     14  C        -20.1740   -8.1530   12.2690 C.2    13  GLN13       0.2592
     15  O        -19.7850   -7.0640   12.6530 O.2    13  GLN13      -0.2718
     16  CB       -18.6900   -9.9110   13.0910 C.3    13  GLN13       0.0381
     17  CG       -18.2980  -10.8430   14.2140 C.3    13  GLN13       0.0905
     18  CD       -16.8520  -11.3040   14.0770 C.2    13  GLN13       0.2608
     19  OE1      -16.2350  -11.1950   13.0100 O.2    13  GLN13      -0.2717
     20  NE2      -16.2820  -11.7620   15.1850 N.am   13  GLN13      -0.0878
     21  N        -20.7120   -8.3320   11.0660 N.am   14  HIS14      -0.1976
     22  CA       -20.6580   -7.2370   10.0750 C.3    14  HIS14       0.1656
     23  C        -21.9230   -6.7670    9.3510 C.2    14  HIS14       0.2291
     24  O        -21.8270   -5.7870    8.6100 O.2    14  HIS14      -0.2864
     25  CB       -19.6370   -7.5730    9.0200 C.3    14  HIS14       0.0771
     26  CG       -18.3010   -7.8700    9.5960 C.ar   14  HIS14       0.0820
     27  ND1      -17.5710   -6.9100   10.2540 N.ar   14  HIS14      -0.2267
     28  CD2      -17.5980   -9.0200    9.6830 C.ar   14  HIS14       0.1154
     29  CE1      -16.4690   -7.4530   10.7180 C.ar   14  HIS14       0.1986
     30  NE2      -16.4600   -8.7300   10.3780 N.ar   14  HIS14      -0.2212
     31  N        -13.3810   -5.7690   21.4210 N.3    42  LYS42      -0.1245
     32  CA       -12.8180   -5.7880   20.0830 C.3    42  LYS42       0.1561
     33  C        -12.5030   -4.3240   19.7690 C.2    42  LYS42       0.2260
     34  O        -13.3030   -3.4510   20.0200 O.2    42  LYS42      -0.2867
     35  CB       -13.7810   -6.3860   19.0660 C.3    42  LYS42       0.0271
     36  CG       -13.2070   -6.4870   17.6630 C.3    42  LYS42       0.0035
     37  CD       -14.0730   -7.3710   16.7710 C.3    42  LYS42       0.0206
     38  CE       -13.6920   -7.2670   15.2960 C.3    42  LYS42       0.1093
     39  NZ       -14.3450   -8.3070   14.4290 N.3    42  LYS42      -0.1314
     40  N        -11.6630   -2.6860   16.8280 N.3    44  PHE44      -0.1227
     41  CA       -12.2020   -2.0640   15.6350 C.3    44  PHE44       0.1736
     42  C        -13.1020   -3.0520   14.8930 C.2    44  PHE44       0.2595
     43  O        -12.7460   -4.2300   14.7290 O.2    44  PHE44      -0.2718
     44  CB       -11.0680   -1.6270   14.7220 C.3    44  PHE44       0.0547
     45  CG       -11.5340   -0.9920   13.4460 C.ar   44  PHE44      -0.0202
     46  CD1      -11.8900    0.3540   13.4220 C.ar   44  PHE44      -0.0042
     47  CD2      -11.6270   -1.7390   12.2690 C.ar   44  PHE44      -0.0042
     48  CE1      -12.3160    0.9480   12.2580 C.ar   44  PHE44      -0.0003
     49  CE2      -12.0630   -1.1480   11.1020 C.ar   44  PHE44      -0.0003
     50  CZ       -12.4170    0.1920   11.0990 C.ar   44  PHE44      -0.0000
     51  N        -14.2590   -2.5800   14.4250 N.am   45  ASN45      -0.1960
     52  CA       -15.1930   -3.4510   13.7120 C.3    45  ASN45       0.1819
     53  C        -16.0760   -2.6570   12.7550 C.2    45  ASN45       0.2621
     54  O        -16.4070   -1.4940   13.0370 O.2    45  ASN45      -0.2715
     55  CB       -16.0530   -4.1820   14.7140 C.3    45  ASN45       0.1195
     56  CG       -16.9180   -5.2340   14.0710 C.2    45  ASN45       0.2630
     57  OD1      -16.4230   -6.2530   13.6050 O.2    45  ASN45      -0.2716
     58  ND2      -18.2380   -4.9980   14.0480 N.am   45  ASN45      -0.0877
     59  N        -16.4290   -3.2590   11.6180 N.am   46  THR46      -0.1951
     60  CA       -17.2080   -2.5570   10.6040 C.3    46  THR46       0.1897
     61  C        -18.5430   -3.2260   10.4370 C.2    46  THR46       0.2313
     62  O        -18.6140   -4.4460   10.2120 O.2    46  THR46      -0.2863
     63  CB       -16.4920   -2.5130    9.2290 C.3    46  THR46       0.1794
     64  OG1      -15.2750   -1.7590    9.3440 O.3    46  THR46      -0.2208
     65  CG2      -17.3510   -1.8430    8.2000 C.3    46  THR46       0.0378
     66  N        -17.6450  -14.7360    3.6010 N.3   117  VAL117     -0.1231
     67  CA       -17.2030  -15.4470    4.8010 C.3   117  VAL117      0.1692
     68  C        -16.2270  -14.6640    5.6740 C.2   117  VAL117      0.2592
     69  O        -15.9380  -15.0720    6.7890 O.2   117  VAL117     -0.2718
     70  CB       -16.5760  -16.7830    4.4540 C.3   117  VAL117      0.0266
     71  CG1      -17.6270  -17.7030    3.9190 C.3   117  VAL117      0.0020
     72  CG2      -15.4390  -16.6070    3.4570 C.3   117  VAL117      0.0020
     73  N        -15.7870  -13.5050    5.2150 N.am  118  HIS118     -0.1962
     74  CA       -14.6260  -12.9020    5.7860 C.3   118  HIS118      0.1787
     75  C        -14.4850  -11.5320    5.1440 C.2   118  HIS118      0.2620
     76  O        -14.5380  -11.3960    3.9270 O.2   118  HIS118     -0.2715
     77  CB       -13.4560  -13.8680    5.4910 C.3   118  HIS118      0.0785
     78  CG       -12.0940  -13.2700    5.5380 C.ar  118  HIS118      0.0821
     79  ND1      -11.7330  -12.2050    6.3420 N.ar  118  HIS118     -0.2267
     80  CD2      -10.9870  -13.6120    4.8400 C.ar  118  HIS118      0.1154
     81  CE1      -10.4590  -11.9150    6.1270 C.ar  118  HIS118      0.1986
     82  NE2       -9.9850  -12.7540    5.2210 N.ar  118  HIS118     -0.2212
     83  N        -14.3300  -10.5300    5.9990 N.am  119  PHE119     -0.1960
     84  CA       -14.0460   -9.1540    5.6270 C.3   119  PHE119      0.1771
     85  C        -12.5510   -9.0770    5.4110 C.2   119  PHE119      0.2620
     86  O        -11.8150   -9.2780    6.3540 O.2   119  PHE119     -0.2715
     87  CB       -14.4570   -8.2700    6.8300 C.3   119  PHE119      0.0574
     88  CG       -14.7850   -6.8470    6.4930 C.ar  119  PHE119     -0.0200
     89  CD1      -13.8180   -6.0280    5.9630 C.ar  119  PHE119     -0.0042
     90  CD2      -16.0520   -6.3140    6.7490 C.ar  119  PHE119     -0.0042
     91  CE1      -14.0980   -4.7120    5.6720 C.ar  119  PHE119     -0.0003
     92  CE2      -16.3470   -4.9950    6.4490 C.ar  119  PHE119     -0.0003
     93  CZ       -15.3580   -4.1870    5.9150 C.ar  119  PHE119     -0.0000
     94  N        -12.0860   -8.7840    4.1950 N.am  120  ASP120     -0.1957
     95  CA       -10.6380   -8.7150    3.8960 C.3   120  ASP120      0.1840
     96  C        -10.1170   -7.3110    4.2720 C.2   120  ASP120      0.2621
     97  O         -9.1560   -7.1980    5.0400 O.2   120  ASP120     -0.2715
     98  CB       -10.3700   -8.9540    2.4260 C.3   120  ASP120      0.1450
     99  CG        -8.9140   -9.1960    2.1210 C.2   120  ASP120      0.3671
    100  OD1       -8.3450  -10.1090    2.7300 O.co2 120  ASP120     -0.2456
    101  OD2       -8.3300   -8.4920    1.2600 O.co2 120  ASP120     -0.2456
    102  N        -10.7360   -6.2670    3.6960 N.am  121  LYS121     -0.1977
    103  CA       -10.4120   -4.8430    3.9830 C.3   121  LYS121      0.1596
    104  C        -11.3660   -3.8160    3.3500 C.2   121  LYS121      0.2287
    105  O        -12.4260   -3.5230    3.8970 O.2   121  LYS121     -0.2864
    106  CB        -8.9670   -4.4930    3.5880 C.3   121  LYS121      0.0298
    107  CG        -8.5960   -4.6270    2.1190 C.3   121  LYS121      0.0038
    108  CD        -7.2560   -3.9260    1.9000 C.3   121  LYS121      0.0206
    109  CE        -6.6930   -4.1260    0.5030 C.3   121  LYS121      0.1093
    110  NZ        -7.4810   -3.3620   -0.4990 N.3   121  LYS121     -0.1314
@<TRIPOS>BOND
     1   110   109    1
     2   109   108    1
     3   101    99   ar
     4   108   107    1
     5   107   106    1
     6    99    98    1
     7    99   100   ar
     8    98    95    1
     9   104   105    2
    10   104   103    1
    11    72    70    1
    12   106   103    1
    13    66    67    1
    14   102   103    1
    15   102    96   am
    16    95    94    1
    17    95    96    1
    18    71    70    1
    19    76    75    2
    20    94    85   am
    21    96    97    2
    22    70    67    1
    23    67    68    1
    24    80    82   ar
    25    80    78   ar
    26    75    74    1
    27    75    83   am
    28    73    68   am
    29    73    74    1
    30    82    81   ar
    31    85    84    1
    32    85    86    2
    33    77    78    1
    34    77    74    1
    35    78    79   ar
    36    84    83    1
    37    84    87    1
    38    91    93   ar
    39    91    89   ar
    40    68    69    2
    41    93    92   ar
    42    89    88   ar
    43    81    79   ar
    44    92    90   ar
    45    88    90   ar
    46    88    87    1
    47    65    63    1
    48    24    23    2
    49    25    26    1
    50    25    22    1
    51    63    64    1
    52    63    60    1
    53    23    22    1
    54    26    28   ar
    55    26    27   ar
    56    28    30   ar
    57    22    21    1
    58    62    61    2
    59    27    29   ar
    60    30    29   ar
    61    61    60    1
    62    60    59    1
    63    21    14   am
    64    50    49   ar
    65    50    48   ar
    66    49    47   ar
    67     1     2    1
    68     3     4    2
    69     3     2    1
    70    59    53   am
    71     2     5    1
    72     5     6    1
    73    48    46   ar
    74    47    45   ar
    75    14    15    2
    76    14    13    1
    77    53    54    2
    78    53    52    1
    79    12    13    1
    80    19    18    2
    81     6     7    1
    82    16    13    1
    83    16    17    1
    84    46    45   ar
    85    45    44    1
    86     7     8    1
    87    57    56    2
    88    52    51    1
    89    52    55    1
    90    10     9    1
    91    58    56   am
    92    56    55    1
    93    18    17    1
    94    18    20   am
    95    51    42   am
    96    39    38    1
    97    44    41    1
    98    43    42    2
    99     8     9    2
   100    42    41    1
   101     9    11    1
   102    38    37    1
   103    41    40    1
   104    37    36    1
   105    36    35    1
   106    35    32    1
   107    33    34    2
   108    33    32    1
   109    32    31    1
