@<TRIPOS>MOLECULE
tmp/5aurD01.pdb
 186 182 0 0 0
SMALL
GASTEIGER

@<TRIPOS>ATOM
      1  N          3.6780   -8.8660   -7.3670 N.3    24  VAL24      -0.1231
      2  CA         3.8490   -9.6750   -6.1710 C.3    24  VAL24       0.1692
      3  C          2.8660   -9.3170   -5.0540 C.2    24  VAL24       0.2593
      4  O          2.5060  -10.1870   -4.2490 O.2    24  VAL24      -0.2718
      5  CB         5.3180   -9.6450   -5.6730 C.3    24  VAL24       0.0266
      6  CG1        5.6800   -8.2870   -5.1050 C.3    24  VAL24       0.0020
      7  CG2        5.5730  -10.7440   -4.6580 C.3    24  VAL24       0.0020
      8  N          2.4320   -8.0540   -5.0180 N.am   25  GLY25      -0.1943
      9  CA         1.5960   -7.5300   -3.9430 C.3    25  GLY25       0.1998
     10  C          0.1440   -7.3740   -4.3730 C.2    25  GLY25       0.2480
     11  O         -0.1720   -7.4690   -5.5640 O.2    25  GLY25      -0.2729
     12  N         -0.7600   -7.1190   -3.4110 N.am   26  PRO26      -0.2726
     13  CA        -2.2020   -7.0280   -3.7340 C.3    26  PRO26       0.1402
     14  C         -2.5720   -5.7750   -4.5050 C.2    26  PRO26       0.2269
     15  O         -1.8650   -4.7460   -4.4180 O.2    26  PRO26      -0.2865
     16  CB        -2.8670   -6.9940   -2.3390 C.3    26  PRO26       0.0296
     17  CG        -1.7810   -6.4370   -1.4520 C.3    26  PRO26       0.0237
     18  CD        -0.5470   -7.1170   -1.9600 C.3    26  PRO26       0.0939
     19  N         -4.4410   -2.4010   -5.1110 N.3    28  TYR28      -0.1241
     20  CA        -4.8720   -1.4340   -4.1330 C.3    28  TYR28       0.1605
     21  C         -6.4070   -1.3760   -3.9860 C.2    28  TYR28       0.2264
     22  O         -6.8870   -1.1220   -2.8990 O.2    28  TYR28      -0.2867
     23  CB        -4.2840   -0.0630   -4.4570 C.3    28  TYR28       0.0534
     24  CG        -2.7740    0.0660   -4.2410 C.ar   28  TYR28      -0.0201
     25  CD1       -2.0220    0.9680   -4.9610 C.ar   28  TYR28      -0.0009
     26  CD2       -2.1190   -0.6740   -3.2690 C.ar   28  TYR28      -0.0009
     27  CE1       -0.6610    1.1050   -4.7440 C.ar   28  TYR28       0.0417
     28  CE2       -0.7640   -0.5600   -3.0380 C.ar   28  TYR28       0.0417
     29  CZ        -0.0390    0.3460   -3.7650 C.ar   28  TYR28       0.1957
     30  OH         1.3130    0.5580   -3.5960 O.3    28  TYR28      -0.2866
     31  N         -7.1870   -3.8260   -1.3860 N.3    31  VAL31      -0.1245
     32  CA        -6.8360   -3.3300   -0.0590 C.3    31  VAL31       0.1561
     33  C         -7.9260   -2.3760    0.4390 C.2    31  VAL31       0.2260
     34  O         -8.3680   -2.4650    1.5840 O.2    31  VAL31      -0.2867
     35  CB        -5.4440   -2.6260   -0.1160 C.3    31  VAL31       0.0252
     36  CG1       -5.0760   -1.9780    1.2250 C.3    31  VAL31       0.0019
     37  CG2       -4.3910   -3.6440   -0.4800 C.3    31  VAL31       0.0019
     38  N        -10.2750   -2.9650    3.9750 N.3    35  TYR35      -0.1241
     39  CA       -10.1190   -2.0670    5.1340 C.3    35  TYR35       0.1605
     40  C        -11.2040   -0.9720    5.2440 C.2    35  TYR35       0.2264
     41  O        -11.1900   -0.1810    6.1740 O.2    35  TYR35      -0.2867
     42  CB        -8.6950   -1.4710    5.1580 C.3    35  TYR35       0.0534
     43  CG        -7.6510   -2.5340    5.4000 C.ar   35  TYR35      -0.0201
     44  CD1       -6.9260   -3.0790    4.3590 C.ar   35  TYR35      -0.0009
     45  CD2       -7.4280   -3.0380    6.6810 C.ar   35  TYR35      -0.0009
     46  CE1       -5.9990   -4.0780    4.5640 C.ar   35  TYR35       0.0417
     47  CE2       -6.4960   -4.0420    6.9070 C.ar   35  TYR35       0.0417
     48  CZ        -5.7780   -4.5620    5.8470 C.ar   35  TYR35       0.1957
     49  OH        -4.8610   -5.5670    6.0390 O.3    35  TYR35      -0.2866
     50  N         -3.0740    1.6710   10.6350 N.3    44  TYR44      -0.1227
     51  CA        -2.6180    0.3040   10.4090 C.3    44  TYR44       0.1736
     52  C         -1.8630    0.2210    9.0760 C.2    44  TYR44       0.2595
     53  O         -0.7320   -0.2980    9.0040 O.2    44  TYR44      -0.2718
     54  CB        -3.7980   -0.6990   10.4320 C.3    44  TYR44       0.0548
     55  CG        -3.4100   -2.0500    9.8680 C.ar   44  TYR44      -0.0200
     56  CD1       -2.8160   -3.0260   10.6550 C.ar   44  TYR44      -0.0009
     57  CD2       -3.5900   -2.3200    8.5080 C.ar   44  TYR44      -0.0009
     58  CE1       -2.4470   -4.2480   10.1190 C.ar   44  TYR44       0.0417
     59  CE2       -3.2160   -3.5280    7.9600 C.ar   44  TYR44       0.0417
     60  CZ        -2.6280   -4.4810    8.7520 C.ar   44  TYR44       0.1957
     61  OH        -2.2650   -5.6720    8.1780 O.3    44  TYR44      -0.2866
     62  N         -2.4860    0.7280    8.0130 N.am   45  LEU45      -0.1980
     63  CA        -1.8720    0.6350    6.6910 C.3    45  LEU45       0.1596
     64  C         -0.6020    1.4560    6.5960 C.2    45  LEU45       0.2287
     65  O          0.3560    1.0130    5.9760 O.2    45  LEU45      -0.2864
     66  CB        -2.8450    1.0210    5.5770 C.3    45  LEU45       0.0297
     67  CG        -3.9860    0.0330    5.3250 C.3    45  LEU45       0.0022
     68  CD1       -4.8830    0.6000    4.2380 C.3    45  LEU45       0.0001
     69  CD2       -3.4230   -1.3250    4.9280 C.3    45  LEU45       0.0001
     70  N          2.2030   -0.5950    7.9930 N.3    48  LYS48      -0.1231
     71  CA         2.6430   -1.6290    7.0740 C.3    48  LYS48       0.1693
     72  C          3.4240   -1.0630    5.8850 C.2    48  LYS48       0.2591
     73  O          4.4130   -1.6580    5.4680 O.2    48  LYS48      -0.2718
     74  CB         1.4530   -2.4570    6.5700 C.3    48  LYS48       0.0285
     75  CG         0.7850   -3.2830    7.6610 C.3    48  LYS48       0.0035
     76  CD         1.6620   -4.4290    8.1560 C.3    48  LYS48       0.0206
     77  CE         1.0830   -5.0930    9.3940 C.3    48  LYS48       0.1093
     78  NZ         2.0900   -5.9800   10.0360 N.3    48  LYS48      -0.1314
     79  N          2.9660    0.0680    5.3480 N.am   49  ILE49      -0.1980
     80  CA         3.6730    0.7310    4.2360 C.3    49  ILE49       0.1595
     81  C          5.1080    1.0790    4.6180 C.2    49  ILE49       0.2287
     82  O          6.0220    0.8010    3.8570 O.2    49  ILE49      -0.2864
     83  CB         2.8960    1.9570    3.7290 C.3    49  ILE49       0.0276
     84  CG1        1.5600    1.5140    3.0830 C.3    49  ILE49       0.0022
     85  CG2        3.7290    2.7460    2.7210 C.3    49  ILE49       0.0022
     86  CD1        0.5910    2.6510    2.8660 C.3    49  ILE49       0.0001
     87  N          5.7480   -6.0890    5.9210 N.3    53  GLY53      -0.1210
     88  CA         4.9590   -7.1290    6.5920 C.3    53  GLY53       0.1956
     89  C          4.7550   -8.3120    5.6820 C.2    53  GLY53       0.2613
     90  O          5.0810   -8.2570    4.5040 O.2    53  GLY53      -0.2717
     91  N          4.1710   -9.3730    6.2330 N.am   54  SER54      -0.1938
     92  CA         3.8670  -10.5990    5.5020 C.3    54  SER54       0.2055
     93  C          2.6420  -11.2780    6.0860 C.2    54  SER54       0.2644
     94  O          2.2320  -10.9810    7.2080 O.2    54  SER54      -0.2714
     95  CB         5.0300  -11.5660    5.6050 C.3    54  SER54       0.2130
     96  OG         5.0080  -12.5000    4.5560 O.3    54  SER54      -0.2179
     97  N          2.0660  -12.1890    5.3090 N.am   55  GLY55      -0.1939
     98  CA         1.0020  -13.0980    5.7820 C.3    55  GLY55       0.2014
     99  C         -0.4130  -12.6360    5.5800 C.2    55  GLY55       0.2639
    100  O         -1.3330  -13.4340    5.7280 O.2    55  GLY55      -0.2714
    101  N         -0.6210  -11.3800    5.2380 N.am   56  VAL56      -0.1963
    102  CA        -1.9620  -10.8210    5.1380 C.3    56  VAL56       0.1727
    103  C         -2.5500  -11.1440    3.7780 C.2    56  VAL56       0.2616
    104  O         -3.7400  -11.3590    3.6700 O.2    56  VAL56      -0.2715
    105  CB        -1.9710   -9.3030    5.4390 C.3    56  VAL56       0.0290
    106  CG1       -3.3780   -8.7570    5.3110 C.3    56  VAL56       0.0023
    107  CG2       -1.5020   -9.0750    6.8800 C.3    56  VAL56       0.0023
    108  N         -1.7070  -11.2110    2.7600 N.am   57  TRP57      -0.1960
    109  CA        -2.1030  -11.4280    1.3640 C.3    57  TRP57       0.1771
    110  C         -1.3900  -12.6030    0.7010 C.2    57  TRP57       0.2620
    111  O         -1.7650  -13.0230   -0.4220 O.2    57  TRP57      -0.2715
    112  CB        -1.8730  -10.1530    0.5480 C.3    57  TRP57       0.0590
    113  CG        -2.6490   -8.9900    1.0200 C.ar   57  TRP57       0.0006
    114  CD1       -2.2280   -8.0310    1.9060 C.ar   57  TRP57       0.0946
    115  CD2       -3.9970   -8.6450    0.6660 C.ar   57  TRP57       0.0152
    116  NE1       -3.2200   -7.1150    2.1160 N.ar   57  TRP57      -0.2442
    117  CE2       -4.3190   -7.4660    1.3640 C.ar   57  TRP57       0.0810
    118  CE3       -4.9750   -9.2210   -0.1650 C.ar   57  TRP57       0.0012
    119  CZ2       -5.5540   -6.8450    1.2490 C.ar   57  TRP57       0.0191
    120  CZ3       -6.1950   -8.5870   -0.2740 C.ar   57  TRP57       0.0001
    121  CH2       -6.4880   -7.4310    0.4260 C.ar   57  TRP57       0.0015
    122  N         -0.3980  -13.1670    1.3870 N.am   58  GLY58      -0.1954
    123  CA         0.4640  -14.1890    0.8260 C.3    58  GLY58       0.1869
    124  C          1.6840  -14.4070    1.6990 C.2    58  GLY58       0.2309
    125  O          1.8030  -13.8200    2.7670 O.2    58  GLY58      -0.2863
    126  N          4.9720  -13.9880    0.5430 N.3    60  VAL60      -0.1231
    127  CA         6.0820  -13.0860    0.2010 C.3    60  VAL60       0.1678
    128  C          5.9310  -11.7890    0.9710 C.2    60  VAL60       0.2434
    129  O          4.8990  -11.1420    0.9110 O.2    60  VAL60      -0.2733
    130  CB         6.1600  -12.8070   -1.3050 C.3    60  VAL60       0.0265
    131  CG1        7.3750  -11.9300   -1.5930 C.3    60  VAL60       0.0020
    132  CG2        6.2650  -14.1050   -2.1020 C.3    60  VAL60       0.0020
    133  N          6.9820  -11.4100    1.7220 N.am   61  PRO61      -0.2718
    134  CA         6.8540  -10.1860    2.4970 C.3    61  PRO61       0.1535
    135  C          7.0200   -8.9130    1.6920 C.2    61  PRO61       0.2598
    136  O          7.7520   -8.8970    0.6960 O.2    61  PRO61      -0.2715
    137  CB         8.0210  -10.2690    3.4790 C.3    61  PRO61       0.0310
    138  CG         9.0470  -11.0670    2.7700 C.3    61  PRO61       0.0237
    139  CD         8.2740  -12.0720    1.9450 C.3    61  PRO61       0.0939
    140  N          6.3440   -7.8500    2.1190 N.am   62  MET62      -0.1964
    141  CA         6.7030   -6.4980    1.6790 C.3    62  MET62       0.1721
    142  C          7.8560   -5.9940    2.5400 C.2    62  MET62       0.2458
    143  O          7.7220   -5.9660    3.7520 O.2    62  MET62      -0.2730
    144  CB         5.5330   -5.5320    1.8160 C.3    62  MET62       0.0427
    145  CG         5.9070   -4.1130    1.3720 C.3    62  MET62       0.0599
    146  SD         4.5730   -2.9090    1.1810 S.3    62  MET62      -0.1393
    147  CE         3.7310   -3.0310    2.7330 C.3    62  MET62       0.0692
    148  N          8.9940   -5.6000    1.9290 N.am   63  PRO63      -0.2727
    149  CA        10.0830   -5.0280    2.7310 C.3    63  PRO63       0.1402
    150  C          9.7100   -3.6580    3.2670 C.2    63  PRO63       0.2269
    151  O          8.8380   -2.9760    2.7270 O.2    63  PRO63      -0.2865
    152  CB        11.2480   -4.9170    1.7490 C.3    63  PRO63       0.0296
    153  CG        10.8570   -5.6560    0.5340 C.3    63  PRO63       0.0237
    154  CD         9.3520   -5.7170    0.5080 C.3    63  PRO63       0.0939
    155  N          9.8140    0.2660    3.5930 N.3    65  GLN65      -0.1245
    156  CA         9.9020    1.2170    2.5100 C.3    65  GLN65       0.1566
    157  C         10.4630    2.5600    2.9640 C.2    65  GLN65       0.2260
    158  O         10.3210    2.9690    4.1370 O.2    65  GLN65      -0.2867
    159  CB         8.5300    1.4460    1.9040 C.3    65  GLN65       0.0367
    160  CG         7.8890    0.2040    1.3080 C.3    65  GLN65       0.0905
    161  CD         8.6700   -0.3010    0.1170 C.2    65  GLN65       0.2608
    162  OE1        8.9180    0.4520   -0.8180 O.2    65  GLN65      -0.2717
    163  NE2        9.0510   -1.5660    0.1320 N.am   65  GLN65      -0.0878
    164  N          9.9140    5.7330    3.1360 N.3    67  VAL67      -0.1245
    165  CA         8.8910    6.7500    3.2350 C.3    67  VAL67       0.1561
    166  C          8.8970    7.2900    4.6460 C.2    67  VAL67       0.2260
    167  O          9.2540    6.5690    5.5780 O.2    67  VAL67      -0.2867
    168  CB         7.4840    6.1740    2.9280 C.3    67  VAL67       0.0252
    169  CG1        7.4270    5.6670    1.4960 C.3    67  VAL67       0.0019
    170  CG2        7.0660    5.0600    3.9060 C.3    67  VAL67       0.0019
    171  N         -0.1960    7.9160    1.5830 N.3    75  LEU75      -0.1245
    172  CA        -0.3580    6.7710    0.7140 C.3    75  LEU75       0.1561
    173  C         -1.5110    5.8780    1.1690 C.2    75  LEU75       0.2260
    174  O         -2.3150    5.4330    0.3380 O.2    75  LEU75      -0.2867
    175  CB         0.9390    5.9790    0.6210 C.3    75  LEU75       0.0270
    176  CG         2.0440    6.6850   -0.1830 C.3    75  LEU75       0.0019
    177  CD1        3.3950    6.0890    0.1500 C.3    75  LEU75       0.0001
    178  CD2        1.7870    6.5990   -1.6920 C.3    75  LEU75       0.0001
    179  N         -4.8080    5.0710   -1.0690 N.3    79  ILE79      -0.1245
    180  CA        -5.2360    3.6990   -1.3370 C.3    79  ILE79       0.1561
    181  C         -6.6690    3.4310   -0.8500 C.2    79  ILE79       0.2260
    182  O         -7.4750    2.8290   -1.5570 O.2    79  ILE79      -0.2867
    183  CB        -4.2320    2.7150   -0.7130 C.3    79  ILE79       0.0252
    184  CG1       -2.9460    2.7460   -1.5380 C.3    79  ILE79       0.0019
    185  CG2       -4.7740    1.3000   -0.6460 C.3    79  ILE79       0.0019
    186  CD1       -1.7630    2.1330   -0.8430 C.3    79  ILE79       0.0001
@<TRIPOS>BOND
     1     1     2    1
     2     2     5    1
     3     2     3    1
     4     5     6    1
     5     5     7    1
     6    11    10    2
     7    19    20    1
     8     3     8   am
     9     3     4    2
    10     8     9    1
    11    25    27   ar
    12    25    24   ar
    13    27    29   ar
    14    14    15    2
    15    14    13    1
    16    23    24    1
    17    23    20    1
    18    10     9    1
    19    10    12   am
    20    24    26   ar
    21    20    21    1
    22    21    22    2
    23    29    30    1
    24    29    28   ar
    25    13    12    1
    26    13    16    1
    27    12    18    1
    28    26    28   ar
    29    16    17    1
    30   132   130    1
    31    18    17    1
    32   178   176    1
    33   131   130    1
    34   182   181    2
    35   184   186    1
    36   184   183    1
    37    31    32    1
    38   180   179    1
    39   180   181    1
    40   180   183    1
    41   130   127    1
    42   162   161    2
    43   183   185    1
    44    37    35    1
    45   111   110    2
    46   120   118   ar
    47   120   121   ar
    48   176   177    1
    49   176   175    1
    50   118   115   ar
    51    35    32    1
    52    35    36    1
    53    32    33    1
    54   161   163   am
    55   161   160    1
    56   127   126    1
    57   127   128    1
    58   174   173    2
    59   121   119   ar
    60    33    34    2
    61   154   153    1
    62   154   148    1
    63   153   152    1
    64   112   113    1
    65   112   109    1
    66   175   172    1
    67   115   113   ar
    68   115   117   ar
    69   136   135    2
    70   110   109    1
    71   110   122   am
    72   172   173    1
    73   172   171    1
    74   123   122    1
    75   123   124    1
    76   129   128    2
    77   128   133   am
    78   113   114   ar
    79   146   145    1
    80   146   147    1
    81   119   117   ar
    82   160   159    1
    83   109   108    1
    84   117   116   ar
    85   145   144    1
    86   169   168    1
    87   141   144    1
    88   141   140    1
    89   141   142    1
    90   135   140   am
    91   135   134    1
    92   124   125    2
    93   133   139    1
    94   133   134    1
    95   152   149    1
    96   159   156    1
    97   114   116   ar
    98   148   142   am
    99   148   149    1
   100   139   138    1
   101   134   137    1
   102   156   157    1
   103   156   155    1
   104   142   143    2
   105    85    83    1
   106   151   150    2
   107   149   150    1
   108   108   103   am
   109   138   137    1
   110    86    84    1
   111   168   165    1
   112   168   170    1
   113   157   158    2
   114    84    83    1
   115   164   165    1
   116   165   166    1
   117   104   103    2
   118    83    80    1
   119   103   102    1
   120    82    81    2
   121    38    39    1
   122    80    81    1
   123    80    79    1
   124    68    67    1
   125    44    46   ar
   126    44    43   ar
   127    90    89    2
   128    96    95    1
   129    46    48   ar
   130   166   167    2
   131    69    67    1
   132    39    42    1
   133    39    40    1
   134   102   101    1
   135   102   105    1
   136    42    43    1
   137   101    99   am
   138    40    41    2
   139    97    98    1
   140    97    93   am
   141   106   105    1
   142    67    66    1
   143    79    72   am
   144    43    45   ar
   145   105   107    1
   146    73    72    2
   147    92    95    1
   148    92    93    1
   149    92    91    1
   150    66    63    1
   151    99   100    2
   152    99    98    1
   153    89    91   am
   154    89    88    1
   155    48    49    1
   156    48    47   ar
   157    72    71    1
   158    87    88    1
   159    65    64    2
   160    93    94    2
   161    74    71    1
   162    74    75    1
   163    64    63    1
   164    45    47   ar
   165    63    62    1
   166    71    70    1
   167    75    76    1
   168    59    57   ar
   169    59    60   ar
   170    62    52   am
   171    76    77    1
   172    61    60    1
   173    57    55   ar
   174    60    58   ar
   175    53    52    2
   176    52    51    1
   177    77    78    1
   178    55    54    1
   179    55    56   ar
   180    58    56   ar
   181    51    54    1
   182    51    50    1
