@<TRIPOS>MOLECULE
tmp/5ausB00.pdb
 103 101 0 0 0
SMALL
GASTEIGER

@<TRIPOS>ATOM
      1  N         -9.1350  -35.0010    2.0440 N.3    20  GLY20      -0.1210
      2  CA        -9.2420  -33.7480    1.3060 C.3    20  GLY20       0.1956
      3  C         -8.1230  -32.7690    1.6150 C.2    20  GLY20       0.2612
      4  O         -7.5170  -32.2060    0.6980 O.2    20  GLY20      -0.2717
      5  N         -7.8610  -32.5640    2.9060 N.am   21  GLY21      -0.1942
      6  CA        -6.8110  -31.6470    3.3800 C.3    21  GLY21       0.2014
      7  C         -7.2000  -30.1690    3.3640 C.2    21  GLY21       0.2638
      8  O         -6.5120  -29.3160    3.9270 O.2    21  GLY21      -0.2714
      9  N         -8.3260  -29.8660    2.7390 N.am   22  LYS22      -0.1977
     10  CA        -8.6810  -28.4980    2.4250 C.3    22  LYS22       0.1596
     11  C         -9.6810  -27.9060    3.4030 C.2    22  LYS22       0.2287
     12  O         -9.9420  -26.7110    3.3560 O.2    22  LYS22      -0.2864
     13  CB        -9.2350  -28.4400    1.0000 C.3    22  LYS22       0.0298
     14  CG        -8.2450  -28.9150   -0.0540 C.3    22  LYS22       0.0038
     15  CD        -8.9210  -29.0710   -1.4040 C.3    22  LYS22       0.0206
     16  CE        -7.9150  -29.4810   -2.4630 C.3    22  LYS22       0.1093
     17  NZ        -8.5790  -29.7200   -3.7700 N.3    22  LYS22      -0.1314
     18  N         -3.2200  -28.7910   14.5510 N.3    59  SER59      -0.1202
     19  CA        -2.9700  -28.1770   13.2590 C.3    59  SER59       0.2020
     20  C         -3.4370  -29.0350   12.1020 C.2    59  SER59       0.2619
     21  O         -3.4270  -30.2630   12.1800 O.2    59  SER59      -0.2717
     22  CB        -1.4750  -27.9590   13.0560 C.3    59  SER59       0.2103
     23  OG        -0.8400  -27.4710   14.2110 O.3    59  SER59      -0.2182
     24  N         -3.8360  -28.3730   11.0210 N.am   60  VAL60      -0.1966
     25  CA        -4.0110  -29.0390    9.7430 C.3    60  VAL60       0.1712
     26  C         -2.7070  -28.8800    8.9670 C.2    60  VAL60       0.2458
     27  O         -2.2600  -27.7620    8.7750 O.2    60  VAL60      -0.2730
     28  CB        -5.1740  -28.4330    8.9450 C.3    60  VAL60       0.0289
     29  CG1       -5.3360  -29.1700    7.6220 C.3    60  VAL60       0.0023
     30  CG2       -6.4650  -28.4930    9.7540 C.3    60  VAL60       0.0023
     31  N         -2.0730  -29.9970    8.5600 N.am   61  PRO61      -0.2716
     32  CA        -0.7980  -29.8770    7.8470 C.3    61  PRO61       0.1536
     33  C         -0.9380  -29.3400    6.4310 C.2    61  PRO61       0.2598
     34  O         -1.9570  -29.5510    5.7700 O.2    61  PRO61      -0.2715
     35  CB        -0.2870  -31.3200    7.7990 C.3    61  PRO61       0.0310
     36  CG        -1.5270  -32.1560    7.8460 C.3    61  PRO61       0.0237
     37  CD        -2.4560  -31.4100    8.7640 C.3    61  PRO61       0.0939
     38  N          0.0910  -28.6410    5.9690 N.am   62  MET62      -0.1964
     39  CA         0.2100  -28.3520    4.5510 C.3    62  MET62       0.1721
     40  C          0.9690  -29.5100    3.9200 C.2    62  MET62       0.2458
     41  O          2.0790  -29.8060    4.3400 O.2    62  MET62      -0.2730
     42  CB         1.0010  -27.0690    4.2990 C.3    62  MET62       0.0427
     43  CG         1.2080  -26.8120    2.8140 C.3    62  MET62       0.0599
     44  SD         1.8750  -25.1870    2.4310 S.3    62  MET62      -0.1393
     45  CE         2.6870  -25.5520    0.8830 C.3    62  MET62       0.0692
     46  N          0.4070  -30.1400    2.8810 N.am   63  PRO63      -0.2727
     47  CA         1.1550  -31.2060    2.2060 C.3    63  PRO63       0.1402
     48  C          2.3140  -30.6460    1.3830 C.2    63  PRO63       0.2269
     49  O          2.2860  -29.4810    1.0180 O.2    63  PRO63      -0.2865
     50  CB         0.1020  -31.8340    1.2710 C.3    63  PRO63       0.0296
     51  CG        -1.2150  -31.3360    1.7630 C.3    63  PRO63       0.0237
     52  CD        -0.9420  -29.9800    2.3140 C.3    63  PRO63       0.0939
     53  N          4.3750  -29.8430   -1.9900 N.3    65  GLN65      -0.1245
     54  CA         3.8370  -29.3580   -3.2530 C.3    65  GLN65       0.1566
     55  C          4.8400  -29.6040   -4.3690 C.2    65  GLN65       0.2260
     56  O          6.0420  -29.3770   -4.1880 O.2    65  GLN65      -0.2867
     57  CB         3.5540  -27.8570   -3.1590 C.3    65  GLN65       0.0367
     58  CG         2.6040  -27.4690   -2.0390 C.3    65  GLN65       0.0905
     59  CD         1.2140  -28.0190   -2.2610 C.2    65  GLN65       0.2608
     60  OE1        0.6520  -27.8650   -3.3430 O.2    65  GLN65      -0.2717
     61  NE2        0.6530  -28.6690   -1.2470 N.am   65  GLN65      -0.0878
     62  N          6.3170  -28.2770   -6.9450 N.3    67  VAL67      -0.1245
     63  CA         6.7520  -27.0730   -7.6260 C.3    67  VAL67       0.1561
     64  C          8.2670  -27.1260   -7.6850 C.2    67  VAL67       0.2260
     65  O          8.9110  -27.6940   -6.8000 O.2    67  VAL67      -0.2867
     66  CB         6.2890  -25.7790   -6.9070 C.3    67  VAL67       0.0252
     67  CG1        4.7800  -25.6170   -7.0110 C.3    67  VAL67       0.0019
     68  CG2        6.7360  -25.7480   -5.4520 C.3    67  VAL67       0.0019
     69  N          6.8340  -17.8790   -6.2550 N.3    75  LEU75      -0.1231
     70  CA         5.6620  -17.8000   -5.3960 C.3    75  LEU75       0.1693
     71  C          5.9630  -17.0810   -4.0790 C.2    75  LEU75       0.2591
     72  O          5.1590  -16.2650   -3.6250 O.2    75  LEU75      -0.2718
     73  CB         5.0820  -19.1940   -5.1460 C.3    75  LEU75       0.0284
     74  CG         4.3640  -19.7790   -6.3750 C.3    75  LEU75       0.0019
     75  CD1        4.2180  -21.2890   -6.3020 C.3    75  LEU75       0.0001
     76  CD2        2.9970  -19.1360   -6.5500 C.3    75  LEU75       0.0001
     77  N          7.1040  -17.3890   -3.4600 N.am   76  ALA76      -0.1980
     78  CA         7.4840  -16.7530   -2.2030 C.3    76  ALA76       0.1597
     79  C          7.6330  -15.2530   -2.3800 C.2    76  ALA76       0.2287
     80  O          7.1290  -14.4810   -1.5700 O.2    76  ALA76      -0.2864
     81  CB         8.7730  -17.3410   -1.6610 C.3    76  ALA76       0.0319
     82  N          6.2790  -13.3520   -4.6730 N.3    78  TRP78      -0.1227
     83  CA         4.9510  -12.8040   -4.9260 C.3    78  TRP78       0.1737
     84  C          4.1700  -12.6920   -3.6110 C.2    78  TRP78       0.2595
     85  O          3.6120  -11.6400   -3.2910 O.2    78  TRP78      -0.2718
     86  CB         4.2150  -13.6570   -5.9710 C.3    78  TRP78       0.0564
     87  CG         2.7810  -13.3280   -6.0710 C.ar   78  TRP78       0.0003
     88  CD1        2.2400  -12.1640   -6.5250 C.ar   78  TRP78       0.0946
     89  CD2        1.6900  -14.1480   -5.6470 C.ar   78  TRP78       0.0152
     90  NE1        0.8660  -12.2170   -6.4250 N.ar   78  TRP78      -0.2442
     91  CE2        0.5040  -13.4250   -5.8910 C.ar   78  TRP78       0.0810
     92  CE3        1.6000  -15.4390   -5.1090 C.ar   78  TRP78       0.0012
     93  CZ2       -0.7580  -13.9410   -5.5950 C.ar   78  TRP78       0.0191
     94  CZ3        0.3440  -15.9560   -4.8270 C.ar   78  TRP78       0.0001
     95  CH2       -0.8140  -15.2070   -5.0720 C.ar   78  TRP78       0.0015
     96  N          4.1620  -13.7620   -2.8250 N.am   79  ILE79      -0.1980
     97  CA         3.4290  -13.7590   -1.5510 C.3    79  ILE79       0.1595
     98  C          3.9070  -12.6350   -0.6290 C.2    79  ILE79       0.2287
     99  O          3.0960  -11.9440   -0.0050 O.2    79  ILE79      -0.2864
    100  CB         3.5520  -15.1260   -0.8620 C.3    79  ILE79       0.0276
    101  CG1        2.6620  -16.1410   -1.5780 C.3    79  ILE79       0.0022
    102  CG2        3.1800  -15.0300    0.6120 C.3    79  ILE79       0.0022
    103  CD1        2.9940  -17.5800   -1.2750 C.3    79  ILE79       0.0001
@<TRIPOS>BOND
     1    64    63    1
     2    64    65    2
     3    63    62    1
     4    63    66    1
     5    67    66    1
     6    66    68    1
     7    76    74    1
     8    88    90   ar
     9    88    87   ar
    10    90    91   ar
    11    74    75    1
    12    74    73    1
    13    69    70    1
    14    87    86    1
    15    87    89   ar
    16    86    83    1
    17    91    89   ar
    18    91    93   ar
    19    89    92   ar
    20    93    95   ar
    21    70    73    1
    22    70    71    1
    23    92    94   ar
    24    95    94   ar
    25    83    82    1
    26    83    84    1
    27    55    56    2
    28    55    54    1
    29    71    72    2
    30    71    77   am
    31    17    16    1
    32    84    85    2
    33    84    96   am
    34    77    78    1
    35    60    59    2
    36    54    57    1
    37    54    53    1
    38    57    58    1
    39    96    97    1
    40    16    15    1
    41    79    78    1
    42    79    80    2
    43    59    58    1
    44    59    61   am
    45    78    81    1
    46   101   103    1
    47   101   100    1
    48    97   100    1
    49    97    98    1
    50    15    14    1
    51   100   102    1
    52    98    99    2
    53    14    13    1
    54     4     3    2
    55    45    44    1
    56    13    10    1
    57    49    48    2
    58    50    51    1
    59    50    47    1
    60     2     3    1
    61     2     1    1
    62    48    47    1
    63     3     5   am
    64    51    52    1
    65    47    46    1
    66    52    46    1
    67    10     9    1
    68    10    11    1
    69    44    43    1
    70     9     7   am
    71    43    42    1
    72    46    40   am
    73     5     6    1
    74    12    11    2
    75     7     6    1
    76     7     8    2
    77    40    41    2
    78    40    39    1
    79    42    39    1
    80    39    38    1
    81    34    33    2
    82    38    33   am
    83    33    32    1
    84    29    28    1
    85    35    36    1
    86    35    32    1
    87    36    37    1
    88    32    31    1
    89    31    37    1
    90    31    26   am
    91    27    26    2
    92    28    25    1
    93    28    30    1
    94    26    25    1
    95    25    24    1
    96    24    20   am
    97    20    21    2
    98    20    19    1
    99    22    19    1
   100    22    23    1
   101    19    18    1
