@<TRIPOS>MOLECULE
tmp/5autA00.pdb
 140 128 0 0 0
SMALL
GASTEIGER

@<TRIPOS>ATOM
      1  N        -29.5260   -0.7530  -13.2820 N.3    18  LEU18      -0.1231
      2  CA       -28.8660    0.4210  -13.8450 C.3    18  LEU18       0.1693
      3  C        -27.4800    0.1120  -14.3900 C.2    18  LEU18       0.2593
      4  O        -26.9590    0.8460  -15.2320 O.2    18  LEU18      -0.2718
      5  CB       -28.7790    1.5350  -12.7980 C.3    18  LEU18       0.0284
      6  CG       -30.1090    2.0790  -12.2780 C.3    18  LEU18       0.0019
      7  CD1      -29.9200    3.0140  -11.0780 C.3    18  LEU18       0.0001
      8  CD2      -30.8600    2.7930  -13.3950 C.3    18  LEU18       0.0001
      9  N        -26.8710   -0.9670  -13.9120 N.am   19  GLY19      -0.1942
     10  CA       -25.5290   -1.2890  -14.3510 C.3    19  GLY19       0.2014
     11  C        -25.0700   -2.6260  -13.8310 C.2    19  GLY19       0.2640
     12  O        -25.5880   -3.1260  -12.8360 O.2    19  GLY19      -0.2714
     13  N        -24.0900   -3.2080  -14.5090 N.am   20  SER20      -0.1935
     14  CA       -23.6640   -4.5620  -14.2040 C.3    20  SER20       0.2055
     15  C        -22.1770   -4.6900  -14.4950 C.2    20  SER20       0.2643
     16  O        -21.7090   -4.2730  -15.5590 O.2    20  SER20      -0.2714
     17  CB       -24.4570   -5.5460  -15.0670 C.3    20  SER20       0.2130
     18  OG       -24.1590   -6.8900  -14.7380 O.3    20  SER20      -0.2179
     19  N        -21.4300   -5.2600  -13.5540 N.am   21  GLY21      -0.1954
     20  CA       -19.9960   -5.4120  -13.7270 C.3    21  GLY21       0.1869
     21  C        -19.5410   -6.8130  -13.3740 C.2    21  GLY21       0.2309
     22  O        -20.3620   -7.7080  -13.1640 O.2    21  GLY21      -0.2863
     23  N        -20.2880   -7.0100   -9.3930 N.3    24  ALA24      -0.1245
     24  CA       -21.3160   -6.1570   -8.8120 C.3    24  ALA24       0.1562
     25  C        -22.4300   -5.8560   -9.7940 C.2    24  ALA24       0.2260
     26  O        -22.2420   -5.9470  -11.0100 O.2    24  ALA24      -0.2867
     27  CB       -20.7070   -4.8640   -8.3070 C.3    24  ALA24       0.0290
     28  N        -25.9090   -2.9480  -10.0530 N.3    26  VAL26      -0.1245
     29  CA       -26.5920   -1.8030   -9.4520 C.3    26  VAL26       0.1561
     30  C        -28.0590   -1.8010   -9.8550 C.2    26  VAL26       0.2260
     31  O        -28.3860   -1.8830  -11.0530 O.2    26  VAL26      -0.2867
     32  CB       -25.9400   -0.4680   -9.8480 C.3    26  VAL26       0.0252
     33  CG1      -26.7900    0.7160   -9.3920 C.3    26  VAL26       0.0019
     34  CG2      -24.5660   -0.3700   -9.2410 C.3    26  VAL26       0.0019
     35  N        -29.5180    4.2110   -5.6440 N.3    39  ALA39      -0.1245
     36  CA       -28.9610    3.1550   -6.4750 C.3    39  ALA39       0.1562
     37  C        -28.2880    2.1790   -5.5230 C.2    39  ALA39       0.2260
     38  O        -27.3490    2.5460   -4.8160 O.2    39  ALA39      -0.2867
     39  CB       -27.9470    3.7240   -7.4640 C.3    39  ALA39       0.0290
     40  N        -25.9110   -0.8660   -4.9330 N.3    41  LYS41      -0.1245
     41  CA       -24.8540   -1.6480   -5.5640 C.3    41  LYS41       0.1561
     42  C        -24.5900   -2.9010   -4.7490 C.2    41  LYS41       0.2260
     43  O        -24.1790   -2.8140   -3.5970 O.2    41  LYS41      -0.2867
     44  CB       -23.5830   -0.8080   -5.6340 C.3    41  LYS41       0.0271
     45  CG       -22.3910   -1.5050   -6.2470 C.3    41  LYS41       0.0035
     46  CD       -21.1580   -0.6000   -6.0870 C.3    41  LYS41       0.0206
     47  CE       -20.1190   -0.8810   -7.1370 C.3    41  LYS41       0.1093
     48  NZ       -19.1950    0.2910   -7.2160 N.3    41  LYS41      -0.1314
     49  N        -13.2280    1.3270   -0.9670 N.3    63  GLU63      -0.1245
     50  CA       -14.2510    2.0440   -1.7320 C.3    63  GLU63       0.1567
     51  C        -15.2450    2.7490   -0.8060 C.2    63  GLU63       0.2260
     52  O        -15.5820    3.9250   -1.0200 O.2    63  GLU63      -0.2867
     53  CB       -15.0040    1.0900   -2.6730 C.3    63  GLU63       0.0388
     54  CG       -16.1110    1.7850   -3.4830 C.3    63  GLU63       0.1160
     55  CD       -16.8130    0.8590   -4.4610 C.2    63  GLU63       0.3649
     56  OE1      -16.3770   -0.2970   -4.6150 O.co2  63  GLU63      -0.2457
     57  OE2      -17.8170    1.2820   -5.0820 O.co2  63  GLU63      -0.2457
     58  N        -15.8670    6.7540   -0.3910 N.3    67  LEU67      -0.1245
     59  CA       -17.2020    7.2960   -0.6470 C.3    67  LEU67       0.1561
     60  C        -17.7920    8.0600    0.5370 C.2    67  LEU67       0.2260
     61  O        -18.4910    9.0550    0.3570 O.2    67  LEU67      -0.2867
     62  CB       -18.1620    6.1830   -1.0690 C.3    67  LEU67       0.0270
     63  CG       -17.9480    5.6150   -2.4750 C.3    67  LEU67       0.0019
     64  CD1      -18.7110    4.3120   -2.6340 C.3    67  LEU67       0.0001
     65  CD2      -18.4010    6.6300   -3.5290 C.3    67  LEU67       0.0001
     66  N        -20.5630   11.1740   -7.0830 N.3    76  ILE76      -0.1245
     67  CA       -21.5680   10.3300   -6.4440 C.3    76  ILE76       0.1561
     68  C        -21.3680   10.3000   -4.9240 C.2    76  ILE76       0.2260
     69  O        -20.2370   10.4110   -4.4240 O.2    76  ILE76      -0.2867
     70  CB       -21.5520    8.9000   -7.0490 C.3    76  ILE76       0.0252
     71  CG1      -22.9470    8.2780   -7.0060 C.3    76  ILE76       0.0019
     72  CG2      -20.4970    8.0190   -6.3830 C.3    76  ILE76       0.0019
     73  CD1      -23.9620    9.1030   -7.7690 C.3    76  ILE76       0.0001
     74  N        -26.3560    3.9920   -2.7730 N.3    92  LEU92      -0.1231
     75  CA       -25.7180    5.1660   -3.3670 C.3    92  LEU92       0.1693
     76  C        -26.7210    6.1790   -3.8990 C.2    92  LEU92       0.2591
     77  O        -27.8970    5.8730   -4.1080 O.2    92  LEU92      -0.2718
     78  CB       -24.7970    4.7370   -4.5150 C.3    92  LEU92       0.0284
     79  CG       -23.6870    3.7850   -4.0850 C.3    92  LEU92       0.0019
     80  CD1      -23.2820    2.8740   -5.2260 C.3    92  LEU92       0.0001
     81  CD2      -22.4960    4.6350   -3.6470 C.3    92  LEU92       0.0001
     82  N        -26.2450    7.3970   -4.1200 N.am   93  GLU93      -0.1979
     83  CA       -27.0580    8.4370   -4.7320 C.3    93  GLU93       0.1602
     84  C        -27.5330    7.9510   -6.1010 C.2    93  GLU93       0.2287
     85  O        -26.7680    7.3360   -6.8480 O.2    93  GLU93      -0.2864
     86  CB       -26.2130    9.7010   -4.8860 C.3    93  GLU93       0.0415
     87  CG       -26.9340   10.8610   -5.5360 C.3    93  GLU93       0.1163
     88  CD       -26.0650   12.0950   -5.6120 C.2    93  GLU93       0.3649
     89  OE1      -24.8490   11.9980   -5.3290 O.co2  93  GLU93      -0.2457
     90  OE2      -26.6020   13.1680   -5.9550 O.co2  93  GLU93      -0.2457
     91  N        -28.2840    8.1390   -9.8520 N.3    95  VAL95      -0.1245
     92  CA       -28.0840    8.8560  -11.1040 C.3    95  VAL95       0.1561
     93  C        -28.7440    8.0460  -12.2140 C.2    95  VAL95       0.2260
     94  O        -28.3930    6.8830  -12.4510 O.2    95  VAL95      -0.2867
     95  CB       -26.5960    9.1350  -11.4150 C.3    95  VAL95       0.0252
     96  CG1      -26.1090   10.3020  -10.5960 C.3    95  VAL95       0.0019
     97  CG2      -25.7450    7.9140  -11.1540 C.3    95  VAL95       0.0019
     98  N        -17.8150    6.0390  -16.6930 N.3   141  ASN141     -0.1240
     99  CA       -17.9070    6.4360  -15.2890 C.3   141  ASN141      0.1653
    100  C        -18.2640    7.9090  -15.0690 C.2   141  ASN141      0.2266
    101  O        -18.0410    8.4540  -13.9820 O.2   141  ASN141     -0.2867
    102  CB       -16.6310    6.0460  -14.5330 C.3   141  ASN141      0.1155
    103  CG       -16.5120    4.5550  -14.3500 C.2   141  ASN141      0.2627
    104  OD1      -17.5200    3.8440  -14.3430 O.2   141  ASN141     -0.2716
    105  ND2      -15.2850    4.0610  -14.2110 N.am  141  ASN141     -0.0877
    106  N        -21.7090    9.9120  -15.2730 N.3   143  MET143     -0.1245
    107  CA       -23.1480    9.6970  -15.4200 C.3   143  MET143      0.1570
    108  C        -23.9400   10.9980  -15.4040 C.2   143  MET143      0.2261
    109  O        -23.5910   11.9410  -14.6960 O.2   143  MET143     -0.2867
    110  CB       -23.6500    8.7830  -14.3070 C.3   143  MET143      0.0387
    111  CG       -23.0500    7.4050  -14.3390 C.3   143  MET143      0.0595
    112  SD       -23.7470    6.3440  -15.6250 S.3   143  MET143     -0.1393
    113  CE       -25.0380    5.5190  -14.7050 C.3   143  MET143      0.0692
    114  N        -18.8340    8.5990  -11.1330 N.3   157  ILE157     -0.1231
    115  CA       -19.1270    7.3810  -10.3810 C.3   157  ILE157      0.1692
    116  C        -17.9610    6.3920  -10.3370 C.2   157  ILE157      0.2592
    117  O        -16.8790    6.6610  -10.8650 O.2   157  ILE157     -0.2718
    118  CB       -20.3740    6.6570  -10.9520 C.3   157  ILE157      0.0266
    119  CG1      -20.1270    6.2020  -12.3890 C.3   157  ILE157      0.0019
    120  CG2      -21.6100    7.5430  -10.8760 C.3   157  ILE157      0.0020
    121  CD1      -20.9990    5.0320  -12.8030 C.3   157  ILE157      0.0001
    122  N        -18.2020    5.2550   -9.6800 N.am  158  ASP158     -0.1960
    123  CA       -17.3070    4.0850   -9.6650 C.3   158  ASP158      0.1840
    124  C        -15.9570    4.3070   -8.9890 C.2   158  ASP158      0.2622
    125  O        -14.9360    4.5310   -9.6520 O.2   158  ASP158     -0.2715
    126  CB       -17.1180    3.4790  -11.0680 C.3   158  ASP158      0.1450
    127  CG       -16.6760    2.0250  -11.0100 C.2   158  ASP158      0.3671
    128  OD1      -16.1940    1.5890   -9.9400 O.co2 158  ASP158     -0.2456
    129  OD2      -16.8020    1.3180  -12.0220 O.co2 158  ASP158     -0.2456
    130  N        -15.9580    4.1900   -7.6700 N.am  159  PHE159     -0.1974
    131  CA       -14.7490    4.3890   -6.8880 C.3   159  PHE159      0.1639
    132  C        -14.0470    3.0800   -6.5350 C.2   159  PHE159      0.2290
    133  O        -13.2920    3.0030   -5.5610 O.2   159  PHE159     -0.2864
    134  CB       -15.0510    5.2680   -5.6680 C.3   159  PHE159      0.0560
    135  CG       -15.2220    6.7110   -6.0310 C.ar  159  PHE159     -0.0200
    136  CD1      -16.3750    7.1350   -6.6880 C.ar  159  PHE159     -0.0042
    137  CD2      -14.2120    7.6310   -5.7840 C.ar  159  PHE159     -0.0042
    138  CE1      -16.5290    8.4690   -7.0720 C.ar  159  PHE159     -0.0003
    139  CE2      -14.3570    8.9680   -6.1760 C.ar  159  PHE159     -0.0003
    140  CZ       -15.5070    9.3810   -6.8200 C.ar  159  PHE159     -0.0000
@<TRIPOS>BOND
     1    98    99    1
     2   112   113    1
     3   112   111    1
     4    16    15    2
     5   107   108    1
     6   107   106    1
     7   107   110    1
     8   108   109    2
     9    99   100    1
    10    99   102    1
    11     4     3    2
    12   100   101    2
    13    17    18    1
    14    17    14    1
    15   102   103    1
    16    13    14    1
    17    13    11   am
    18    15    14    1
    19    15    19   am
    20     3     9   am
    21     3     2    1
    22    10     9    1
    23    10    11    1
    24   103   104    2
    25   103   105   am
    26   111   110    1
    27     2     1    1
    28     2     5    1
    29    11    12    2
    30    20    19    1
    31    20    21    1
    32     8     6    1
    33    21    22    2
    34   121   119    1
    35     5     6    1
    36    94    93    2
    37   119   118    1
    38     6     7    1
    39    93    92    1
    40   129   127   ar
    41    95    97    1
    42    95    92    1
    43    95    96    1
    44   114   115    1
    45    92    91    1
    46   126   127    1
    47   126   123    1
    48    31    30    2
    49   127   128   ar
    50    26    25    2
    51   118   120    1
    52   118   115    1
    53   117   116    2
    54   115   116    1
    55   116   122   am
    56    28    29    1
    57    30    29    1
    58    32    29    1
    59    32    33    1
    60    32    34    1
    61    25    24    1
    62   122   123    1
    63   123   124    1
    64   125   124    2
    65    23    24    1
    66   124   130   am
    67    24    27    1
    68    73    71    1
    69   130   131    1
    70    39    36    1
    71    48    47    1
    72    47    46    1
    73    66    67    1
    74   138   140   ar
    75   138   136   ar
    76    70    71    1
    77    70    67    1
    78    70    72    1
    79   131   132    1
    80   131   134    1
    81    85    84    2
    82   140   139   ar
    83   136   135   ar
    84   132   133    2
    85    36    35    1
    86    36    37    1
    87    67    68    1
    88    45    46    1
    89    45    44    1
    90   139   137   ar
    91    84    83    1
    92   135   137   ar
    93   135   134    1
    94    90    88   ar
    95    44    41    1
    96    88    87    1
    97    88    89   ar
    98    41    40    1
    99    41    42    1
   100    87    86    1
   101    37    38    2
   102    80    79    1
   103    57    55   ar
   104    68    69    2
   105    86    83    1
   106    42    43    2
   107    83    82    1
   108    56    55   ar
   109    78    79    1
   110    78    75    1
   111    55    54    1
   112    82    76   am
   113    77    76    2
   114    79    81    1
   115    76    75    1
   116    65    63    1
   117    54    53    1
   118    75    74    1
   119    53    50    1
   120    64    63    1
   121    63    62    1
   122    50    49    1
   123    50    51    1
   124    62    59    1
   125    52    51    2
   126    59    58    1
   127    59    60    1
   128    61    60    2
