@<TRIPOS>MOLECULE
tmp/5auzA00.pdb
 129 119 0 0 0
SMALL
GASTEIGER

@<TRIPOS>ATOM
      1  N        -29.3860   -0.9310  -13.2080 N.3    18  LEU18      -0.1231
      2  CA       -28.7290    0.2550  -13.7490 C.3    18  LEU18       0.1693
      3  C        -27.3940   -0.0560  -14.4060 C.2    18  LEU18       0.2593
      4  O        -26.9020    0.7160  -15.2370 O.2    18  LEU18      -0.2718
      5  CB       -28.5150    1.2940  -12.6470 C.3    18  LEU18       0.0284
      6  CG       -29.7820    1.8700  -12.0260 C.3    18  LEU18       0.0019
      7  CD1      -29.4300    2.8890  -10.9560 C.3    18  LEU18       0.0001
      8  CD2      -30.6690    2.4970  -13.1070 C.3    18  LEU18       0.0001
      9  N        -26.8020   -1.1820  -14.0270 N.am   19  GLY19      -0.1942
     10  CA       -25.4810   -1.5300  -14.5030 C.3    19  GLY19       0.2014
     11  C        -24.9770   -2.8070  -13.8660 C.2    19  GLY19       0.2640
     12  O        -25.4810   -3.2460  -12.8340 O.2    19  GLY19      -0.2714
     13  N        -23.9650   -3.3980  -14.4870 N.am   20  SER20      -0.1935
     14  CA       -23.5180   -4.7280  -14.1240 C.3    20  SER20       0.2055
     15  C        -22.0630   -4.8650  -14.5360 C.2    20  SER20       0.2644
     16  O        -21.7050   -4.5230  -15.6640 O.2    20  SER20      -0.2714
     17  CB       -24.3810   -5.7590  -14.8540 C.3    20  SER20       0.2130
     18  OG       -23.8290   -7.0560  -14.7740 O.3    20  SER20      -0.2179
     19  N        -21.2230   -5.3480  -13.6260 N.am   21  GLY21      -0.1939
     20  CA       -19.8060   -5.4890  -13.9110 C.3    21  GLY21       0.2014
     21  C        -19.2540   -6.8160  -13.4320 C.2    21  GLY21       0.2638
     22  O        -20.0100   -7.7650  -13.1950 O.2    21  GLY21      -0.2714
     23  N        -17.9360   -6.8780  -13.2780 N.am   22  GLN22      -0.1977
     24  CA       -17.2530   -8.1220  -12.9450 C.3    22  GLN22       0.1601
     25  C        -17.6970   -8.7330  -11.6120 C.2    22  GLN22       0.2287
     26  O        -18.0430   -9.9150  -11.5480 O.2    22  GLN22      -0.2864
     27  CB       -15.7390   -7.9030  -12.9490 C.3    22  GLN22       0.0394
     28  CG       -14.9560   -9.1600  -12.6230 C.3    22  GLN22       0.0908
     29  CD       -13.5580   -9.1500  -13.1990 C.2    22  GLN22       0.2608
     30  OE1      -12.9850   -8.0920  -13.4670 O.2    22  GLN22      -0.2717
     31  NE2      -13.0010  -10.3390  -13.4030 N.am   22  GLN22      -0.0878
     32  N        -19.9530   -6.8260   -9.4300 N.3    24  ALA24      -0.1245
     33  CA       -20.9590   -5.9120   -8.8970 C.3    24  ALA24       0.1562
     34  C        -22.1460   -5.7700   -9.8410 C.2    24  ALA24       0.2260
     35  O        -21.9970   -5.8390  -11.0640 O.2    24  ALA24      -0.2867
     36  CB       -20.3410   -4.5500   -8.6150 C.3    24  ALA24       0.0290
     37  N        -25.7790   -3.1560  -10.0900 N.3    26  VAL26      -0.1245
     38  CA       -26.3760   -1.9680   -9.4940 C.3    26  VAL26       0.1561
     39  C        -27.8500   -1.9230   -9.8590 C.2    26  VAL26       0.2260
     40  O        -28.2070   -2.0250  -11.0320 O.2    26  VAL26      -0.2867
     41  CB       -25.6640   -0.6730   -9.9300 C.3    26  VAL26       0.0252
     42  CG1      -26.2770    0.5310   -9.2130 C.3    26  VAL26       0.0019
     43  CG2      -24.1840   -0.7460   -9.6120 C.3    26  VAL26       0.0019
     44  N        -29.4710    4.1300   -5.7100 N.3    39  ALA39      -0.1245
     45  CA       -28.9280    3.0400   -6.5160 C.3    39  ALA39       0.1562
     46  C        -28.2060    2.1040   -5.5630 C.2    39  ALA39       0.2260
     47  O        -27.3280    2.5320   -4.8280 O.2    39  ALA39      -0.2867
     48  CB       -27.9620    3.5780   -7.5610 C.3    39  ALA39       0.0290
     49  N        -25.6410   -0.7780   -5.0260 N.3    41  LYS41      -0.1245
     50  CA       -24.5460   -1.5040   -5.6680 C.3    41  LYS41       0.1561
     51  C        -24.2180   -2.7190   -4.8120 C.2    41  LYS41       0.2260
     52  O        -23.7290   -2.5820   -3.6840 O.2    41  LYS41      -0.2867
     53  CB       -23.3070   -0.6090   -5.7810 C.3    41  LYS41       0.0271
     54  CG       -22.0830   -1.2800   -6.4050 C.3    41  LYS41       0.0035
     55  CD       -20.9350   -0.2750   -6.5050 C.3    41  LYS41       0.0206
     56  CE       -19.6500   -0.8940   -7.0530 C.3    41  LYS41       0.1093
     57  NZ       -18.5690    0.1510   -7.1260 N.3    41  LYS41      -0.1314
     58  N        -20.7470   11.2610   -6.9610 N.3    76  ILE76      -0.1245
     59  CA       -21.7620   10.4220   -6.3470 C.3    76  ILE76       0.1561
     60  C        -21.6240   10.4430   -4.8230 C.2    76  ILE76       0.2260
     61  O        -20.5120   10.5490   -4.2790 O.2    76  ILE76      -0.2867
     62  CB       -21.6800    8.9750   -6.8860 C.3    76  ILE76       0.0252
     63  CG1      -23.0380    8.3010   -6.7630 C.3    76  ILE76       0.0019
     64  CG2      -20.5560    8.1700   -6.2120 C.3    76  ILE76       0.0019
     65  CD1      -24.0570    9.0120   -7.5680 C.3    76  ILE76       0.0001
     66  N        -26.3390    4.1030   -2.8350 N.3    92  LEU92      -0.1231
     67  CA       -25.7360    5.2980   -3.4220 C.3    92  LEU92       0.1693
     68  C        -26.7720    6.2830   -3.9540 C.2    92  LEU92       0.2592
     69  O        -27.9080    5.9120   -4.2600 O.2    92  LEU92      -0.2718
     70  CB       -24.8070    4.8990   -4.5730 C.3    92  LEU92       0.0284
     71  CG       -23.6280    4.0090   -4.2040 C.3    92  LEU92       0.0019
     72  CD1      -23.0650    3.3620   -5.4460 C.3    92  LEU92       0.0001
     73  CD2      -22.5390    4.8530   -3.5560 C.3    92  LEU92       0.0001
     74  N        -26.3670    7.5450   -4.0650 N.am   93  GLU93      -0.1966
     75  CA       -27.1890    8.5450   -4.7420 C.3    93  GLU93       0.1733
     76  C        -27.5990    8.0450   -6.1350 C.2    93  GLU93       0.2616
     77  O        -26.7850    7.4770   -6.8670 O.2    93  GLU93      -0.2715
     78  CB       -26.3940    9.8380   -4.8800 C.3    93  GLU93       0.0429
     79  CG       -27.1370   10.9700   -5.5740 C.3    93  GLU93       0.1163
     80  CD       -26.2850   12.2170   -5.6500 C.2    93  GLU93       0.3649
     81  OE1      -25.0540   12.1030   -5.4410 O.co2  93  GLU93      -0.2457
     82  OE2      -26.8430   13.3080   -5.8980 O.co2  93  GLU93      -0.2457
     83  N        -28.8690    8.2370   -6.4890 N.am   94  LEU94      -0.1963
     84  CA       -29.3810    7.8300   -7.7950 C.3    94  LEU94       0.1728
     85  C        -29.1710    8.9210   -8.8380 C.2    94  LEU94       0.2616
     86  O        -29.6210   10.0570   -8.6660 O.2    94  LEU94      -0.2715
     87  CB       -30.8720    7.5120   -7.7180 C.3    94  LEU94       0.0311
     88  CG       -31.5120    7.1240   -9.0500 C.3    94  LEU94       0.0022
     89  CD1      -30.8260    5.9020   -9.6310 C.3    94  LEU94       0.0001
     90  CD2      -33.0030    6.8620   -8.8700 C.3    94  LEU94       0.0001
     91  N        -28.4870    8.5570   -9.9190 N.am   95  VAL95      -0.1977
     92  CA       -28.2880    9.4280  -11.0650 C.3    95  VAL95       0.1596
     93  C        -28.9130    8.6860  -12.2450 C.2    95  VAL95       0.2287
     94  O        -28.4450    7.6100  -12.6210 O.2    95  VAL95      -0.2864
     95  CB       -26.7850    9.6740  -11.3110 C.3    95  VAL95       0.0276
     96  CG1      -26.5730   10.7780  -12.3090 C.3    95  VAL95       0.0022
     97  CG2      -26.1090   10.0590  -10.0220 C.3    95  VAL95       0.0022
     98  N        -17.9310    6.0680  -16.5300 N.3   141  ASN141     -0.1240
     99  CA       -17.9880    6.4260  -15.1140 C.3   141  ASN141      0.1653
    100  C        -18.3810    7.8880  -14.8600 C.2   141  ASN141      0.2266
    101  O        -18.1640    8.4270  -13.7690 O.2   141  ASN141     -0.2867
    102  CB       -16.6630    6.0730  -14.4180 C.3   141  ASN141      0.1155
    103  CG       -16.4790    4.5720  -14.2430 C.2   141  ASN141      0.2627
    104  OD1      -17.4490    3.8100  -14.2960 O.2   141  ASN141     -0.2716
    105  ND2      -15.2370    4.1400  -14.0230 N.am  141  ASN141     -0.0877
    106  N        -21.8660    9.9900  -15.0710 N.3   143  MET143     -0.1245
    107  CA       -23.3070    9.8050  -15.2340 C.3   143  MET143      0.1570
    108  C        -24.0010   11.1570  -15.3280 C.2   143  MET143      0.2261
    109  O        -23.5930   12.1170  -14.6780 O.2   143  MET143     -0.2867
    110  CB       -23.8880    9.0230  -14.0520 C.3   143  MET143      0.0387
    111  CG       -23.3110    7.6420  -13.8490 C.3   143  MET143      0.0595
    112  SD       -23.8260    6.4790  -15.1250 S.3   143  MET143     -0.1393
    113  CE       -25.6030    6.6160  -14.9910 C.3   143  MET143      0.0692
    114  N        -18.8190    8.6160  -10.9540 N.3   157  ILE157     -0.1231
    115  CA       -19.1380    7.3970  -10.2040 C.3   157  ILE157      0.1692
    116  C        -17.9940    6.3930  -10.2030 C.2   157  ILE157      0.2592
    117  O        -16.9580    6.6060  -10.8520 O.2   157  ILE157     -0.2718
    118  CB       -20.3790    6.6720  -10.7770 C.3   157  ILE157      0.0266
    119  CG1      -20.1180    6.2130  -12.2130 C.3   157  ILE157      0.0019
    120  CG2      -21.6100    7.5640  -10.7130 C.3   157  ILE157      0.0020
    121  CD1      -21.0000    5.0550  -12.6590 C.3   157  ILE157      0.0001
    122  N        -18.2080    5.2960   -9.4720 N.am  158  ASP158     -0.1974
    123  CA       -17.3390    4.1120   -9.4750 C.3   158  ASP158      0.1709
    124  C        -15.9690    4.3540   -8.8340 C.2   158  ASP158      0.2293
    125  O        -14.9470    4.5500   -9.5170 O.2   158  ASP158     -0.2864
    126  CB       -17.1980    3.4990  -10.8750 C.3   158  ASP158      0.1436
    127  CG       -16.5760    2.1050  -10.8460 C.2   158  ASP158      0.3671
    128  OD1      -15.9970    1.7100   -9.8070 O.co2 158  ASP158     -0.2456
    129  OD2      -16.6640    1.3990  -11.8700 O.co2 158  ASP158     -0.2456
@<TRIPOS>BOND
     1    98    99    1
     2    16    15    2
     3   108   107    1
     4   108   109    2
     5     4     3    2
     6   107   106    1
     7   107   110    1
     8   112   113    1
     9   112   111    1
    10    99   100    1
    11    99   102    1
    12   100   101    2
    13    17    18    1
    14    17    14    1
    15    15    14    1
    16    15    19   am
    17    10     9    1
    18    10    11    1
    19    13    14    1
    20    13    11   am
    21   102   103    1
    22     3     9   am
    23     3     2    1
    24   104   103    2
    25   103   105   am
    26   110   111    1
    27    20    19    1
    28    20    21    1
    29    11    12    2
    30     2     1    1
    31     2     5    1
    32    30    29    2
    33    21    23   am
    34    21    22    2
    35    31    29   am
    36    23    24    1
    37    29    28    1
    38     8     6    1
    39    27    24    1
    40    27    28    1
    41    24    25    1
    42   121   119    1
    43     5     6    1
    44    94    93    2
    45    96    95    1
    46    93    92    1
    47   119   118    1
    48     6     7    1
    49   129   127   ar
    50    25    26    2
    51    95    92    1
    52    95    97    1
    53    92    91    1
    54    35    34    2
    55    40    39    2
    56   114   115    1
    57   126   127    1
    58   126   123    1
    59   117   116    2
    60   127   128   ar
    61   118   120    1
    62   118   115    1
    63   115   116    1
    64   116   122   am
    65    37    38    1
    66    41    43    1
    67    41    38    1
    68    41    42    1
    69    91    85   am
    70    39    38    1
    71    34    33    1
    72    89    88    1
    73   125   124    2
    74   123   122    1
    75   123   124    1
    76    32    33    1
    77    88    90    1
    78    88    87    1
    79    33    36    1
    80    85    86    2
    81    85    84    1
    82    84    87    1
    83    84    83    1
    84    65    63    1
    85    48    45    1
    86    57    56    1
    87    56    55    1
    88    58    59    1
    89    62    63    1
    90    62    59    1
    91    62    64    1
    92    77    76    2
    93    45    44    1
    94    45    46    1
    95    55    54    1
    96    83    76   am
    97    54    53    1
    98    59    60    1
    99    76    75    1
   100    82    80   ar
   101    53    50    1
   102    50    49    1
   103    50    51    1
   104    80    79    1
   105    80    81   ar
   106    79    78    1
   107    46    47    2
   108    72    71    1
   109    78    75    1
   110    60    61    2
   111    51    52    2
   112    75    74    1
   113    70    71    1
   114    70    67    1
   115    69    68    2
   116    71    73    1
   117    74    68   am
   118    68    67    1
   119    67    66    1
