@<TRIPOS>MOLECULE
tmp/5av2A00.pdb
 138 127 0 0 0
SMALL
GASTEIGER

@<TRIPOS>ATOM
      1  N        -29.7120   -1.0620  -13.2230 N.3    18  LEU18      -0.1231
      2  CA       -29.0350    0.0290  -13.9090 C.3    18  LEU18       0.1693
      3  C        -27.8560   -0.4680  -14.7270 C.2    18  LEU18       0.2593
      4  O        -27.5520    0.0790  -15.7900 O.2    18  LEU18      -0.2718
      5  CB       -28.5920    1.0910  -12.9060 C.3    18  LEU18       0.0284
      6  CG       -29.7860    1.7450  -12.2300 C.3    18  LEU18       0.0019
      7  CD1      -29.3680    2.7810  -11.1930 C.3    18  LEU18       0.0001
      8  CD2      -30.6840    2.3540  -13.3020 C.3    18  LEU18       0.0001
      9  N        -27.1940   -1.5080  -14.2310 N.am   19  GLY19      -0.1942
     10  CA       -26.0770   -2.1010  -14.9430 C.3    19  GLY19       0.2014
     11  C        -25.2760   -3.0210  -14.0510 C.2    19  GLY19       0.2640
     12  O        -25.5590   -3.1510  -12.8570 O.2    19  GLY19      -0.2714
     13  N        -24.2730   -3.6720  -14.6220 N.am   20  SER20      -0.1935
     14  CA       -23.4420   -4.5600  -13.8250 C.3    20  SER20       0.2055
     15  C        -22.0500   -4.6460  -14.4100 C.2    20  SER20       0.2643
     16  O        -21.8420   -4.3770  -15.5950 O.2    20  SER20      -0.2714
     17  CB       -24.0770   -5.9490  -13.6910 C.3    20  SER20       0.2130
     18  OG       -24.2020   -6.5990  -14.9440 O.3    20  SER20      -0.2179
     19  N        -21.0920   -4.9890  -13.5600 N.am   21  GLY21      -0.1954
     20  CA       -19.7210   -5.1330  -13.9910 C.3    21  GLY21       0.1869
     21  C        -19.2330   -6.5160  -13.6380 C.2    21  GLY21       0.2309
     22  O        -20.0150   -7.4660  -13.5690 O.2    21  GLY21      -0.2863
     23  N        -19.8930   -6.2540   -9.4380 N.3    24  ALA24      -0.1245
     24  CA       -20.9760   -5.4300   -8.9010 C.3    24  ALA24       0.1562
     25  C        -22.2040   -5.4460   -9.8060 C.2    24  ALA24       0.2260
     26  O        -22.0810   -5.5350  -11.0290 O.2    24  ALA24      -0.2867
     27  CB       -20.5020   -3.9980   -8.6810 C.3    24  ALA24       0.0290
     28  N        -25.9070   -3.0980  -10.0540 N.3    26  VAL26      -0.1245
     29  CA       -26.5470   -1.9080   -9.5010 C.3    26  VAL26       0.1561
     30  C        -28.0150   -1.8910   -9.8900 C.2    26  VAL26       0.2260
     31  O        -28.3530   -2.0180  -11.0630 O.2    26  VAL26      -0.2867
     32  CB       -25.8730   -0.6140  -10.0070 C.3    26  VAL26       0.0252
     33  CG1      -26.5720    0.6150   -9.4280 C.3    26  VAL26       0.0019
     34  CG2      -24.3860   -0.6110   -9.6440 C.3    26  VAL26       0.0019
     35  N        -29.6060    4.1950   -5.6980 N.3    39  ALA39      -0.1245
     36  CA       -29.0480    3.1060   -6.4860 C.3    39  ALA39       0.1562
     37  C        -28.3720    2.1380   -5.5260 C.2    39  ALA39       0.2260
     38  O        -27.4490    2.5130   -4.7970 O.2    39  ALA39      -0.2867
     39  CB       -28.0430    3.6400   -7.4930 C.3    39  ALA39       0.0290
     40  N        -25.9180   -0.7690   -4.9520 N.3    41  LYS41      -0.1245
     41  CA       -24.8230   -1.4880   -5.5950 C.3    41  LYS41       0.1561
     42  C        -24.4470   -2.7100   -4.7700 C.2    41  LYS41       0.2260
     43  O        -23.9770   -2.5750   -3.6420 O.2    41  LYS41      -0.2867
     44  CB       -23.6090   -0.5650   -5.7210 C.3    41  LYS41       0.0271
     45  CG       -22.3810   -1.1770   -6.4050 C.3    41  LYS41       0.0035
     46  CD       -21.2670   -0.1200   -6.4470 C.3    41  LYS41       0.0206
     47  CE       -19.9990   -0.5960   -7.1350 C.3    41  LYS41       0.1093
     48  NZ       -18.9780    0.5060   -7.1790 N.3    41  LYS41      -0.1314
     49  N        -20.7530   11.1870   -7.0190 N.3    76  ILE76      -0.1245
     50  CA       -21.7740   10.3430   -6.4000 C.3    76  ILE76       0.1561
     51  C        -21.6480   10.3610   -4.8740 C.2    76  ILE76       0.2260
     52  O        -20.5450   10.4360   -4.3280 O.2    76  ILE76      -0.2867
     53  CB       -21.6850    8.8870   -6.9380 C.3    76  ILE76       0.0252
     54  CG1      -23.0130    8.1630   -6.7630 C.3    76  ILE76       0.0019
     55  CG2      -20.5840    8.0860   -6.2680 C.3    76  ILE76       0.0019
     56  CD1      -24.0230    8.5910   -7.7540 C.3    76  ILE76       0.0001
     57  N        -26.4260    4.0750   -2.7730 N.3    92  LEU92      -0.1231
     58  CA       -25.8300    5.2690   -3.3800 C.3    92  LEU92       0.1693
     59  C        -26.8570    6.2510   -3.9280 C.2    92  LEU92       0.2592
     60  O        -28.0110    5.8930   -4.1720 O.2    92  LEU92      -0.2718
     61  CB       -24.9190    4.8550   -4.5400 C.3    92  LEU92       0.0284
     62  CG       -23.7460    3.9560   -4.1640 C.3    92  LEU92       0.0019
     63  CD1      -23.2190    3.2600   -5.3990 C.3    92  LEU92       0.0001
     64  CD2      -22.6470    4.7980   -3.5620 C.3    92  LEU92       0.0001
     65  N        -26.4270    7.4930   -4.1390 N.am   93  GLU93      -0.1966
     66  CA       -27.2640    8.4940   -4.8020 C.3    93  GLU93       0.1733
     67  C        -27.6790    7.9640   -6.1870 C.2    93  GLU93       0.2616
     68  O        -26.8610    7.3740   -6.9020 O.2    93  GLU93      -0.2715
     69  CB       -26.4780    9.8040   -4.9380 C.3    93  GLU93       0.0429
     70  CG       -27.1710   10.8980   -5.7380 C.3    93  GLU93       0.1163
     71  CD       -26.3720   12.1840   -5.7230 C.2    93  GLU93       0.3649
     72  OE1      -25.1310   12.1100   -5.5760 O.co2  93  GLU93      -0.2457
     73  OE2      -26.9840   13.2680   -5.8390 O.co2  93  GLU93      -0.2457
     74  N        -28.9500    8.1470   -6.5430 N.am   94  LEU94      -0.1963
     75  CA       -29.4620    7.7290   -7.8550 C.3    94  LEU94       0.1728
     76  C        -29.2390    8.8100   -8.8930 C.2    94  LEU94       0.2616
     77  O        -29.6670    9.9570   -8.7180 O.2    94  LEU94      -0.2715
     78  CB       -30.9590    7.3980   -7.7800 C.3    94  LEU94       0.0311
     79  CG       -31.6740    7.0260   -9.0880 C.3    94  LEU94       0.0022
     80  CD1      -31.0940    5.7500   -9.6660 C.3    94  LEU94       0.0001
     81  CD2      -33.1810    6.8630   -8.8750 C.3    94  LEU94       0.0001
     82  N        -28.5520    8.4350   -9.9650 N.am   95  VAL95      -0.1977
     83  CA       -28.2790    9.3190  -11.0820 C.3    95  VAL95       0.1596
     84  C        -28.8290    8.5640  -12.2860 C.2    95  VAL95       0.2287
     85  O        -28.2660    7.5540  -12.6940 O.2    95  VAL95      -0.2864
     86  CB       -26.7650    9.5670  -11.2090 C.3    95  VAL95       0.0276
     87  CG1      -26.4700   10.5710  -12.2940 C.3    95  VAL95       0.0022
     88  CG2      -26.2230   10.0800   -9.8930 C.3    95  VAL95       0.0022
     89  N        -25.0910    6.6000  -18.7320 N.3    99  GLU99      -0.1245
     90  CA       -23.6620    6.8810  -18.8870 C.3    99  GLU99       0.1567
     91  C        -23.3920    7.9740  -19.9080 C.2    99  GLU99       0.2260
     92  O        -24.1050    8.1030  -20.9050 O.2    99  GLU99      -0.2867
     93  CB       -22.9070    5.6240  -19.3320 C.3    99  GLU99       0.0388
     94  CG       -22.9780    4.4750  -18.3580 C.3    99  GLU99       0.1160
     95  CD       -22.2250    3.2600  -18.8510 C.2    99  GLU99       0.3649
     96  OE1      -21.6530    3.3330  -19.9580 O.co2  99  GLU99      -0.2457
     97  OE2      -22.2030    2.2390  -18.1300 O.co2  99  GLU99      -0.2457
     98  N        -17.8580    5.7600  -19.2310 N.3   141  GLU141     -0.1231
     99  CA       -18.8390    4.8820  -18.5790 C.3   141  GLU141      0.1699
    100  C        -18.9380    5.1160  -17.0700 C.2   141  GLU141      0.2592
    101  O        -19.9160    4.7110  -16.4380 O.2   141  GLU141     -0.2718
    102  CB       -18.6250    3.3990  -18.9240 C.3   141  GLU141      0.0402
    103  CG       -17.3570    2.7630  -18.4090 C.3   141  GLU141      0.1161
    104  CD       -17.1720    1.3470  -18.9610 C.2   141  GLU141      0.3649
    105  OE1      -17.7560    1.0440  -20.0280 O.co2 141  GLU141     -0.2457
    106  OE2      -16.4500    0.5370  -18.3330 O.co2 141  GLU141     -0.2457
    107  N        -17.9470    5.8040  -16.5040 N.am  142  ASN142     -0.1974
    108  CA       -17.9860    6.1620  -15.0840 C.3   142  ASN142      0.1688
    109  C        -18.3950    7.6120  -14.8290 C.2   142  ASN142      0.2292
    110  O        -18.1470    8.1620  -13.7530 O.2   142  ASN142     -0.2864
    111  CB       -16.6510    5.8350  -14.3980 C.3   142  ASN142      0.1181
    112  CG       -16.4800    4.3510  -14.1380 C.2   142  ASN142      0.2629
    113  OD1      -17.4600    3.6000  -14.1250 O.2   142  ASN142     -0.2716
    114  ND2      -15.2380    3.9130  -13.9300 N.am  142  ASN142     -0.0877
    115  N        -21.9460    9.6920  -15.0000 N.3   144  MET144     -0.1245
    116  CA       -23.3850    9.4980  -15.1250 C.3   144  MET144      0.1570
    117  C        -24.1010   10.8380  -15.2250 C.2   144  MET144      0.2261
    118  O        -23.7550   11.8000  -14.5370 O.2   144  MET144     -0.2867
    119  CB       -23.9180    8.7100  -13.9320 C.3   144  MET144      0.0387
    120  CG       -23.4580    7.2730  -13.8860 C.3   144  MET144      0.0595
    121  SD       -24.2100    6.2980  -15.1920 S.3   144  MET144     -0.1393
    122  CE       -23.4130    4.7270  -14.8880 C.3   144  MET144      0.0692
    123  N        -18.8200    8.4560  -10.8900 N.3   158  ILE158     -0.1231
    124  CA       -19.1360    7.2420  -10.1280 C.3   158  ILE158      0.1692
    125  C        -17.9860    6.2330  -10.1280 C.2   158  ILE158      0.2592
    126  O        -16.9190    6.4960  -10.6890 O.2   158  ILE158     -0.2718
    127  CB       -20.4070    6.5370  -10.6670 C.3   158  ILE158      0.0266
    128  CG1      -20.1590    5.9970  -12.0810 C.3   158  ILE158      0.0019
    129  CG2      -21.6120    7.4710  -10.6530 C.3   158  ILE158      0.0020
    130  CD1      -20.9490    4.7190  -12.3900 C.3   158  ILE158      0.0001
    131  N        -18.2260    5.0920   -9.4860 N.am  159  ASP159     -0.1974
    132  CA       -17.3110    3.9400   -9.4230 C.3   159  ASP159      0.1709
    133  C        -15.9500    4.2040   -8.7970 C.2   159  ASP159      0.2293
    134  O        -14.9380    4.3540   -9.4940 O.2   159  ASP159     -0.2864
    135  CB       -17.1550    3.2580  -10.7910 C.3   159  ASP159      0.1436
    136  CG       -16.5440    1.8700  -10.6810 C.2   159  ASP159      0.3671
    137  OD1      -16.0730    1.4940   -9.5810 O.co2 159  ASP159     -0.2456
    138  OD2      -16.5410    1.1420  -11.7010 O.co2 159  ASP159     -0.2456
@<TRIPOS>BOND
     1    92    91    2
     2   105   104   ar
     3    96    95   ar
     4    91    90    1
     5    93    90    1
     6    93    94    1
     7    98    99    1
     8   104   103    1
     9   104   106   ar
    10   102    99    1
    11   102   103    1
    12    90    89    1
    13    95    94    1
    14    95    97   ar
    15    99   100    1
    16   100   107   am
    17   100   101    2
    18   107   108    1
    19     4     3    2
    20    16    15    2
    21   117   116    1
    22   117   118    2
    23   121   122    1
    24   121   120    1
    25   116   115    1
    26   116   119    1
    27   108   109    1
    28   108   111    1
    29    18    17    1
    30    10     9    1
    31    10    11    1
    32   109   110    2
    33     3     9   am
    34     3     2    1
    35    13    11   am
    36    13    14    1
    37    15    14    1
    38    15    19   am
    39   111   112    1
    40   112   113    2
    41   112   114   am
    42    11    12    2
    43    20    21    1
    44    20    19    1
    45   119   120    1
    46     2     1    1
    47     2     5    1
    48    14    17    1
    49    21    22    2
    50     8     6    1
    51     5     6    1
    52    85    84    2
    53   130   128    1
    54    87    86    1
    55    84    83    1
    56     6     7    1
    57   128   127    1
    58   138   136   ar
    59    86    83    1
    60    86    88    1
    61    83    82    1
    62    31    30    2
    63    26    25    2
    64   123   124    1
    65   135   136    1
    66   135   132    1
    67   126   125    2
    68   136   137   ar
    69   127   129    1
    70   127   124    1
    71   124   125    1
    72   125   131   am
    73    28    29    1
    74    32    34    1
    75    32    29    1
    76    32    33    1
    77    82    76   am
    78    30    29    1
    79    25    24    1
    80    80    79    1
    81   134   133    2
    82   131   132    1
    83    23    24    1
    84   132   133    1
    85    79    81    1
    86    79    78    1
    87    24    27    1
    88    76    77    2
    89    76    75    1
    90    75    78    1
    91    75    74    1
    92    56    54    1
    93    39    36    1
    94    48    47    1
    95    47    46    1
    96    49    50    1
    97    53    54    1
    98    53    50    1
    99    53    55    1
   100    68    67    2
   101    74    67   am
   102    36    35    1
   103    36    37    1
   104    46    45    1
   105    45    44    1
   106    50    51    1
   107    67    66    1
   108    73    71   ar
   109    70    71    1
   110    70    69    1
   111    71    72   ar
   112    44    41    1
   113    41    40    1
   114    41    42    1
   115    37    38    2
   116    63    62    1
   117    69    66    1
   118    51    52    2
   119    66    65    1
   120    42    43    2
   121    61    62    1
   122    61    58    1
   123    60    59    2
   124    62    64    1
   125    65    59   am
   126    59    58    1
   127    58    57    1
