@<TRIPOS>MOLECULE
tmp/5avaC01.pdb
 103 102 0 0 0
SMALL
GASTEIGER

@<TRIPOS>ATOM
      1  N        -33.1110   23.8640  -11.4920 N.3    85  ALA85      -0.1231
      2  CA       -34.3720   24.4190  -10.9910 C.3    85  ALA85       0.1694
      3  C        -35.1000   23.3600  -10.1680 C.2    85  ALA85       0.2592
      4  O        -34.9960   22.1740  -10.4790 O.2    85  ALA85      -0.2718
      5  CB       -35.2530   24.8800  -12.1420 C.3    85  ALA85       0.0304
      6  N        -35.8200   23.7580   -9.1160 N.am   86  ASP86      -0.1974
      7  CA       -35.8760   25.1400   -8.6230 C.3    86  ASP86       0.1709
      8  C        -35.0810   25.3240   -7.3270 C.2    86  ASP86       0.2293
      9  O        -34.6390   26.4330   -7.0160 O.2    86  ASP86      -0.2864
     10  CB       -37.3260   25.5800   -8.4080 C.3    86  ASP86       0.1436
     11  CG       -37.9410   26.2040   -9.6470 C.2    86  ASP86       0.3671
     12  OD1      -37.5420   27.3300  -10.0260 O.co2  86  ASP86      -0.2456
     13  OD2      -38.8440   25.5710  -10.2330 O.co2  86  ASP86      -0.2456
     14  N        -41.0320   27.5680   -8.7370 N.3   104  GLY104     -0.1225
     15  CA       -40.2370   28.5170   -7.9640 C.3   104  GLY104      0.1811
     16  C        -40.8560   28.9070   -6.6300 C.2   104  GLY104      0.2280
     17  O        -40.3900   29.8390   -5.9730 O.2   104  GLY104     -0.2866
     18  N        -32.7770   28.6080   -9.3440 N.3   128  LEU128     -0.1231
     19  CA       -33.3240   29.3300  -10.4880 C.3   128  LEU128      0.1693
     20  C        -33.8630   30.7140  -10.1320 C.2   128  LEU128      0.2592
     21  O        -34.6550   30.8820   -9.1920 O.2   128  LEU128     -0.2718
     22  CB       -34.3790   28.4960  -11.2250 C.3   128  LEU128      0.0284
     23  CG       -34.9210   29.1480  -12.5050 C.3   128  LEU128      0.0019
     24  CD1      -34.8560   28.2080  -13.7020 C.3   128  LEU128      0.0001
     25  CD2      -36.3240   29.7140  -12.3000 C.3   128  LEU128      0.0001
     26  N        -33.4180   31.6950  -10.9110 N.am  129  TYR129     -0.1962
     27  CA       -33.8060   33.0840  -10.7540 C.3   129  TYR129      0.1771
     28  C        -35.2370   33.3230  -11.2370 C.2   129  TYR129      0.2620
     29  O        -35.5480   33.1270  -12.4150 O.2   129  TYR129     -0.2715
     30  CB       -32.8120   33.9700  -11.5110 C.3   129  TYR129      0.0574
     31  CG       -33.3330   35.3360  -11.9000 C.ar  129  TYR129     -0.0198
     32  CD1      -33.5840   36.3140  -10.9380 C.ar  129  TYR129     -0.0009
     33  CD2      -33.5610   35.6580  -13.2370 C.ar  129  TYR129     -0.0009
     34  CE1      -34.0530   37.5690  -11.2940 C.ar  129  TYR129      0.0417
     35  CE2      -34.0330   36.9110  -13.6030 C.ar  129  TYR129      0.0417
     36  CZ       -34.2760   37.8630  -12.6280 C.ar  129  TYR129      0.1957
     37  OH       -34.7440   39.1100  -12.9840 O.3   129  TYR129     -0.2866
     38  N        -36.1060   33.7390  -10.3180 N.am  130  ASN130     -0.1958
     39  CA       -37.4760   34.1050  -10.6610 C.3   130  ASN130      0.1819
     40  C        -37.6170   35.6090  -10.7360 C.2   130  ASN130      0.2621
     41  O        -37.5070   36.2990   -9.7220 O.2   130  ASN130     -0.2715
     42  CB       -38.4590   33.5440   -9.6450 C.3   130  ASN130      0.1195
     43  CG       -38.4590   32.0340   -9.6120 C.2   130  ASN130      0.2630
     44  OD1      -37.9800   31.4230   -8.6540 O.2   130  ASN130     -0.2716
     45  ND2      -38.9890   31.4170  -10.6630 N.am  130  ASN130     -0.0877
     46  N        -37.8670   36.1080  -11.9430 N.am  131  VAL131     -0.1963
     47  CA       -37.9130   37.5480  -12.2130 C.3   131  VAL131      0.1727
     48  C        -38.6570   38.3530  -11.1370 C.2   131  VAL131      0.2616
     49  O        -38.1970   39.4190  -10.7260 O.2   131  VAL131     -0.2715
     50  CB       -38.4870   37.8380  -13.6280 C.3   131  VAL131      0.0290
     51  CG1      -39.8770   37.2290  -13.8030 C.3   131  VAL131      0.0023
     52  CG2      -38.4900   39.3330  -13.9320 C.3   131  VAL131      0.0023
     53  N        -39.7770   37.8090  -10.6620 N.am  132  HIS132     -0.1959
     54  CA       -40.7450   38.5690   -9.8640 C.3   132  HIS132      0.1787
     55  C        -40.3500   38.8470   -8.4030 C.2   132  HIS132      0.2620
     56  O        -40.8660   39.7860   -7.7970 O.2   132  HIS132     -0.2715
     57  CB       -42.1460   37.9320   -9.9560 C.3   132  HIS132      0.0785
     58  CG       -42.7640   38.0210  -11.3220 C.ar  132  HIS132      0.0821
     59  ND1      -42.9240   39.2140  -11.9960 N.ar  132  HIS132     -0.2267
     60  CD2      -43.2730   37.0630  -12.1350 C.ar  132  HIS132      0.1154
     61  CE1      -43.4960   38.9880  -13.1650 C.ar  132  HIS132      0.1986
     62  NE2      -43.7180   37.6900  -13.2750 N.ar  132  HIS132     -0.2212
     63  N        -39.4350   38.0500   -7.8480 N.am  133  TRP133     -0.1974
     64  CA       -39.0140   38.2260   -6.4500 C.3   133  TRP133      0.1640
     65  C        -37.5240   37.9770   -6.1720 C.2   133  TRP133      0.2290
     66  O        -36.9170   38.7070   -5.3910 O.2   133  TRP133     -0.2864
     67  CB       -39.8790   37.3790   -5.5060 C.3   133  TRP133      0.0576
     68  CG       -39.7280   35.8960   -5.6950 C.ar  133  TRP133      0.0006
     69  CD1      -38.8040   35.0810   -5.1040 C.ar  133  TRP133      0.0946
     70  CD2      -40.5300   35.0530   -6.5280 C.ar  133  TRP133      0.0152
     71  NE1      -38.9770   33.7860   -5.5210 N.ar  133  TRP133     -0.2442
     72  CE2      -40.0310   33.7400   -6.3950 C.ar  133  TRP133      0.0810
     73  CE3      -41.6220   35.2800   -7.3770 C.ar  133  TRP133      0.0012
     74  CZ2      -40.5920   32.6560   -7.0720 C.ar  133  TRP133      0.0191
     75  CZ3      -42.1780   34.1990   -8.0530 C.ar  133  TRP133      0.0001
     76  CH2      -41.6580   32.9070   -7.9000 C.ar  133  TRP133      0.0015
     77  N        -38.0750   22.4140  -11.8910 N.3   214  GLY214     -0.1210
     78  CA       -38.7480   23.4000  -12.7460 C.3   214  GLY214      0.1956
     79  C        -39.8360   22.8320  -13.6420 C.2   214  GLY214      0.2612
     80  O        -39.8710   21.6280  -13.9120 O.2   214  GLY214     -0.2717
     81  N        -40.7240   23.7060  -14.1050 N.am  215  ILE215     -0.1965
     82  CA       -41.8640   23.2900  -14.9250 C.3   215  ILE215      0.1727
     83  C        -41.6020   23.3650  -16.4380 C.2   215  ILE215      0.2616
     84  O        -42.3540   22.7930  -17.2300 O.2   215  ILE215     -0.2715
     85  CB       -43.1490   24.0590  -14.5460 C.3   215  ILE215      0.0290
     86  CG1      -42.9600   25.5710  -14.7230 C.3   215  ILE215      0.0022
     87  CG2      -43.5550   23.7190  -13.1180 C.3   215  ILE215      0.0023
     88  CD1      -44.2460   26.3720  -14.6720 C.3   215  ILE215      0.0001
     89  N        -40.5310   24.0610  -16.8210 N.am  216  THR216     -0.1951
     90  CA       -40.1610   24.2700  -18.2240 C.3   216  THR216      0.1897
     91  C        -38.9230   23.4500  -18.5900 C.2   216  THR216      0.2313
     92  O        -37.9400   23.4470  -17.8490 O.2   216  THR216     -0.2863
     93  CB       -39.8830   25.7630  -18.4920 C.3   216  THR216      0.1794
     94  OG1      -41.0070   26.5380  -18.0620 O.3   216  THR216     -0.2208
     95  CG2      -39.6330   26.0300  -19.9710 C.3   216  THR216      0.0378
     96  N        -34.8060   23.0550  -17.4480 N.3   219  ASN219     -0.1240
     97  CA       -34.6920   23.5870  -16.0920 C.3   219  ASN219      0.1653
     98  C        -35.0930   22.5050  -15.0860 C.2   219  ASN219      0.2266
     99  O        -36.2500   22.4390  -14.6610 O.2   219  ASN219     -0.2867
    100  CB       -35.5830   24.8170  -15.9260 C.3   219  ASN219      0.1155
    101  CG       -35.2590   25.9150  -16.9170 C.2   219  ASN219      0.2627
    102  OD1      -34.3330   26.6970  -16.7150 O.2   219  ASN219     -0.2716
    103  ND2      -36.0320   25.9850  -17.9900 N.am  219  ASN219     -0.0877
@<TRIPOS>BOND
     1    95    93    1
     2    91    90    1
     3    91    92    2
     4    93    90    1
     5    93    94    1
     6    90    89    1
     7   103   101   am
     8    96    97    1
     9    84    83    2
    10   101   102    2
    11   101   100    1
    12    89    83   am
    13    83    82    1
    14    97   100    1
    15    97    98    1
    16    98    99    2
    17    82    85    1
    18    82    81    1
    19    86    88    1
    20    86    85    1
    21    85    87    1
    22    81    79   am
    23    52    50    1
    24    80    79    2
    25    51    50    1
    26    24    23    1
    27    79    78    1
    28    50    47    1
    29    35    33   ar
    30    35    36   ar
    31    62    61   ar
    32    62    60   ar
    33    33    31   ar
    34    61    59   ar
    35    37    36    1
    36    78    77    1
    37    36    34   ar
    38    23    25    1
    39    23    22    1
    40    29    28    2
    41    47    46    1
    42    47    48    1
    43     5     2    1
    44    60    58   ar
    45    59    58   ar
    46    46    40   am
    47    31    30    1
    48    31    32   ar
    49    30    27    1
    50     1     2    1
    51    58    57    1
    52    34    32   ar
    53    28    27    1
    54    28    38   am
    55    22    19    1
    56    48    49    2
    57    48    53   am
    58     2     3    1
    59    26    27    1
    60    26    20   am
    61    40    39    1
    62    40    41    2
    63    45    43   am
    64    53    54    1
    65    39    38    1
    66    39    42    1
    67    19    20    1
    68    19    18    1
    69     4     3    2
    70    13    11   ar
    71     3     6   am
    72    20    21    2
    73    12    11   ar
    74    57    54    1
    75    54    55    1
    76    11    10    1
    77    42    43    1
    78    43    44    2
    79     6     7    1
    80    14    15    1
    81     7    10    1
    82     7     8    1
    83    55    63   am
    84    55    56    2
    85    75    76   ar
    86    75    73   ar
    87    15    16    1
    88    76    74   ar
    89    63    64    1
    90    73    70   ar
    91     8     9    2
    92    74    72   ar
    93    16    17    2
    94    70    72   ar
    95    70    68   ar
    96    64    65    1
    97    64    67    1
    98    72    71   ar
    99    65    66    2
   100    68    67    1
   101    68    69   ar
   102    71    69   ar
