@<TRIPOS>MOLECULE
tmp/5avaC00.pdb
 101 98 0 0 0
SMALL
GASTEIGER

@<TRIPOS>ATOM
      1  N        -35.8200   23.7580   -9.1160 N.3    86  ASP86      -0.1239
      2  CA       -35.8760   25.1400   -8.6230 C.3    86  ASP86       0.1674
      3  C        -35.0810   25.3240   -7.3270 C.2    86  ASP86       0.2266
      4  O        -34.6390   26.4330   -7.0160 O.2    86  ASP86      -0.2867
      5  CB       -37.3260   25.5800   -8.4080 C.3    86  ASP86       0.1410
      6  CG       -37.9410   26.2040   -9.6470 C.2    86  ASP86       0.3668
      7  OD1      -37.5420   27.3300  -10.0260 O.co2  86  ASP86      -0.2456
      8  OD2      -38.8440   25.5710  -10.2330 O.co2  86  ASP86      -0.2456
      9  N        -48.2510   25.0370   -3.9350 N.3   101  ASP101     -0.1225
     10  CA       -47.9430   25.1050   -5.3600 C.3   101  ASP101      0.1805
     11  C        -46.4660   24.8250   -5.6360 C.2   101  ASP101      0.2598
     12  O        -45.6090   25.1220   -4.8050 O.2   101  ASP101     -0.2718
     13  CB       -48.3450   26.4650   -5.9260 C.3   101  ASP101      0.1424
     14  CG       -48.4770   26.4580   -7.4390 C.2   101  ASP101      0.3668
     15  OD1      -48.3870   25.3740   -8.0620 O.co2 101  ASP101     -0.2456
     16  OD2      -48.6780   27.5520   -8.0040 O.co2 101  ASP101     -0.2456
     17  N        -46.1870   24.2640   -6.8130 N.am  102  LYS102     -0.1966
     18  CA       -44.8350   23.8410   -7.1950 C.3   102  LYS102      0.1728
     19  C        -43.9960   24.9390   -7.8780 C.2   102  LYS102      0.2617
     20  O        -44.3250   26.1280   -7.8050 O.2   102  LYS102     -0.2715
     21  CB       -44.9020   22.5750   -8.0690 C.3   102  LYS102      0.0311
     22  CG       -45.7340   22.7080   -9.3410 C.3   102  LYS102      0.0038
     23  CD       -45.8630   21.3860  -10.0860 C.3   102  LYS102      0.0206
     24  CE       -47.0260   20.5570   -9.5670 C.3   102  LYS102      0.1093
     25  NZ       -47.2650   19.3960  -10.4630 N.3   102  LYS102     -0.1314
     26  N        -42.9040   24.5250   -8.5200 N.am  103  GLY103     -0.1940
     27  CA       -42.0380   25.4350   -9.2690 C.3   103  GLY103      0.2014
     28  C        -41.1300   26.2870   -8.3980 C.2   103  GLY103      0.2639
     29  O        -40.5230   25.7970   -7.4440 O.2   103  GLY103     -0.2714
     30  N        -41.0320   27.5680   -8.7370 N.am  104  GLY104     -0.1939
     31  CA       -40.2370   28.5170   -7.9640 C.3   104  GLY104      0.2014
     32  C        -40.8560   28.9070   -6.6300 C.2   104  GLY104      0.2638
     33  O        -40.3900   29.8390   -5.9730 O.2   104  GLY104     -0.2714
     34  N        -41.9100   28.2020   -6.2290 N.am  105  LEU105     -0.1977
     35  CA       -42.5400   28.4410   -4.9350 C.3   105  LEU105      0.1596
     36  C        -42.2250   27.3150   -3.9440 C.2   105  LEU105      0.2287
     37  O        -42.7790   27.2640   -2.8420 O.2   105  LEU105     -0.2864
     38  CB       -44.0480   28.6750   -5.0950 C.3   105  LEU105      0.0297
     39  CG       -44.4440   29.9220   -5.9090 C.3   105  LEU105      0.0022
     40  CD1      -45.9210   29.9020   -6.2900 C.3   105  LEU105      0.0001
     41  CD2      -44.0900   31.2150   -5.1840 C.3   105  LEU105      0.0001
     42  N        -46.4710   34.7390   -4.7820 N.3   112  TYR112     -0.1241
     43  CA       -45.2610   35.4460   -4.3580 C.3   112  TYR112      0.1605
     44  C        -45.5440   36.7060   -3.5410 C.2   112  TYR112      0.2264
     45  O        -44.7300   37.6350   -3.5020 O.2   112  TYR112     -0.2867
     46  CB       -44.3500   35.7460   -5.5550 C.3   112  TYR112      0.0534
     47  CG       -44.9470   36.6050   -6.6580 C.ar  112  TYR112     -0.0201
     48  CD1      -44.6960   37.9770   -6.7080 C.ar  112  TYR112     -0.0009
     49  CD2      -45.7320   36.0430   -7.6680 C.ar  112  TYR112     -0.0009
     50  CE1      -45.2250   38.7690   -7.7190 C.ar  112  TYR112      0.0417
     51  CE2      -46.2660   36.8260   -8.6830 C.ar  112  TYR112      0.0417
     52  CZ       -46.0090   38.1890   -8.7050 C.ar  112  TYR112      0.1957
     53  OH       -46.5270   38.9820   -9.7060 O.3   112  TYR112     -0.2866
     54  N        -32.7770   28.6080   -9.3440 N.3   128  LEU128     -0.1245
     55  CA       -33.3240   29.3300  -10.4880 C.3   128  LEU128      0.1561
     56  C        -33.8630   30.7140  -10.1320 C.2   128  LEU128      0.2260
     57  O        -34.6550   30.8820   -9.1920 O.2   128  LEU128     -0.2867
     58  CB       -34.3790   28.4960  -11.2250 C.3   128  LEU128      0.0270
     59  CG       -34.9210   29.1480  -12.5050 C.3   128  LEU128      0.0019
     60  CD1      -34.8560   28.2080  -13.7020 C.3   128  LEU128      0.0001
     61  CD2      -36.3240   29.7140  -12.3000 C.3   128  LEU128      0.0001
     62  N        -36.1060   33.7390  -10.3180 N.3   130  ASN130     -0.1240
     63  CA       -37.4760   34.1050  -10.6610 C.3   130  ASN130      0.1653
     64  C        -37.6170   35.6090  -10.7360 C.2   130  ASN130      0.2266
     65  O        -37.5070   36.2990   -9.7220 O.2   130  ASN130     -0.2867
     66  CB       -38.4590   33.5440   -9.6450 C.3   130  ASN130      0.1155
     67  CG       -38.4590   32.0340   -9.6120 C.2   130  ASN130      0.2627
     68  OD1      -37.9800   31.4230   -8.6540 O.2   130  ASN130     -0.2716
     69  ND2      -38.9890   31.4170  -10.6630 N.am  130  ASN130     -0.0877
     70  N        -39.7770   37.8090  -10.6620 N.3   132  HIS132     -0.1226
     71  CA       -40.7450   38.5690   -9.8640 C.3   132  HIS132      0.1752
     72  C        -40.3500   38.8470   -8.4030 C.2   132  HIS132      0.2596
     73  O        -40.8660   39.7860   -7.7970 O.2   132  HIS132     -0.2718
     74  CB       -42.1460   37.9320   -9.9560 C.3   132  HIS132      0.0759
     75  CG       -42.7640   38.0210  -11.3220 C.ar  132  HIS132      0.0818
     76  ND1      -42.9240   39.2140  -11.9960 N.ar  132  HIS132     -0.2268
     77  CD2      -43.2730   37.0630  -12.1350 C.ar  132  HIS132      0.1154
     78  CE1      -43.4960   38.9880  -13.1650 C.ar  132  HIS132      0.1986
     79  NE2      -43.7180   37.6900  -13.2750 N.ar  132  HIS132     -0.2212
     80  N        -39.4350   38.0500   -7.8480 N.am  133  TRP133     -0.1976
     81  CA       -39.0140   38.2260   -6.4500 C.3   133  TRP133      0.1640
     82  C        -37.5240   37.9770   -6.1720 C.2   133  TRP133      0.2290
     83  O        -36.9170   38.7070   -5.3910 O.2   133  TRP133     -0.2864
     84  CB       -39.8790   37.3790   -5.5060 C.3   133  TRP133      0.0576
     85  CG       -39.7280   35.8960   -5.6950 C.ar  133  TRP133      0.0006
     86  CD1      -38.8040   35.0810   -5.1040 C.ar  133  TRP133      0.0946
     87  CD2      -40.5300   35.0530   -6.5280 C.ar  133  TRP133      0.0152
     88  NE1      -38.9770   33.7860   -5.5210 N.ar  133  TRP133     -0.2442
     89  CE2      -40.0310   33.7400   -6.3950 C.ar  133  TRP133      0.0810
     90  CE3      -41.6220   35.2800   -7.3770 C.ar  133  TRP133      0.0012
     91  CZ2      -40.5920   32.6560   -7.0720 C.ar  133  TRP133      0.0191
     92  CZ3      -42.1780   34.1990   -8.0530 C.ar  133  TRP133      0.0001
     93  CH2      -41.6580   32.9070   -7.9000 C.ar  133  TRP133      0.0015
     94  N        -40.7240   23.7060  -14.1050 N.3   215  ILE215     -0.1245
     95  CA       -41.8640   23.2900  -14.9250 C.3   215  ILE215      0.1561
     96  C        -41.6020   23.3650  -16.4380 C.2   215  ILE215      0.2260
     97  O        -42.3540   22.7930  -17.2300 O.2   215  ILE215     -0.2867
     98  CB       -43.1490   24.0590  -14.5460 C.3   215  ILE215      0.0252
     99  CG1      -42.9600   25.5710  -14.7230 C.3   215  ILE215      0.0019
    100  CG2      -43.5550   23.7190  -13.1180 C.3   215  ILE215      0.0019
    101  CD1      -44.2460   26.3720  -14.6720 C.3   215  ILE215      0.0001
@<TRIPOS>BOND
     1    97    96    2
     2    96    95    1
     3    95    98    1
     4    95    94    1
     5    99   101    1
     6    99    98    1
     7    98   100    1
     8    60    59    1
     9    79    78   ar
    10    79    77   ar
    11    78    76   ar
    12    59    61    1
    13    59    58    1
    14    77    75   ar
    15    76    75   ar
    16    75    74    1
    17    58    55    1
    18    64    63    1
    19    64    65    2
    20    69    67   am
    21    70    71    1
    22    63    62    1
    23    63    66    1
    24    55    56    1
    25    55    54    1
    26    25    24    1
    27     8     6   ar
    28    56    57    2
    29    23    24    1
    30    23    22    1
    31     7     6   ar
    32    74    71    1
    33    71    72    1
    34    53    52    1
    35     6     5    1
    36    66    67    1
    37    67    68    2
    38    22    21    1
    39    27    26    1
    40    27    28    1
    41     1     2    1
    42    30    28   am
    43    30    31    1
    44    52    51   ar
    45    52    50   ar
    46    51    49   ar
    47     2     5    1
    48     2     3    1
    49    26    19   am
    50    72    80   am
    51    72    73    2
    52    28    29    2
    53    21    18    1
    54    15    14   ar
    55    92    93   ar
    56    92    90   ar
    57    16    14   ar
    58    31    32    1
    59    93    91   ar
    60    19    20    2
    61    19    18    1
    62    80    81    1
    63    50    48   ar
    64    49    47   ar
    65    14    13    1
    66    90    87   ar
    67     3     4    2
    68    18    17    1
    69    91    89   ar
    70    17    11   am
    71    48    47   ar
    72    47    46    1
    73    32    34   am
    74    32    33    2
    75    87    89   ar
    76    87    85   ar
    77    81    82    1
    78    81    84    1
    79    89    88   ar
    80    40    39    1
    81    34    35    1
    82    82    83    2
    83    13    10    1
    84    39    41    1
    85    39    38    1
    86    85    84    1
    87    85    86   ar
    88    11    10    1
    89    11    12    2
    90    46    43    1
    91    88    86   ar
    92    10     9    1
    93    38    35    1
    94    35    36    1
    95    42    43    1
    96    43    44    1
    97    36    37    2
    98    44    45    2
