@<TRIPOS>MOLECULE
tmp/5aveA00.pdb
 114 112 0 0 0
SMALL
GASTEIGER

@<TRIPOS>ATOM
      1  N        -12.2050  -28.4930    3.8820 N.3    67  LEU67      -0.1245
      2  CA       -12.5540  -27.0830    3.8400 C.3    67  LEU67       0.1561
      3  C        -12.5210  -26.5630    5.2650 C.2    67  LEU67       0.2260
      4  O        -12.8690  -27.2870    6.1900 O.2    67  LEU67      -0.2867
      5  CB       -13.9890  -26.9370    3.2950 C.3    67  LEU67       0.0270
      6  CG       -14.6230  -25.5390    3.2610 C.3    67  LEU67       0.0019
      7  CD1      -13.8970  -24.6240    2.2730 C.3    67  LEU67       0.0001
      8  CD2      -16.1210  -25.6350    2.9240 C.3    67  LEU67       0.0001
      9  N        -15.6770  -22.1010   -3.0320 N.3    85  TRP85      -0.1241
     10  CA       -16.7810  -22.6220   -2.2400 C.3    85  TRP85       0.1605
     11  C        -17.9030  -21.5940   -2.1200 C.2    85  TRP85       0.2264
     12  O        -17.6700  -20.4310   -1.7910 O.2    85  TRP85      -0.2867
     13  CB       -16.2790  -23.0350   -0.8570 C.3    85  TRP85       0.0550
     14  CG       -17.3510  -23.4210    0.1410 C.ar   85  TRP85       0.0003
     15  CD1      -18.0070  -24.6040    0.2220 C.ar   85  TRP85       0.0946
     16  CD2      -17.8220  -22.6250    1.2280 C.ar   85  TRP85       0.0152
     17  NE1      -18.8820  -24.5940    1.2870 N.ar   85  TRP85      -0.2442
     18  CE2      -18.7830  -23.3850    1.9210 C.ar   85  TRP85       0.0810
     19  CE3      -17.5140  -21.3390    1.6900 C.ar   85  TRP85       0.0012
     20  CZ2      -19.4440  -22.9060    3.0510 C.ar   85  TRP85       0.0191
     21  CZ3      -18.1760  -20.8620    2.8110 C.ar   85  TRP85       0.0001
     22  CH2      -19.1350  -21.6450    3.4750 C.ar   85  TRP85       0.0015
     23  N        -26.9240  -18.6610    3.3300 N.3    91  TRP91      -0.1241
     24  CA       -26.1600  -19.4430    4.2960 C.3    91  TRP91       0.1605
     25  C        -25.7670  -18.5740    5.4840 C.2    91  TRP91       0.2264
     26  O        -25.1770  -17.5050    5.3170 O.2    91  TRP91      -0.2867
     27  CB       -24.9160  -20.0120    3.6340 C.3    91  TRP91       0.0550
     28  CG       -24.1270  -21.0150    4.4670 C.ar   91  TRP91       0.0003
     29  CD1      -24.4050  -22.3400    4.6410 C.ar   91  TRP91       0.0946
     30  CD2      -22.9050  -20.7650    5.1700 C.ar   91  TRP91       0.0152
     31  NE1      -23.4340  -22.9300    5.4310 N.ar   91  TRP91      -0.2442
     32  CE2      -22.5040  -21.9800    5.7670 C.ar   91  TRP91       0.0810
     33  CE3      -22.1170  -19.6250    5.3670 C.ar   91  TRP91       0.0012
     34  CZ2      -21.3430  -22.0890    6.5410 C.ar   91  TRP91       0.0191
     35  CZ3      -20.9690  -19.7340    6.1360 C.ar   91  TRP91       0.0001
     36  CH2      -20.5970  -20.9550    6.7180 C.ar   91  TRP91       0.0015
     37  N        -25.6220  -23.4010   11.7720 N.3    96  ARG96      -0.1245
     38  CA       -25.1000  -24.7040   11.3420 C.3    96  ARG96       0.1563
     39  C        -24.6790  -25.5740   12.5240 C.2    96  ARG96       0.2260
     40  O        -24.2920  -25.0580   13.5680 O.2    96  ARG96      -0.2867
     41  CB       -23.9130  -24.4980   10.3960 C.3    96  ARG96       0.0307
     42  CG       -24.2610  -23.6640    9.1630 C.3    96  ARG96       0.0489
     43  CD       -25.2870  -24.3790    8.3010 C.3    96  ARG96       0.2205
     44  NE       -24.7320  -25.5980    7.7060 N.pl3  96  ARG96      -0.0865
     45  CZ       -25.4050  -26.7310    7.5070 C.cat  96  ARG96       0.5346
     46  NH1      -26.6770  -26.8430    7.8650 N.pl3  96  ARG96       0.1354
     47  NH2      -24.7960  -27.7670    6.9440 N.pl3  96  ARG96       0.1354
     48  N        -22.0810  -27.5030   13.1440 N.3    98  TRP98      -0.1241
     49  CA       -20.7080  -27.3180   13.6060 C.3    98  TRP98       0.1605
     50  C        -20.5870  -26.0780   14.4880 C.2    98  TRP98       0.2264
     51  O        -19.8530  -26.0720   15.4740 O.2    98  TRP98      -0.2867
     52  CB       -19.7350  -27.2230   12.4170 C.3    98  TRP98       0.0550
     53  CG       -20.0770  -26.1680   11.3960 C.ar   98  TRP98       0.0003
     54  CD1      -20.8070  -26.3400   10.2570 C.ar   98  TRP98       0.0946
     55  CD2      -19.6700  -24.7910   11.4100 C.ar   98  TRP98       0.0152
     56  NE1      -20.8940  -25.1530    9.5690 N.ar   98  TRP98      -0.2442
     57  CE2      -20.2080  -24.1870   10.2540 C.ar   98  TRP98       0.0810
     58  CE3      -18.8990  -24.0110   12.2840 C.ar   98  TRP98       0.0012
     59  CZ2      -20.0090  -22.8360    9.9490 C.ar   98  TRP98       0.0191
     60  CZ3      -18.7000  -22.6710   11.9860 C.ar   98  TRP98       0.0001
     61  CH2      -19.2590  -22.0920   10.8240 C.ar   98  TRP98       0.0015
     62  N        -23.5610  -34.8890    9.2160 N.3   114  TYR114     -0.1241
     63  CA       -24.5830  -33.9730    8.7210 C.3   114  TYR114      0.1605
     64  C        -24.3170  -33.6790    7.2570 C.2   114  TYR114      0.2264
     65  O        -23.2490  -33.9940    6.7370 O.2   114  TYR114     -0.2867
     66  CB       -24.6200  -32.6730    9.5480 C.3   114  TYR114      0.0534
     67  CG       -23.4160  -31.7730    9.3600 C.ar  114  TYR114     -0.0201
     68  CD1      -22.2410  -31.9870   10.0830 C.ar  114  TYR114     -0.0009
     69  CD2      -23.4550  -30.7030    8.4720 C.ar  114  TYR114     -0.0009
     70  CE1      -21.1370  -31.1670    9.9130 C.ar  114  TYR114      0.0417
     71  CE2      -22.3600  -29.8790    8.2940 C.ar  114  TYR114      0.0417
     72  CZ       -21.2030  -30.1160    9.0260 C.ar  114  TYR114      0.1957
     73  OH       -20.1150  -29.3000    8.8540 O.3   114  TYR114     -0.2866
     74  N        -23.4340  -31.4680    4.1030 N.3   116  ASP116     -0.1225
     75  CA       -22.7090  -30.2490    3.7930 C.3   116  ASP116      0.1805
     76  C        -23.6180  -29.2720    3.0760 C.2   116  ASP116      0.2598
     77  O        -24.4280  -29.6830    2.2400 O.2   116  ASP116     -0.2718
     78  CB       -21.4960  -30.5440    2.9160 C.3   116  ASP116      0.1424
     79  CG       -20.6930  -29.3130    2.6390 C.2   116  ASP116      0.3668
     80  OD1      -19.9970  -28.8470    3.5720 O.co2 116  ASP116     -0.2456
     81  OD2      -20.7700  -28.7850    1.5060 O.co2 116  ASP116     -0.2456
     82  N        -23.4730  -27.9840    3.4000 N.am  117  SER117     -0.1952
     83  CA       -24.2930  -26.9300    2.8000 C.3   117  SER117      0.1924
     84  C        -24.1340  -26.7740    1.2890 C.2   117  SER117      0.2314
     85  O        -25.1030  -26.4560    0.5920 O.2   117  SER117     -0.2863
     86  CB       -23.9900  -25.5910    3.4720 C.3   117  SER117      0.2116
     87  OG       -24.5210  -25.5820    4.7780 O.3   117  SER117     -0.2180
     88  N        -20.9100  -35.4620    5.9570 N.3   123  LEU123     -0.1245
     89  CA       -19.5580  -35.3750    6.5070 C.3   123  LEU123      0.1561
     90  C        -19.6210  -35.1430    8.0210 C.2   123  LEU123      0.2260
     91  O        -20.7090  -35.1090    8.6050 O.2   123  LEU123     -0.2867
     92  CB       -18.7270  -34.2900    5.7910 C.3   123  LEU123      0.0270
     93  CG       -19.3340  -32.9290    5.4300 C.3   123  LEU123      0.0019
     94  CD1      -19.9280  -32.2480    6.6260 C.3   123  LEU123      0.0001
     95  CD2      -18.3230  -32.0200    4.7490 C.3   123  LEU123      0.0001
     96  N        -15.0760  -24.3440   11.5210 N.3   143  PHE143     -0.1241
     97  CA       -15.2120  -25.7460   11.1450 C.3   143  PHE143      0.1605
     98  C        -14.0220  -26.1970   10.3130 C.2   143  PHE143      0.2264
     99  O        -13.4770  -25.4160    9.5280 O.2   143  PHE143     -0.2867
    100  CB       -16.5240  -26.0050   10.3820 C.3   143  PHE143      0.0534
    101  CG       -16.5830  -25.3830    9.0070 C.ar  143  PHE143     -0.0203
    102  CD1      -16.1280  -26.0810    7.8960 C.ar  143  PHE143     -0.0042
    103  CD2      -17.1260  -24.1190    8.8200 C.ar  143  PHE143     -0.0042
    104  CE1      -16.1790  -25.5270    6.6360 C.ar  143  PHE143     -0.0003
    105  CE2      -17.1950  -23.5550    7.5490 C.ar  143  PHE143     -0.0003
    106  CZ       -16.7120  -24.2620    6.4550 C.ar  143  PHE143     -0.0000
    107  N        -13.5890  -29.4200    7.9610 N.3   145  ASP145     -0.1239
    108  CA       -14.4240  -30.4980    7.4370 C.3   145  ASP145      0.1674
    109  C        -13.6150  -31.7570    7.1660 C.2   145  ASP145      0.2266
    110  O        -12.5040  -31.6960    6.6480 O.2   145  ASP145     -0.2867
    111  CB       -15.1160  -30.0650    6.1460 C.3   145  ASP145      0.1410
    112  CG       -16.3670  -29.2300    6.3910 C.2   145  ASP145      0.3668
    113  OD1      -16.8610  -29.1800    7.5390 O.co2 145  ASP145     -0.2456
    114  OD2      -16.8640  -28.6420    5.4060 O.co2 145  ASP145     -0.2456
@<TRIPOS>BOND
     1     9    10    1
     2    10    11    1
     3    10    13    1
     4    11    12    2
     5    13    14    1
     6    14    15   ar
     7    14    16   ar
     8    15    17   ar
     9    85    84    2
    10    16    19   ar
    11    16    18   ar
    12    17    18   ar
    13    84    83    1
    14    81    79   ar
    15    19    21   ar
    16    18    20   ar
    17    77    76    2
    18     7     6    1
    19    79    78    1
    20    79    80   ar
    21    83    82    1
    22    83    86    1
    23    21    22   ar
    24    78    75    1
    25     8     6    1
    26    20    22   ar
    27    76    82   am
    28    76    75    1
    29     6     5    1
    30     5     2    1
    31    23    24    1
    32    86    87    1
    33    27    24    1
    34    27    28    1
    35    75    74    1
    36     2     1    1
    37     2     3    1
    38    24    25    1
    39    28    29   ar
    40    28    30   ar
    41    29    31   ar
    42    95    93    1
    43    30    33   ar
    44    30    32   ar
    45     3     4    2
    46    26    25    2
    47    33    35   ar
    48   114   112   ar
    49    93    92    1
    50    93    94    1
    51    31    32   ar
    52    32    34   ar
    53    92    89    1
    54    88    89    1
    55    35    36   ar
    56   111   112    1
    57   111   108    1
    58   112   113   ar
    59   106   104   ar
    60   106   105   ar
    61    89    90    1
    62    34    36   ar
    63   104   102   ar
    64   110   109    2
    65    65    64    2
    66    47    45    1
    67   109   108    1
    68    64    63    1
    69   108   107    1
    70    45    44    2
    71    45    46    1
    72   105   103   ar
    73    44    43    1
    74   102   101   ar
    75    90    91    2
    76    71    69   ar
    77    71    72   ar
    78    43    42    1
    79    69    67   ar
    80    63    62    1
    81    63    66    1
    82   103   101   ar
    83    73    72    1
    84   101   100    1
    85    72    70   ar
    86    42    41    1
    87    67    66    1
    88    67    68   ar
    89    99    98    2
    90    56    57   ar
    91    56    54   ar
    92    70    68   ar
    93    59    57   ar
    94    59    61   ar
    95    57    55   ar
    96    54    53   ar
    97    98    97    1
    98   100    97    1
    99    41    38    1
   100    61    60   ar
   101    97    96    1
   102    38    37    1
   103    38    39    1
   104    53    55   ar
   105    53    52    1
   106    55    58   ar
   107    60    58   ar
   108    52    49    1
   109    39    40    2
   110    48    49    1
   111    49    50    1
   112    50    51    2
