@<TRIPOS>MOLECULE
tmp/5avfB00.pdb
 121 119 0 0 0
SMALL
GASTEIGER

@<TRIPOS>ATOM
      1  N         -0.4650  132.7590  169.2470 N.3    71  LEU71      -0.1245
      2  CA        -0.4420  133.8920  170.1390 C.3    71  LEU71       0.1561
      3  C          0.9690  134.0130  170.6690 C.2    71  LEU71       0.2260
      4  O          1.6730  133.0070  170.8110 O.2    71  LEU71      -0.2867
      5  CB        -1.4200  133.6610  171.3060 C.3    71  LEU71       0.0270
      6  CG        -1.5300  134.7110  172.4080 C.3    71  LEU71       0.0019
      7  CD1       -2.2350  135.9490  171.8940 C.3    71  LEU71       0.0001
      8  CD2       -2.2750  134.1260  173.6530 C.3    71  LEU71       0.0001
      9  N         -7.1180  139.1750  173.5060 N.3    89  TRP89      -0.1241
     10  CA        -6.8250  138.0100  174.3470 C.3    89  TRP89       0.1605
     11  C         -6.9490  138.3740  175.8160 C.2    89  TRP89       0.2264
     12  O         -6.4280  139.3980  176.2590 O.2    89  TRP89      -0.2867
     13  CB        -5.4210  137.4750  174.0650 C.3    89  TRP89       0.0550
     14  CG        -4.9230  136.4190  175.0370 C.ar   89  TRP89       0.0003
     15  CD1       -5.3600  135.1360  175.1550 C.ar   89  TRP89       0.0946
     16  CD2       -3.8450  136.5650  175.9650 C.ar   89  TRP89       0.0152
     17  NE1       -4.6290  134.4680  176.1310 N.ar   89  TRP89      -0.2442
     18  CE2       -3.6990  135.3320  176.6430 C.ar   89  TRP89       0.0810
     19  CE3       -3.0010  137.6260  176.3040 C.ar   89  TRP89       0.0012
     20  CZ2       -2.7380  135.1310  177.6260 C.ar   89  TRP89       0.0191
     21  CZ3       -2.0450  137.4250  177.2870 C.ar   89  TRP89       0.0001
     22  CH2       -1.9200  136.1820  177.9350 C.ar   89  TRP89       0.0015
     23  N         -6.7290  136.2030  179.4970 N.3    91  PRO91      -0.2116
     24  CA        -6.5110  134.9240  180.1770 C.3    91  PRO91       0.1372
     25  C         -7.2710  134.8290  181.5010 C.2    91  PRO91       0.2244
     26  O         -7.2600  133.7750  182.1390 O.2    91  PRO91      -0.2868
     27  CB        -5.0030  134.9290  180.4170 C.3    91  PRO91       0.0268
     28  CG        -4.6840  136.3550  180.6030 C.3    91  PRO91       0.0207
     29  CD        -5.5680  137.0960  179.6340 C.3    91  PRO91       0.0892
     30  N         -4.8170  136.0210  186.3840 N.3    95  TRP95      -0.1241
     31  CA        -3.7320  135.3470  185.6740 C.3    95  TRP95       0.1605
     32  C         -2.3930  135.9810  186.0140 C.2    95  TRP95       0.2264
     33  O         -2.2590  137.2010  186.0100 O.2    95  TRP95      -0.2867
     34  CB        -3.9910  135.4290  184.1730 C.3    95  TRP95       0.0550
     35  CG        -3.0590  134.6670  183.2880 C.ar   95  TRP95       0.0003
     36  CD1       -3.1170  133.3400  182.9900 C.ar   95  TRP95       0.0946
     37  CD2       -1.9610  135.2020  182.5250 C.ar   95  TRP95       0.0152
     38  NE1       -2.1140  133.0040  182.1030 N.ar   95  TRP95      -0.2442
     39  CE2       -1.3910  134.1290  181.8050 C.ar   95  TRP95       0.0810
     40  CE3       -1.4040  136.4770  182.3880 C.ar   95  TRP95       0.0012
     41  CZ2       -0.2920  134.2950  180.9530 C.ar   95  TRP95       0.0191
     42  CZ3       -0.3000  136.6370  181.5520 C.ar   95  TRP95       0.0001
     43  CH2        0.2320  135.5550  180.8450 C.ar   95  TRP95       0.0015
     44  N          2.9120  130.0270  185.3820 N.3   100  ARG100     -0.1245
     45  CA         2.5310  129.2230  184.2340 C.3   100  ARG100      0.1563
     46  C          3.7250  128.3630  183.7970 C.2   100  ARG100      0.2260
     47  O          4.8740  128.7250  184.0510 O.2   100  ARG100     -0.2867
     48  CB         2.0510  130.1410  183.0970 C.3   100  ARG100      0.0307
     49  CG         0.8120  130.9960  183.4660 C.3   100  ARG100      0.0489
     50  CD        -0.4190  130.1270  183.7450 C.3   100  ARG100      0.2205
     51  NE        -0.9130  129.4600  182.5310 N.pl3 100  ARG100     -0.0865
     52  CZ        -1.3780  128.2130  182.4900 C.cat 100  ARG100      0.5346
     53  NH1       -1.4060  127.4720  183.5870 N.pl3 100  ARG100      0.1354
     54  NH2       -1.8170  127.7010  181.3510 N.pl3 100  ARG100      0.1354
     55  N          4.9940  127.5150  180.7160 N.3   102  TRP102     -0.1241
     56  CA         5.8700  128.0330  179.6650 C.3   102  TRP102      0.1605
     57  C          6.9040  128.9410  180.2930 C.2   102  TRP102      0.2264
     58  O          8.0770  128.9280  179.9310 O.2   102  TRP102     -0.2867
     59  CB         5.0790  128.7930  178.5840 C.3   102  TRP102      0.0550
     60  CG         4.1600  129.8600  179.1240 C.ar  102  TRP102      0.0003
     61  CD1        2.8560  129.6940  179.5090 C.ar  102  TRP102      0.0946
     62  CD2        4.4640  131.2490  179.3210 C.ar  102  TRP102      0.0152
     63  NE1        2.3370  130.8970  179.9380 N.ar  102  TRP102     -0.2442
     64  CE2        3.3070  131.8580  179.8480 C.ar  102  TRP102      0.0810
     65  CE3        5.6090  132.0380  179.1170 C.ar  102  TRP102      0.0012
     66  CZ2        3.2560  133.2050  180.1650 C.ar  102  TRP102      0.0191
     67  CZ3        5.5520  133.3740  179.4350 C.ar  102  TRP102      0.0001
     68  CH2        4.3850  133.9480  179.9480 C.ar  102  TRP102      0.0015
     69  N         -0.2000  121.5460  177.6460 N.3   118  TYR118     -0.1241
     70  CA        -0.8690  122.1350  178.8000 C.3   118  TYR118      0.1605
     71  C         -2.1220  122.8820  178.3760 C.2   118  TYR118      0.2264
     72  O         -2.3290  123.1200  177.1930 O.2   118  TYR118     -0.2867
     73  CB         0.0580  123.0750  179.5550 C.3   118  TYR118      0.0534
     74  CG         0.3580  124.3890  178.8570 C.ar  118  TYR118     -0.0201
     75  CD1        1.3760  124.4770  177.9060 C.ar  118  TYR118     -0.0009
     76  CD2       -0.3490  125.5520  179.1770 C.ar  118  TYR118     -0.0009
     77  CE1        1.6720  125.6790  177.2770 C.ar  118  TYR118      0.0417
     78  CE2       -0.0510  126.7700  178.5620 C.ar  118  TYR118      0.0417
     79  CZ         0.9610  126.8200  177.6120 C.ar  118  TYR118      0.1957
     80  OH         1.2610  128.0090  176.9780 O.3   118  TYR118     -0.2866
     81  N         -4.4580  125.9410  177.8180 N.3   120  ASP120     -0.1225
     82  CA        -4.4700  127.3780  177.5990 C.3   120  ASP120      0.1805
     83  C         -5.4130  128.0760  178.5830 C.2   120  ASP120      0.2598
     84  O         -6.5700  127.6820  178.7420 O.2   120  ASP120     -0.2718
     85  CB        -4.8990  127.6560  176.1540 C.3   120  ASP120      0.1424
     86  CG        -4.9830  129.1370  175.8400 C.2   120  ASP120      0.3668
     87  OD1       -3.9540  129.8410  175.9680 O.co2 120  ASP120     -0.2456
     88  OD2       -6.0880  129.5910  175.4750 O.co2 120  ASP120     -0.2456
     89  N         -4.9200  129.1160  179.2420 N.am  121  SER121     -0.1952
     90  CA        -5.6950  129.7760  180.2840 C.3   121  SER121      0.1924
     91  C         -6.9830  130.4090  179.7530 C.2   121  SER121      0.2314
     92  O         -8.0400  130.2970  180.3710 O.2   121  SER121     -0.2863
     93  CB        -4.8370  130.8120  181.0200 C.3   121  SER121      0.2116
     94  OG        -3.6190  130.2170  181.4630 O.3   121  SER121     -0.2180
     95  N         -2.4340  122.8410  174.1350 N.3   127  LEU127     -0.1245
     96  CA        -1.4340  123.2750  173.1760 C.3   127  LEU127      0.1561
     97  C         -0.0500  123.0840  173.7580 C.2   127  LEU127      0.2260
     98  O          0.0910  122.6190  174.8890 O.2   127  LEU127     -0.2867
     99  CB        -1.6700  124.7410  172.7600 C.3   127  LEU127      0.0270
    100  CG        -2.0740  125.7570  173.8340 C.3   127  LEU127      0.0019
    101  CD1       -0.9590  125.8990  174.8510 C.3   127  LEU127      0.0001
    102  CD2       -2.4180  127.1300  173.1970 C.3   127  LEU127      0.0001
    103  N          6.2060  133.3580  175.4760 N.3   147  PHE147     -0.1241
    104  CA         5.6560  132.1730  174.8400 C.3   147  PHE147      0.1605
    105  C          5.2450  132.4460  173.4070 C.2   147  PHE147      0.2264
    106  O          4.7790  133.5370  173.0780 O.2   147  PHE147     -0.2867
    107  CB         4.4540  131.6190  175.6210 C.3   147  PHE147      0.0534
    108  CG         3.2460  132.5190  175.6060 C.ar  147  PHE147     -0.0203
    109  CD1        2.3530  132.4810  174.5390 C.ar  147  PHE147     -0.0042
    110  CD2        2.9950  133.3780  176.6630 C.ar  147  PHE147     -0.0042
    111  CE1        1.2270  133.3030  174.5220 C.ar  147  PHE147     -0.0003
    112  CE2        1.8770  134.2250  176.6560 C.ar  147  PHE147     -0.0003
    113  CZ         0.9830  134.1710  175.5820 C.ar  147  PHE147     -0.0000
    114  N          2.7800  130.3880  170.9390 N.3   149  ASP149     -0.1239
    115  CA         1.8420  129.2560  171.0030 C.3   149  ASP149      0.1674
    116  C          1.7890  128.4280  169.7270 C.2   149  ASP149      0.2266
    117  O          1.6800  128.9720  168.6250 O.2   149  ASP149     -0.2867
    118  CB         0.4210  129.7350  171.3560 C.3   149  ASP149      0.1410
    119  CG         0.2110  129.8830  172.8500 C.2   149  ASP149      0.3668
    120  OD1        1.1380  129.5170  173.6200 O.co2 149  ASP149     -0.2456
    121  OD2       -0.8890  130.3410  173.2640 O.co2 149  ASP149     -0.2456
@<TRIPOS>BOND
     1   117   116    2
     2     1     2    1
     3   116   115    1
     4     2     3    1
     5     2     5    1
     6     3     4    2
     7   114   115    1
     8   115   118    1
     9     5     6    1
    10   118   119    1
    11     7     6    1
    12     6     8    1
    13    99    96    1
    14    99   100    1
    15   119   121   ar
    16   119   120   ar
    17   106   105    2
    18    96    97    1
    19    96    95    1
    20   102   100    1
    21   105   104    1
    22     9    10    1
    23    97    98    2
    24   100   101    1
    25    13    10    1
    26    13    14    1
    27    10    11    1
    28   111   109   ar
    29   111   113   ar
    30   109   108   ar
    31   104   103    1
    32   104   107    1
    33    14    15   ar
    34    14    16   ar
    35    15    17   ar
    36    88    86   ar
    37   113   112   ar
    38   108   107    1
    39   108   110   ar
    40    11    12    2
    41    86    87   ar
    42    86    85    1
    43    16    19   ar
    44    16    18   ar
    45    17    18   ar
    46    85    82    1
    47    19    21   ar
    48    18    20   ar
    49   112   110   ar
    50    80    79    1
    51    72    71    2
    52    77    79   ar
    53    77    75   ar
    54    21    22   ar
    55    82    81    1
    56    82    83    1
    57    79    78   ar
    58    20    22   ar
    59    69    70    1
    60    75    74   ar
    61    71    70    1
    62    78    76   ar
    63    83    84    2
    64    83    89   am
    65    59    60    1
    66    59    56    1
    67    70    73    1
    68    74    76   ar
    69    74    73    1
    70    65    62   ar
    71    65    67   ar
    72    60    62   ar
    73    60    61   ar
    74    89    90    1
    75    62    64   ar
    76    67    68   ar
    77    23    29    1
    78    23    24    1
    79    61    63   ar
    80    29    28    1
    81    56    57    1
    82    56    55    1
    83    91    90    1
    84    91    92    2
    85    64    63   ar
    86    64    66   ar
    87    58    57    2
    88    68    66   ar
    89    24    27    1
    90    24    25    1
    91    90    93    1
    92    27    28    1
    93    43    41   ar
    94    43    42   ar
    95    41    39   ar
    96    93    94    1
    97    54    52    1
    98    25    26    2
    99    42    40   ar
   100    39    38   ar
   101    39    37   ar
   102    38    36   ar
   103    40    37   ar
   104    52    51    2
   105    52    53    1
   106    37    35   ar
   107    51    50    1
   108    36    35   ar
   109    48    49    1
   110    48    45    1
   111    35    34    1
   112    49    50    1
   113    46    47    2
   114    46    45    1
   115    34    31    1
   116    45    44    1
   117    31    32    1
   118    31    30    1
   119    33    32    2
