@<TRIPOS>MOLECULE
tmp/5aviA00.pdb
 227 216 0 0 0
SMALL
GASTEIGER

@<TRIPOS>ATOM
      1  N        129.6560   23.5920   60.7440 N.3    36  PHE36      -0.1241
      2  CA       130.3030   24.1310   61.9380 C.3    36  PHE36       0.1605
      3  C        130.0780   23.2090   63.1390 C.2    36  PHE36       0.2264
      4  O        130.9750   23.0590   63.9620 O.2    36  PHE36      -0.2867
      5  CB       129.8080   25.5580   62.2330 C.3    36  PHE36       0.0534
      6  CG       130.5490   26.2530   63.3520 C.ar   36  PHE36      -0.0203
      7  CD1      131.8360   26.7440   63.1590 C.ar   36  PHE36      -0.0042
      8  CD2      129.9480   26.4390   64.5980 C.ar   36  PHE36      -0.0042
      9  CE1      132.5180   27.3860   64.1850 C.ar   36  PHE36      -0.0003
     10  CE2      130.6220   27.0800   65.6270 C.ar   36  PHE36      -0.0003
     11  CZ       131.9080   27.5560   65.4200 C.ar   36  PHE36      -0.0000
     12  N        132.3420   19.9550   62.6780 N.3    39  PHE39      -0.1227
     13  CA       133.7540   20.2580   62.8550 C.3    39  PHE39       0.1736
     14  C        134.0920   20.4580   64.3240 C.2    39  PHE39       0.2596
     15  O        135.1030   19.9510   64.7950 O.2    39  PHE39      -0.2718
     16  CB       134.1230   21.5010   62.0400 C.3    39  PHE39       0.0547
     17  CG       135.4100   21.3690   61.2760 C.ar   39  PHE39      -0.0202
     18  CD1      135.6290   20.2820   60.4320 C.ar   39  PHE39      -0.0042
     19  CD2      136.3890   22.3510   61.3660 C.ar   39  PHE39      -0.0042
     20  CE1      136.8140   20.1650   59.7180 C.ar   39  PHE39      -0.0003
     21  CE2      137.5790   22.2360   60.6600 C.ar   39  PHE39      -0.0003
     22  CZ       137.7920   21.1420   59.8340 C.ar   39  PHE39      -0.0000
     23  N        133.2120   21.1480   65.0450 N.am   40  THR40      -0.1953
     24  CA       133.3860   21.3820   66.4810 C.3    40  THR40       0.1897
     25  C        133.1350   20.1540   67.3560 C.2    40  THR40       0.2313
     26  O        133.7010   20.0500   68.4410 O.2    40  THR40      -0.2863
     27  CB       132.5140   22.5460   66.9890 C.3    40  THR40       0.1794
     28  OG1      131.1790   22.4060   66.4890 O.3    40  THR40      -0.2208
     29  CG2      133.0900   23.8860   66.5520 C.3    40  THR40       0.0378
     30  N        133.8690   17.0910   66.2470 N.3    42  LEU42      -0.1231
     31  CA       135.0990   16.3440   65.9720 C.3    42  LEU42       0.1693
     32  C        136.2250   16.7960   66.8970 C.2    42  LEU42       0.2591
     33  O        137.0760   15.9960   67.2860 O.2    42  LEU42      -0.2718
     34  CB       135.5340   16.5240   64.5150 C.3    42  LEU42       0.0284
     35  CG       134.9730   15.6070   63.4260 C.3    42  LEU42       0.0019
     36  CD1      135.4280   16.1060   62.0640 C.3    42  LEU42       0.0001
     37  CD2      135.3840   14.1560   63.6370 C.3    42  LEU42       0.0001
     38  N        136.2150   18.0850   67.2320 N.am   43  ALA43      -0.1980
     39  CA       137.1090   18.6560   68.2270 C.3    43  ALA43       0.1597
     40  C        136.7970   18.2180   69.6550 C.2    43  ALA43       0.2287
     41  O        137.7260   18.0150   70.4290 O.2    43  ALA43      -0.2864
     42  CB       137.1180   20.1720   68.1130 C.3    43  ALA43       0.0319
     43  N        135.2730   15.3150   70.5390 N.3    45  VAL45      -0.1231
     44  CA       135.7350   13.9090   70.4700 C.3    45  VAL45       0.1692
     45  C        137.2570   13.7950   70.6700 C.2    45  VAL45       0.2592
     46  O        137.7200   12.9700   71.4740 O.2    45  VAL45      -0.2718
     47  CB       135.2290   13.2350   69.1480 C.3    45  VAL45       0.0266
     48  CG1      136.0840   12.0590   68.6810 C.3    45  VAL45       0.0020
     49  CG2      133.7800   12.7910   69.2980 C.3    45  VAL45       0.0020
     50  N        137.9910   14.7000   70.0130 N.am   46  SER46      -0.1952
     51  CA       139.4470   14.8140   70.1120 C.3    46  SER46       0.1924
     52  C        139.9780   15.1750   71.4960 C.2    46  SER46       0.2314
     53  O        140.9010   14.5090   71.9340 O.2    46  SER46      -0.2863
     54  CB       139.9760   15.8160   69.0980 C.3    46  SER46       0.2116
     55  OG       141.3950   15.8330   69.0470 O.3    46  SER46      -0.2180
     56  N        145.1800   22.0970   71.2020 N.3    77  ILE77      -0.1245
     57  CA       145.2360   22.5280   69.8070 C.3    77  ILE77       0.1561
     58  C        146.5010   22.0140   69.0770 C.2    77  ILE77       0.2260
     59  O        146.4400   21.6400   67.8960 O.2    77  ILE77      -0.2867
     60  CB       144.9850   24.0730   69.6870 C.3    77  ILE77       0.0252
     61  CG1      144.8510   24.5220   68.2310 C.3    77  ILE77       0.0019
     62  CG2      146.0100   24.9110   70.4510 C.3    77  ILE77       0.0019
     63  CD1      143.7540   23.8050   67.4780 C.3    77  ILE77       0.0001
     64  N        145.9900   18.3430   68.5220 N.3    80  MET80      -0.1230
     65  CA       145.0120   18.3450   67.4140 C.3    80  MET80       0.1702
     66  C        145.6010   18.6240   66.0350 C.2    80  MET80       0.2592
     67  O        145.2380   17.9510   65.0830 O.2    80  MET80      -0.2718
     68  CB       143.9200   19.3760   67.6490 C.3    80  MET80       0.0401
     69  CG       142.7530   18.9420   68.4970 C.3    80  MET80       0.0596
     70  SD       141.9260   20.4770   68.9300 S.3    80  MET80      -0.1393
     71  CE       140.5370   19.8730   69.8480 C.3    80  MET80       0.0692
     72  N        146.5200   19.5890   65.9560 N.am   81  LEU81      -0.1980
     73  CA       147.2260   19.9210   64.7110 C.3    81  LEU81       0.1596
     74  C        148.2450   18.8560   64.2910 C.2    81  LEU81       0.2287
     75  O        148.4740   18.6620   63.0950 O.2    81  LEU81      -0.2864
     76  CB       147.9240   21.2830   64.8270 C.3    81  LEU81       0.0297
     77  CG       147.0900   22.5510   64.6430 C.3    81  LEU81       0.0022
     78  CD1      147.6810   23.6980   65.4460 C.3    81  LEU81       0.0001
     79  CD2      146.9900   22.9250   63.1740 C.3    81  LEU81       0.0001
     80  N        147.8650   15.6300   65.1090 N.3    83  GLU83      -0.1231
     81  CA       146.9670   14.5550   64.6890 C.3    83  GLU83       0.1699
     82  C        146.2960   14.8430   63.3340 C.2    83  GLU83       0.2592
     83  O        145.9470   13.9080   62.6130 O.2    83  GLU83      -0.2718
     84  CB       145.9140   14.2700   65.7740 C.3    83  GLU83       0.0402
     85  CG       146.4150   13.5670   67.0350 C.3    83  GLU83       0.1161
     86  CD       146.5200   12.0540   66.9230 C.2    83  GLU83       0.3649
     87  OE1      146.0820   11.4720   65.9160 O.co2  83  GLU83      -0.2457
     88  OE2      147.0400   11.4290   67.8690 O.co2  83  GLU83      -0.2457
     89  N        146.1250   16.1300   63.0090 N.am   84  THR84      -0.1953
     90  CA       145.6840   16.5990   61.6860 C.3    84  THR84       0.1897
     91  C        146.7440   16.3050   60.6130 C.2    84  THR84       0.2313
     92  O        146.4260   15.7610   59.5550 O.2    84  THR84      -0.2863
     93  CB       145.3550   18.1160   61.7120 C.3    84  THR84       0.1794
     94  OG1      144.4400   18.3880   62.7830 O.3    84  THR84      -0.2208
     95  CG2      144.7250   18.5860   60.4410 C.3    84  THR84       0.0378
     96  N        147.0690   12.6800   59.4380 N.3    87  ARG87      -0.1245
     97  CA       146.0130   12.2080   58.5390 C.3    87  ARG87       0.1563
     98  C        145.9710   12.9400   57.1900 C.2    87  ARG87       0.2260
     99  O        144.9960   12.8270   56.4480 O.2    87  ARG87      -0.2867
    100  CB       144.6560   12.3060   59.2410 C.3    87  ARG87       0.0307
    101  CG       144.4530   11.3010   60.3610 C.3    87  ARG87       0.0489
    102  CD       143.4990   11.8470   61.4110 C.3    87  ARG87       0.2205
    103  NE       143.2110   10.8810   62.4680 N.pl3  87  ARG87      -0.0865
    104  CZ       143.9090   10.7790   63.5950 C.cat  87  ARG87       0.5346
    105  NH1      144.9400   11.5780   63.8050 N.pl3  87  ARG87       0.1354
    106  NH2      143.5850    9.8760   64.5100 N.pl3  87  ARG87       0.1354
    107  N        139.5130   12.8580   58.5190 N.3    97  PHE97      -0.1227
    108  CA       138.9910   12.6590   59.8770 C.3    97  PHE97       0.1736
    109  C        138.0030   11.4980   59.8810 C.2    97  PHE97       0.2595
    110  O        137.3060   11.2800   58.8800 O.2    97  PHE97      -0.2718
    111  CB       138.2670   13.9020   60.4130 C.3    97  PHE97       0.0547
    112  CG       139.0940   15.1570   60.4130 C.ar   97  PHE97      -0.0202
    113  CD1      140.3940   15.1640   60.8890 C.ar   97  PHE97      -0.0042
    114  CD2      138.5420   16.3530   59.9780 C.ar   97  PHE97      -0.0042
    115  CE1      141.1270   16.3380   60.8890 C.ar   97  PHE97      -0.0003
    116  CE2      139.2770   17.5220   59.9620 C.ar   97  PHE97      -0.0003
    117  CZ       140.5740   17.5110   60.4200 C.ar   97  PHE97      -0.0000
    118  N        137.9680   10.7780   61.0110 N.am   98  LEU98      -0.1980
    119  CA       137.0130    9.6870   61.3400 C.3    98  LEU98       0.1596
    120  C        137.0130    8.4820   60.3750 C.2    98  LEU98       0.2287
    121  O        135.9730    7.8630   60.1190 O.2    98  LEU98      -0.2864
    122  CB       135.5910   10.2370   61.5950 C.3    98  LEU98       0.0297
    123  CG       134.7930    9.6980   62.7900 C.3    98  LEU98       0.0022
    124  CD1      135.2810   10.3060   64.1000 C.3    98  LEU98       0.0001
    125  CD2      133.3040    9.9590   62.5970 C.3    98  LEU98       0.0001
    126  N        137.3270   23.1960   54.8590 N.3   108  PHE108     -0.1241
    127  CA       137.6900   23.9080   56.0820 C.3   108  PHE108      0.1605
    128  C        137.0600   25.3100   56.1090 C.2   108  PHE108      0.2264
    129  O        136.6910   25.8050   57.1780 O.2   108  PHE108     -0.2867
    130  CB       139.2190   24.0260   56.1750 C.3   108  PHE108      0.0534
    131  CG       139.9000   22.9140   56.9440 C.ar  108  PHE108     -0.0203
    132  CD1      140.7710   23.2230   57.9810 C.ar  108  PHE108     -0.0042
    133  CD2      139.7080   21.5740   56.6190 C.ar  108  PHE108     -0.0042
    134  CE1      141.4220   22.2250   58.6890 C.ar  108  PHE108     -0.0003
    135  CE2      140.3550   20.5710   57.3180 C.ar  108  PHE108     -0.0003
    136  CZ       141.2140   20.8960   58.3580 C.ar  108  PHE108     -0.0000
    137  N        136.0000   28.3890   59.0990 N.3   113  LEU113     -0.1245
    138  CA       137.3400   28.8950   59.3860 C.3   113  LEU113      0.1561
    139  C        137.7960   29.9460   58.3700 C.2   113  LEU113      0.2260
    140  O        137.4380   29.8750   57.1920 O.2   113  LEU113     -0.2867
    141  CB       138.3490   27.7430   59.4880 C.3   113  LEU113      0.0270
    142  CG       138.0500   26.5490   60.4140 C.3   113  LEU113      0.0019
    143  CD1      139.2370   25.5980   60.4390 C.3   113  LEU113      0.0001
    144  CD2      137.6830   26.9520   61.8390 C.3   113  LEU113      0.0001
    145  N        144.0140   31.1300   58.9110 N.3   117  PHE117     -0.1241
    146  CA       144.2510   29.9470   59.7360 C.3   117  PHE117      0.1605
    147  C        144.4680   28.7150   58.8400 C.2   117  PHE117      0.2264
    148  O        145.4070   27.9690   59.0930 O.2   117  PHE117     -0.2867
    149  CB       143.1020   29.7620   60.7550 C.3   117  PHE117      0.0534
    150  CG       143.2810   28.6130   61.7400 C.ar  117  PHE117     -0.0203
    151  CD1      144.5230   28.2800   62.2860 C.ar  117  PHE117     -0.0042
    152  CD2      142.1670   27.8960   62.1700 C.ar  117  PHE117     -0.0042
    153  CE1      144.6520   27.2310   63.1830 C.ar  117  PHE117     -0.0003
    154  CE2      142.2880   26.8570   63.0840 C.ar  117  PHE117     -0.0003
    155  CZ       143.5330   26.5240   63.5890 C.ar  117  PHE117     -0.0000
    156  N        147.5530   25.7540   58.4690 N.3   121  ILE121     -0.1245
    157  CA       147.2840   24.3460   58.8660 C.3   121  ILE121      0.1561
    158  C        147.8370   23.4070   57.7860 C.2   121  ILE121      0.2260
    159  O        148.5830   22.4650   58.0790 O.2   121  ILE121     -0.2867
    160  CB       145.7640   24.0620   59.0850 C.3   121  ILE121      0.0252
    161  CG1      145.2080   24.8200   60.2820 C.3   121  ILE121      0.0019
    162  CG2      145.4560   22.5800   59.2990 C.3   121  ILE121      0.0019
    163  CD1      143.7480   25.1760   60.0930 C.3   121  ILE121      0.0001
    164  N        145.6540   30.1850   65.6620 N.3   203  HIS203     -0.1241
    165  CA       144.3780   29.6690   66.1860 C.3   203  HIS203      0.1621
    166  C        143.6860   30.6080   67.2010 C.2   203  HIS203      0.2264
    167  O        142.4530   30.6980   67.2160 O.2   203  HIS203     -0.2867
    168  CB       144.5910   28.2600   66.7630 C.3   203  HIS203      0.0745
    169  CG       143.4490   27.7440   67.5780 C.ar  203  HIS203      0.0817
    170  ND1      143.4360   27.8140   68.9540 N.ar  203  HIS203     -0.2268
    171  CD2      142.2880   27.1460   67.2190 C.ar  203  HIS203      0.1154
    172  CE1      142.3110   27.2950   69.4050 C.ar  203  HIS203      0.1986
    173  NE2      141.6010   26.8730   68.3750 N.ar  203  HIS203     -0.2212
    174  N        141.8870   33.0900   65.2470 N.3   206  GLN206     -0.1231
    175  CA       140.6660   32.4800   64.7040 C.3   206  GLN206      0.1698
    176  C        139.5030   32.5230   65.7120 C.2   206  GLN206      0.2592
    177  O        138.3840   32.8950   65.3390 O.2   206  GLN206     -0.2718
    178  CB       140.9540   31.0470   64.2100 C.3   206  GLN206      0.0381
    179  CG       139.7450   30.2180   63.7950 C.3   206  GLN206      0.0905
    180  CD       139.2060   30.6120   62.4390 C.2   206  GLN206      0.2608
    181  OE1      139.7650   30.2400   61.4120 O.2   206  GLN206     -0.2717
    182  NE2      138.1100   31.3620   62.4280 N.am  206  GLN206     -0.0878
    183  N        139.8000   32.1670   66.9690 N.am  207  VAL207     -0.1980
    184  CA       138.8550   32.1530   68.1130 C.3   207  VAL207      0.1595
    185  C        138.3170   33.5670   68.4330 C.2   207  VAL207      0.2287
    186  O        137.1040   33.7530   68.6560 O.2   207  VAL207     -0.2864
    187  CB       139.5050   31.4390   69.3470 C.3   207  VAL207      0.0276
    188  CG1      138.7190   31.6120   70.6430 C.3   207  VAL207      0.0022
    189  CG2      139.6770   29.9500   69.0750 C.3   207  VAL207      0.0022
    190  N        135.8250   34.6260   65.7310 N.3   210  LEU210     -0.1245
    191  CA       134.5220   33.9910   65.9140 C.3   210  LEU210      0.1561
    192  C        133.5930   34.7640   66.8490 C.2   210  LEU210      0.2260
    193  O        132.3710   34.6240   66.7590 O.2   210  LEU210     -0.2867
    194  CB       134.6870   32.5610   66.4280 C.3   210  LEU210      0.0270
    195  CG       135.2320   31.5160   65.4550 C.3   210  LEU210      0.0019
    196  CD1      135.7470   30.3270   66.2440 C.3   210  LEU210      0.0001
    197  CD2      134.1990   31.0900   64.4200 C.3   210  LEU210      0.0001
    198  N        131.1600   28.9850   70.2150 N.3   217  LEU217     -0.1245
    199  CA       131.7320   27.6680   70.4640 C.3   217  LEU217      0.1561
    200  C        130.8610   26.8630   71.4400 C.2   217  LEU217      0.2260
    201  O        130.2300   27.4560   72.3170 O.2   217  LEU217     -0.2867
    202  CB       133.1490   27.8410   71.0260 C.3   217  LEU217      0.0270
    203  CG       134.3690   27.6180   70.1230 C.3   217  LEU217      0.0019
    204  CD1      134.0800   27.7770   68.6360 C.3   217  LEU217      0.0001
    205  CD2      135.5060   28.5320   70.5620 C.3   217  LEU217      0.0001
    206  N        134.7740   23.4250   74.2440 N.3   221  LEU221     -0.1245
    207  CA       135.7170   24.2000   73.4440 C.3   221  LEU221      0.1561
    208  C        135.7960   25.6520   73.8910 C.2   221  LEU221      0.2260
    209  O        136.8320   26.2880   73.7260 O.2   221  LEU221     -0.2867
    210  CB       135.3540   24.1400   71.9610 C.3   221  LEU221      0.0270
    211  CG       135.4320   22.7920   71.2500 C.3   221  LEU221      0.0019
    212  CD1      135.1370   23.0200   69.7810 C.3   221  LEU221      0.0001
    213  CD2      136.7920   22.1350   71.4370 C.3   221  LEU221      0.0001
    214  N        139.3580   27.5730   75.0400 N.3   225  TRP225     -0.1241
    215  CA       139.8700   28.4920   74.0140 C.3   225  TRP225      0.1605
    216  C        139.4580   29.9620   74.1190 C.2   225  TRP225      0.2264
    217  O        140.2030   30.8340   73.6680 O.2   225  TRP225     -0.2867
    218  CB       139.5540   27.9820   72.6020 C.3   225  TRP225      0.0550
    219  CG       140.2480   26.7060   72.2110 C.ar  225  TRP225      0.0003
    220  CD1      141.4100   26.2030   72.7330 C.ar  225  TRP225      0.0946
    221  CD2      139.8380   25.7890   71.1870 C.ar  225  TRP225      0.0152
    222  NE1      141.7390   25.0260   72.1060 N.ar  225  TRP225     -0.2442
    223  CE2      140.7960   24.7500   71.1500 C.ar  225  TRP225      0.0810
    224  CE3      138.7660   25.7540   70.2820 C.ar  225  TRP225      0.0012
    225  CZ2      140.7060   23.6800   70.2550 C.ar  225  TRP225      0.0191
    226  CZ3      138.6770   24.6840   69.3930 C.ar  225  TRP225      0.0001
    227  CH2      139.6420   23.6620   69.3900 C.ar  225  TRP225      0.0015
@<TRIPOS>BOND
     1   126   127    1
     2   127   128    1
     3   127   130    1
     4   128   129    2
     5   130   131    1
     6    99    98    2
     7   133   131   ar
     8   133   135   ar
     9   131   132   ar
    10    98    97    1
    11   140   139    2
    12   135   136   ar
    13   158   159    2
    14   158   157    1
    15   132   134   ar
    16   136   134   ar
    17   139   138    1
    18   156   157    1
    19   107   108    1
    20    97   100    1
    21    97    96    1
    22   147   148    2
    23   147   146    1
    24   157   160    1
    25   110   109    2
    26   145   146    1
    27   160   162    1
    28   160   161    1
    29   137   138    1
    30   100   101    1
    31   138   141    1
    32   141   142    1
    33    92    91    2
    34    20    22   ar
    35    20    18   ar
    36   146   149    1
    37    22    21   ar
    38   108   109    1
    39   108   111    1
    40   109   118   am
    41   116   114   ar
    42   116   117   ar
    43   114   112   ar
    44   163   161    1
    45   121   120    2
    46   101   102    1
    47   120   119    1
    48   111   112    1
    49   112   113   ar
    50   142   143    1
    51   142   144    1
    52   117   115   ar
    53    18    17   ar
    54    95    93    1
    55    91    90    1
    56    21    19   ar
    57     1     2    1
    58   149   150    1
    59   115   113   ar
    60   118   119    1
    61    17    19   ar
    62    17    16    1
    63   119   122    1
    64   102   103    1
    65   181   180    2
    66   122   123    1
    67    90    93    1
    68    90    89    1
    69    93    94    1
    70   150   152   ar
    71   150   151   ar
    72     2     5    1
    73     2     3    1
    74    16    13    1
    75    36    35    1
    76   152   154   ar
    77     5     6    1
    78   151   153   ar
    79   182   180   am
    80   180   179    1
    81   103   104    2
    82   125   123    1
    83    83    82    2
    84    12    13    1
    85   123   124    1
    86    13    14    1
    87    89    82   am
    88   154   155   ar
    89    75    74    2
    90     3     4    2
    91     7     6   ar
    92     7     9   ar
    93    79    77    1
    94   153   155   ar
    95    82    81    1
    96     6     8   ar
    97    35    37    1
    98    35    34    1
    99   104   105    1
   100   104   106    1
   101   179   178    1
   102     9    11   ar
   103   178   175    1
   104    74    73    1
   105    14    15    2
   106    14    23   am
   107   197   195    1
   108    34    31    1
   109     8    10   ar
   110    77    76    1
   111    77    78    1
   112    81    80    1
   113    81    84    1
   114   175   174    1
   115   175   176    1
   116    73    76    1
   117    73    72    1
   118    23    24    1
   119    67    66    2
   120   177   176    2
   121    11    10   ar
   122   195   196    1
   123   195   194    1
   124   164   165    1
   125   176   183   am
   126   190   191    1
   127    84    85    1
   128   191   194    1
   129   191   192    1
   130    87    86   ar
   131    72    66   am
   132    31    30    1
   133    31    32    1
   134    66    65    1
   135   165   168    1
   136   165   166    1
   137    24    27    1
   138    24    25    1
   139    28    27    1
   140    29    27    1
   141   193   192    2
   142   168   169    1
   143    32    38   am
   144    32    33    2
   145    86    85    1
   146    86    88   ar
   147   183   184    1
   148   166   167    2
   149   171   169   ar
   150   171   173   ar
   151    38    39    1
   152    25    26    2
   153    65    68    1
   154    65    64    1
   155    63    61    1
   156   169   170   ar
   157    68    69    1
   158    59    58    2
   159    42    39    1
   160   184   185    1
   161   184   187    1
   162    39    40    1
   163    61    60    1
   164   173   172   ar
   165   185   186    2
   166    69    70    1
   167   204   203    1
   168    48    47    1
   169    70    71    1
   170   170   172   ar
   171    55    54    1
   172   189   187    1
   173    58    57    1
   174    54    51    1
   175    47    49    1
   176    47    44    1
   177   187   188    1
   178   227   226   ar
   179   227   225   ar
   180   226   224   ar
   181    40    41    2
   182    60    57    1
   183    60    62    1
   184   212   211    1
   185    57    56    1
   186    50    51    1
   187    50    45   am
   188    51    52    1
   189   203   205    1
   190   203   202    1
   191   198   199    1
   192   225   223   ar
   193   224   221   ar
   194   199   202    1
   195   199   200    1
   196    44    43    1
   197    44    45    1
   198    45    46    2
   199   223   221   ar
   200   223   222   ar
   201   221   219   ar
   202   211   213    1
   203   211   210    1
   204   200   201    2
   205    52    53    2
   206   210   207    1
   207   222   220   ar
   208   219   218    1
   209   219   220   ar
   210   218   215    1
   211   207   208    1
   212   207   206    1
   213   217   216    2
   214   209   208    2
   215   215   216    1
   216   215   214    1
