@<TRIPOS>MOLECULE
tmp/5avlA00.pdb
 237 226 0 0 0
SMALL
GASTEIGER

@<TRIPOS>ATOM
      1  N         37.3850    6.1110   -8.2760 N.3    31  PHE31      -0.1241
      2  CA        36.9440    6.9160   -7.1620 C.3    31  PHE31       0.1605
      3  C         37.8700    6.7180   -5.9680 C.2    31  PHE31       0.2264
      4  O         38.2870    7.6900   -5.3180 O.2    31  PHE31      -0.2867
      5  CB        35.5120    6.5370   -6.8040 C.3    31  PHE31       0.0534
      6  CG        34.9740    7.2300   -5.5880 C.ar   31  PHE31      -0.0203
      7  CD1       34.6600    8.5870   -5.6210 C.ar   31  PHE31      -0.0042
      8  CD2       34.7590    6.5250   -4.4080 C.ar   31  PHE31      -0.0042
      9  CE1       34.1650    9.2340   -4.4960 C.ar   31  PHE31      -0.0003
     10  CE2       34.2550    7.1620   -3.2930 C.ar   31  PHE31      -0.0003
     11  CZ        33.9530    8.5140   -3.3410 C.ar   31  PHE31      -0.0000
     12  N         41.2830    8.4440   -6.0570 N.3    34  PHE34      -0.1227
     13  CA        41.1270    9.8710   -6.0150 C.3    34  PHE34       0.1736
     14  C         40.9710   10.3040   -4.5880 C.2    34  PHE34       0.2596
     15  O         41.5890   11.2890   -4.1720 O.2    34  PHE34      -0.2718
     16  CB        39.9140   10.3070   -6.8300 C.3    34  PHE34       0.0547
     17  CG        40.0490   11.6860   -7.4150 C.ar   34  PHE34      -0.0202
     18  CD1       41.2700   12.1220   -7.9380 C.ar   34  PHE34      -0.0042
     19  CD2       38.9660   12.5490   -7.4620 C.ar   34  PHE34      -0.0042
     20  CE1       41.4150   13.4050   -8.4910 C.ar   34  PHE34      -0.0003
     21  CE2       39.0990   13.8260   -8.0080 C.ar   34  PHE34      -0.0003
     22  CZ        40.3270   14.2560   -8.5270 C.ar   34  PHE34      -0.0000
     23  N         40.1430    9.5630   -3.8460 N.am   35  THR35      -0.1953
     24  CA        39.9300    9.8120   -2.4250 C.3    35  THR35       0.1897
     25  C         41.1760    9.5090   -1.6110 C.2    35  THR35       0.2313
     26  O         41.3780   10.1090   -0.5470 O.2    35  THR35      -0.2863
     27  CB        38.7950    8.9810   -1.8380 C.3    35  THR35       0.1794
     28  OG1       39.0170    7.6020   -2.1300 O.3    35  THR35      -0.2208
     29  CG2       37.4850    9.4020   -2.4070 C.3    35  THR35       0.0378
     30  N         44.2780   10.1330   -2.7240 N.3    37  LEU37      -0.1231
     31  CA        45.0550   11.3460   -2.8920 C.3    37  LEU37       0.1693
     32  C         44.6320   12.4730   -1.9340 C.2    37  LEU37       0.2591
     33  O         45.4770   13.1970   -1.4170 O.2    37  LEU37      -0.2718
     34  CB        44.9660   11.8160   -4.3260 C.3    37  LEU37       0.0284
     35  CG        45.7870   11.0240   -5.3230 C.3    37  LEU37       0.0019
     36  CD1       45.4110   11.4530   -6.7350 C.3    37  LEU37       0.0001
     37  CD2       47.2790   11.1790   -5.0350 C.3    37  LEU37       0.0001
     38  N         43.3290   12.6070   -1.7050 N.am   38  ALA38      -0.1980
     39  CA        42.8120   13.5750   -0.7580 C.3    38  ALA38       0.1597
     40  C         43.2690   13.2290    0.6450 C.2    38  ALA38       0.2287
     41  O         43.6560   14.1320    1.3840 O.2    38  ALA38      -0.2864
     42  CB        41.2910   13.6530   -0.8240 C.3    38  ALA38       0.0319
     43  N         45.9470   11.5880    1.6320 N.3    40  VAL40      -0.1231
     44  CA        47.3320   12.0430    1.6210 C.3    40  VAL40       0.1692
     45  C         47.3670   13.5510    1.7960 C.2    40  VAL40       0.2592
     46  O         48.1000   14.0460    2.6380 O.2    40  VAL40      -0.2718
     47  CB        48.1000   11.6090    0.3180 C.3    40  VAL40       0.0266
     48  CG1       49.4310   12.3740    0.1340 C.3    40  VAL40       0.0020
     49  CG2       48.3190   10.0820    0.2570 C.3    40  VAL40       0.0020
     50  N         46.5400   14.2720    1.0470 N.am   41  SER41      -0.1952
     51  CA        46.5830   15.7120    1.1350 C.3    41  SER41       0.1924
     52  C         46.2270   16.2030    2.5550 C.2    41  SER41       0.2314
     53  O         46.9640   17.0310    3.1080 O.2    41  SER41      -0.2863
     54  CB        45.7430   16.3890    0.0540 C.3    41  SER41       0.2116
     55  OG        45.6960   17.8010    0.2530 O.3    41  SER41      -0.2180
     56  N         49.2400   16.1010    4.6970 N.3    44  GLU44      -0.1245
     57  CA        50.1230   17.1740    4.3320 C.3    44  GLU44       0.1567
     58  C         49.6770   18.5220    4.9180 C.2    44  GLU44       0.2260
     59  O         50.4850   19.2320    5.5270 O.2    44  GLU44      -0.2867
     60  CB        50.3060   17.2080    2.8080 C.3    44  GLU44       0.0388
     61  CG        51.4180   16.2660    2.3130 C.3    44  GLU44       0.1160
     62  CD        51.8500   16.5040    0.8540 C.2    44  GLU44       0.3649
     63  OE1       51.4380   17.5150    0.2260 O.co2  44  GLU44      -0.2457
     64  OE2       52.6230   15.6780    0.3080 O.co2  44  GLU44      -0.2457
     65  N         39.4660   21.5440    2.2870 N.3    72  ILE72      -0.1245
     66  CA        39.0520   21.5260    0.9010 C.3    72  ILE72       0.1561
     67  C         39.5950   22.7540    0.1870 C.2    72  ILE72       0.2260
     68  O         40.0400   22.6410   -0.9840 O.2    72  ILE72      -0.2867
     69  CB        37.5230   21.4300    0.7180 C.3    72  ILE72       0.0252
     70  CG1       37.1530   21.4410   -0.7480 C.3    72  ILE72       0.0019
     71  CG2       36.8120   22.5860    1.3930 C.3    72  ILE72       0.0019
     72  CD1       37.5780   20.2110   -1.4900 C.3    72  ILE72       0.0001
     73  N         43.1410   22.1880   -0.4970 N.3    75  MET75      -0.1230
     74  CA        43.1580   21.2150   -1.5770 C.3    75  MET75       0.1702
     75  C         42.8870   21.8680   -2.9240 C.2    75  MET75       0.2592
     76  O         43.5340   21.5730   -3.9310 O.2    75  MET75      -0.2718
     77  CB        42.1330   20.1380   -1.3250 C.3    75  MET75       0.0401
     78  CG        42.5160   19.1530   -0.2460 C.3    75  MET75       0.0596
     79  SD        41.0450   18.1640    0.0560 S.3    75  MET75      -0.1393
     80  CE        41.6650   16.8950    1.1280 C.3    75  MET75       0.0692
     81  N         41.9490   22.7970   -2.9350 N.am   76  LEU76      -0.1980
     82  CA        41.6590   23.5180   -4.1680 C.3    76  LEU76       0.1596
     83  C         42.7770   24.4980   -4.5630 C.2    76  LEU76       0.2287
     84  O         43.0140   24.7450   -5.7570 O.2    76  LEU76      -0.2864
     85  CB        40.2970   24.1940   -4.0830 C.3    76  LEU76       0.0297
     86  CG        39.1690   23.1870   -4.0690 C.3    76  LEU76       0.0022
     87  CD1       37.9050   23.8550   -3.5820 C.3    76  LEU76       0.0001
     88  CD2       38.9640   22.5400   -5.4260 C.3    76  LEU76       0.0001
     89  N         45.8880   23.8580   -3.9520 N.3    78  GLU78      -0.1231
     90  CA        46.9340   22.9870   -4.4050 C.3    78  GLU78       0.1699
     91  C         46.5580   22.4640   -5.7890 C.2    78  GLU78       0.2592
     92  O         47.4370   22.2250   -6.6100 O.2    78  GLU78      -0.2718
     93  CB        47.2030   21.8130   -3.4200 C.3    78  GLU78       0.0402
     94  CG        47.7840   22.1640   -2.0480 C.3    78  GLU78       0.1161
     95  CD        49.2600   22.5220   -2.0640 C.2    78  GLU78       0.3649
     96  OE1       49.8470   22.6540   -3.1300 O.co2  78  GLU78      -0.2457
     97  OE2       49.8600   22.6940   -0.9990 O.co2  78  GLU78      -0.2457
     98  N         45.2550   22.3160   -6.0440 N.am   79  THR79      -0.1953
     99  CA        44.7730   21.9510   -7.3680 C.3    79  THR79       0.1897
    100  C         45.1500   23.0190   -8.3800 C.2    79  THR79       0.2313
    101  O         45.8000   22.7330   -9.3830 O.2    79  THR79      -0.2863
    102  CB        43.2540   21.6850   -7.3660 C.3    79  THR79       0.1794
    103  OG1       42.9880   20.5700   -6.5040 O.3    79  THR79      -0.2208
    104  CG2       42.7410   21.3640   -8.7820 C.3    79  THR79       0.0378
    105  N         48.9170   23.1980   -9.5610 N.3    82  ARG82      -0.1245
    106  CA        49.3940   22.2660  -10.5550 C.3    82  ARG82       0.1563
    107  C         48.5800   22.1760  -11.8400 C.2    82  ARG82       0.2260
    108  O         48.5580   21.1330  -12.4910 O.2    82  ARG82      -0.2867
    109  CB        49.6000   20.8990   -9.9490 C.3    82  ARG82       0.0307
    110  CG        49.2060   20.7950   -8.5180 C.3    82  ARG82       0.0489
    111  CD        50.2090   19.9810   -7.7070 C.3    82  ARG82       0.2205
    112  NE        50.2950   20.5710   -6.3630 N.pl3  82  ARG82      -0.0865
    113  CZ        51.3240   20.4420   -5.5370 C.cat  82  ARG82       0.5346
    114  NH1       51.3190   21.0500   -4.3790 N.pl3  82  ARG82       0.1354
    115  NH2       52.3710   19.7240   -5.8830 N.pl3  82  ARG82       0.1354
    116  N         48.8090   16.0430  -10.4760 N.3    92  PHE92      -0.1227
    117  CA        49.0310   15.5600   -9.1160 C.3    92  PHE92       0.1736
    118  C         50.1430   14.5090   -9.0680 C.2    92  PHE92       0.2595
    119  O         50.1060   13.5210   -9.8320 O.2    92  PHE92      -0.2718
    120  CB        47.7740   14.8840   -8.5640 C.3    92  PHE92       0.0547
    121  CG        46.6060   15.8030   -8.3510 C.ar   92  PHE92      -0.0202
    122  CD1       46.6960   16.8900   -7.4790 C.ar   92  PHE92      -0.0042
    123  CD2       45.3950   15.5470   -8.9780 C.ar   92  PHE92      -0.0042
    124  CE1       45.6160   17.7350   -7.2710 C.ar   92  PHE92      -0.0003
    125  CE2       44.3050   16.3680   -8.7650 C.ar   92  PHE92      -0.0003
    126  CZ        44.4150   17.4650   -7.9010 C.ar   92  PHE92      -0.0000
    127  N         51.0930   14.6980   -8.1450 N.am   93  LEU93      -0.1966
    128  CA        52.2110   13.7540   -7.9070 C.3    93  LEU93       0.1728
    129  C         52.9940   13.4350   -9.1560 C.2    93  LEU93       0.2616
    130  O         52.9060   12.3110   -9.6460 O.2    93  LEU93      -0.2715
    131  CB        51.7460   12.4370   -7.2420 C.3    93  LEU93       0.0311
    132  CG        51.8570   12.3070   -5.7140 C.3    93  LEU93       0.0022
    133  CD1       53.0200   13.1240   -5.1510 C.3    93  LEU93       0.0001
    134  CD2       50.5830   12.6970   -4.9960 C.3    93  LEU93       0.0001
    135  N         53.7130   14.4430   -9.6660 N.am   94  LYS94      -0.1977
    136  CA        54.6180   14.3710  -10.8340 C.3    94  LYS94       0.1596
    137  C         53.9760   13.8030  -12.0860 C.2    94  LYS94       0.2287
    138  O         53.7880   14.4920  -13.0880 O.2    94  LYS94      -0.2864
    139  CB        55.8760   13.5260  -10.5550 C.3    94  LYS94       0.0298
    140  CG        56.5880   13.7270   -9.2220 C.3    94  LYS94       0.0038
    141  CD        57.5760   12.5760   -8.9570 C.3    94  LYS94       0.0206
    142  CE        56.9440   11.3910   -8.2170 C.3    94  LYS94       0.1093
    143  NZ        56.3380   11.8440   -6.9240 N.3    94  LYS94      -0.1314
    144  N         38.3320   13.6310  -14.0430 N.3   103  PHE103     -0.1241
    145  CA        37.6690   13.9720  -12.7830 C.3   103  PHE103      0.1605
    146  C         36.2770   13.3650  -12.7340 C.2   103  PHE103      0.2264
    147  O         35.8600   12.8620  -11.6960 O.2   103  PHE103     -0.2867
    148  CB        37.5110   15.4850  -12.6820 C.3   103  PHE103      0.0534
    149  CG        38.6090   16.1880  -11.9610 C.ar  103  PHE103     -0.0203
    150  CD1       39.9170   16.1510  -12.4260 C.ar  103  PHE103     -0.0042
    151  CD2       38.3140   16.9740  -10.8470 C.ar  103  PHE103     -0.0042
    152  CE1       40.9120   16.8610  -11.7780 C.ar  103  PHE103     -0.0003
    153  CE2       39.3110   17.6930  -10.1800 C.ar  103  PHE103     -0.0003
    154  CZ        40.6160   17.6310  -10.6480 C.ar  103  PHE103     -0.0000
    155  N         33.3170   12.4720   -9.5270 N.3   108  LEU108     -0.1245
    156  CA        32.8520   13.8090   -9.2330 C.3   108  LEU108      0.1561
    157  C         31.8810   14.2610  -10.3110 C.2   108  LEU108      0.2260
    158  O         31.9690   13.8200  -11.4460 O.2   108  LEU108     -0.2867
    159  CB        34.0250   14.7670   -9.1480 C.3   108  LEU108      0.0270
    160  CG        35.2410   14.5820   -8.2210 C.3   108  LEU108      0.0019
    161  CD1       35.9630   15.9140   -8.0380 C.3   108  LEU108      0.0001
    162  CD2       34.8560   14.0300   -6.8610 C.3   108  LEU108      0.0001
    163  N         30.4660   20.4150   -9.9880 N.3   112  PHE112     -0.1241
    164  CA        31.6800   20.7230   -9.1940 C.3   112  PHE112      0.1605
    165  C         32.9370   20.9380  -10.0880 C.2   112  PHE112      0.2264
    166  O         33.6830   21.8970   -9.8680 O.2   112  PHE112     -0.2867
    167  CB        31.8670   19.6140   -8.1750 C.3   112  PHE112      0.0534
    168  CG        32.9740   19.8220   -7.1870 C.ar  112  PHE112     -0.0203
    169  CD1       33.3380   21.0800   -6.7290 C.ar  112  PHE112     -0.0042
    170  CD2       33.6110   18.7100   -6.6250 C.ar  112  PHE112     -0.0042
    171  CE1       34.3520   21.2140   -5.7820 C.ar  112  PHE112     -0.0003
    172  CE2       34.6220   18.8470   -5.6820 C.ar  112  PHE112     -0.0003
    173  CZ        34.9980   20.1050   -5.2650 C.ar  112  PHE112     -0.0000
    174  N         35.6920   24.0260  -10.3620 N.3   116  ILE116     -0.1245
    175  CA        37.1060   23.7530  -10.0540 C.3   116  ILE116      0.1561
    176  C         38.0480   24.2430  -11.1880 C.2   116  ILE116      0.2260
    177  O         39.0220   24.9840  -10.9450 O.2   116  ILE116     -0.2867
    178  CB        37.3810   22.2720   -9.7870 C.3   116  ILE116      0.0252
    179  CG1       36.6380   21.7870   -8.5580 C.3   116  ILE116      0.0019
    180  CG2       38.8660   22.0150   -9.5450 C.3   116  ILE116      0.0019
    181  CD1       36.3570   20.2990   -8.6150 C.3   116  ILE116      0.0001
    182  N         31.4430   22.1170   -3.2260 N.3   198  HIS198     -0.1241
    183  CA        31.9170   20.8740   -2.6520 C.3   198  HIS198      0.1621
    184  C         30.9360   20.2800   -1.6120 C.2   198  HIS198      0.2264
    185  O         30.8530   19.0530   -1.4660 O.2   198  HIS198     -0.2867
    186  CB        33.3220   21.0570   -2.0960 C.3   198  HIS198      0.0745
    187  CG        33.8340   19.8610   -1.3660 C.ar  198  HIS198      0.0817
    188  ND1       33.9470   19.8220    0.0060 N.ar  198  HIS198     -0.2268
    189  CD2       34.2190   18.6420   -1.8090 C.ar  198  HIS198      0.1154
    190  CE1       34.4010   18.6410    0.3770 C.ar  198  HIS198      0.1986
    191  NE2       34.5660   17.9010   -0.7040 N.ar  198  HIS198     -0.2212
    192  N         28.4330   18.5570   -3.5530 N.3   201  GLN201     -0.1231
    193  CA        29.0820   17.3680   -4.0430 C.3   201  GLN201      0.1698
    194  C         29.0230   16.2070   -3.0540 C.2   201  GLN201      0.2592
    195  O         28.6450   15.0680   -3.4250 O.2   201  GLN201     -0.2718
    196  CB        30.5380   17.6780   -4.4060 C.3   201  GLN201      0.0381
    197  CG        31.3440   16.5240   -4.9760 C.3   201  GLN201      0.0905
    198  CD        30.7730   15.9830   -6.2630 C.2   201  GLN201      0.2608
    199  OE1       29.7670   15.2550   -6.2770 O.2   201  GLN201     -0.2717
    200  NE2       31.4210   16.3000   -7.3470 N.am  201  GLN201     -0.0878
    201  N         29.3930   16.5010   -1.8120 N.am  202  VAL202     -0.1980
    202  CA        29.4020   15.5190   -0.7300 C.3   202  VAL202      0.1595
    203  C         28.0000   14.9640   -0.5290 C.2   202  VAL202      0.2287
    204  O         27.8170   13.7270   -0.4000 O.2   202  VAL202     -0.2864
    205  CB        29.9090   16.1310    0.6000 C.3   202  VAL202      0.0276
    206  CG1       29.6870   15.1850    1.7600 C.3   202  VAL202      0.0022
    207  CG2       31.3860   16.4880    0.4960 C.3   202  VAL202      0.0022
    208  N         26.8420   12.4700   -3.3040 N.3   205  LEU205     -0.1245
    209  CA        27.4610   11.1690   -3.1520 C.3   205  LEU205      0.1561
    210  C         26.6680   10.3170   -2.2240 C.2   205  LEU205      0.2260
    211  O         26.6350    9.0970   -2.3990 O.2   205  LEU205     -0.2867
    212  CB        28.8490   11.3110   -2.5610 C.3   205  LEU205      0.0270
    213  CG        29.9060   11.7830   -3.5440 C.3   205  LEU205      0.0019
    214  CD1       31.2540   11.8580   -2.8520 C.3   205  LEU205      0.0001
    215  CD2       29.9580   10.8400   -4.7450 C.3   205  LEU205      0.0001
    216  N         32.4590    8.0030    1.0500 N.3   212  LEU212     -0.1245
    217  CA        33.7400    8.5790    1.4590 C.3   212  LEU212      0.1561
    218  C         34.5010    7.6670    2.4360 C.2   212  LEU212      0.2260
    219  O         33.8960    7.1010    3.3240 O.2   212  LEU212     -0.2867
    220  CB        33.4960    9.9580    2.1140 C.3   212  LEU212      0.0270
    221  CG        32.9420   11.0590    1.1930 C.3   212  LEU212      0.0019
    222  CD1       32.7240   12.4070    1.8850 C.3   212  LEU212      0.0001
    223  CD2       33.8610   11.2100   -0.0100 C.3   212  LEU212      0.0001
    224  N         34.1240   15.7770    6.1890 N.3   220  TRP220     -0.1241
    225  CA        33.1770   16.3000    5.2060 C.3   220  TRP220      0.1605
    226  C         31.7470   15.8460    5.3330 C.2   220  TRP220      0.2264
    227  O         30.8600   16.5620    4.9120 O.2   220  TRP220     -0.2867
    228  CB        33.6420   16.0010    3.7740 C.3   220  TRP220      0.0550
    229  CG        34.8790   16.7110    3.3670 C.ar  220  TRP220      0.0003
    230  CD1       35.3460   17.8910    3.8640 C.ar  220  TRP220      0.0946
    231  CD2       35.8000   16.3130    2.3370 C.ar  220  TRP220      0.0152
    232  NE1       36.5150   18.2480    3.2240 N.ar  220  TRP220     -0.2442
    233  CE2       36.8120   17.3030    2.2760 C.ar  220  TRP220      0.0810
    234  CE3       35.8590   15.2250    1.4470 C.ar  220  TRP220      0.0012
    235  CZ2       37.8760   17.2360    1.3680 C.ar  220  TRP220      0.0191
    236  CZ3       36.9200   15.1580    0.5480 C.ar  220  TRP220      0.0001
    237  CH2       37.9160   16.1620    0.5180 C.ar  220  TRP220      0.0015
@<TRIPOS>BOND
     1   144   145    1
     2   138   137    2
     3   145   146    1
     4   145   148    1
     5   146   147    2
     6   148   149    1
     7   108   107    2
     8   150   149   ar
     9   150   152   ar
    10   137   136    1
    11   149   151   ar
    12   107   106    1
    13   152   154   ar
    14   158   157    2
    15   176   177    2
    16   176   175    1
    17   151   153   ar
    18   136   139    1
    19   136   135    1
    20   154   153   ar
    21   139   140    1
    22   106   109    1
    23   106   105    1
    24   116   117    1
    25   174   175    1
    26   157   156    1
    27   165   166    2
    28   165   164    1
    29   175   178    1
    30   163   164    1
    31   109   110    1
    32   119   118    2
    33   178   180    1
    34   178   179    1
    35   135   129   am
    36   130   129    2
    37   155   156    1
    38   101   100    2
    39   156   159    1
    40   140   141    1
    41   164   167    1
    42   129   128    1
    43   159   160    1
    44   117   118    1
    45   117   120    1
    46   118   127   am
    47   123   125   ar
    48   123   121   ar
    49   141   142    1
    50   104   102    1
    51   125   126   ar
    52   181   179    1
    53   120   121    1
    54    22    20   ar
    55    22    21   ar
    56   110   111    1
    57    20    18   ar
    58   100    99    1
    59   121   122   ar
    60     1     2    1
    61   160   161    1
    62   160   162    1
    63   142   143    1
    64   167   168    1
    65   127   128    1
    66    21    19   ar
    67    18    17   ar
    68   128   131    1
    69   126   124   ar
    70   111   112    1
    71   122   124   ar
    72    19    17   ar
    73    17    16    1
    74    99   102    1
    75    99    98    1
    76   102   103    1
    77   200   198   am
    78   131   132    1
    79   168   169   ar
    80   168   170   ar
    81     2     5    1
    82     2     3    1
    83    16    13    1
    84     5     6    1
    85    36    35    1
    86   169   171   ar
    87   170   172   ar
    88    92    91    2
    89   112   113    2
    90   199   198    2
    91   198   197    1
    92    12    13    1
    93    98    91   am
    94    13    14    1
    95     3     4    2
    96   115   113    1
    97    91    90    1
    98   171   173   ar
    99    84    83    2
   100   132   133    1
   101   132   134    1
   102   172   173   ar
   103     7     6   ar
   104     7     9   ar
   105     6     8   ar
   106   113   114    1
   107    88    86    1
   108    35    37    1
   109    35    34    1
   110   197   196    1
   111   215   213    1
   112    14    15    2
   113    14    23   am
   114    83    82    1
   115     9    11   ar
   116     8    10   ar
   117   196   193    1
   118    90    89    1
   119    90    93    1
   120    34    31    1
   121    82    85    1
   122    82    81    1
   123    85    86    1
   124    86    87    1
   125   193   192    1
   126   193   194    1
   127    76    75    2
   128    23    24    1
   129   213   214    1
   130   213   212    1
   131   195   194    2
   132    93    94    1
   133    11    10   ar
   134   208   209    1
   135   182   183    1
   136   209   212    1
   137   209   210    1
   138    96    95   ar
   139   194   201   am
   140    81    75   am
   141    75    74    1
   142    31    30    1
   143    31    32    1
   144   183   186    1
   145   183   184    1
   146    24    27    1
   147    24    25    1
   148    29    27    1
   149   211   210    2
   150    28    27    1
   151   186   187    1
   152    95    94    1
   153    95    97   ar
   154    32    38   am
   155    32    33    2
   156   201   202    1
   157   189   187   ar
   158   189   191   ar
   159    38    39    1
   160   184   185    2
   161    25    26    2
   162    74    77    1
   163    74    73    1
   164    72    70    1
   165   187   188   ar
   166    77    78    1
   167    68    67    2
   168    42    39    1
   169    39    40    1
   170    70    69    1
   171   202   203    1
   172   202   205    1
   173   191   190   ar
   174   203   204    2
   175    78    79    1
   176   223   221    1
   177   188   190   ar
   178    54    55    1
   179    54    51    1
   180    79    80    1
   181    48    47    1
   182    67    66    1
   183    63    62   ar
   184    49    47    1
   185    64    62   ar
   186    47    44    1
   187   207   205    1
   188   237   236   ar
   189   237   235   ar
   190   236   234   ar
   191   205   206    1
   192    40    41    2
   193    69    66    1
   194    69    71    1
   195    62    61    1
   196    66    65    1
   197    50    51    1
   198    50    45   am
   199   216   217    1
   200    51    52    1
   201   221   222    1
   202   221   220    1
   203   235   233   ar
   204   234   231   ar
   205   217   220    1
   206   217   218    1
   207    44    43    1
   208    44    45    1
   209    45    46    2
   210   233   231   ar
   211   233   232   ar
   212    61    60    1
   213   231   229   ar
   214   218   219    2
   215    52    53    2
   216    60    57    1
   217   232   230   ar
   218   229   228    1
   219   229   230   ar
   220   228   225    1
   221    57    56    1
   222    57    58    1
   223   227   226    2
   224    58    59    2
   225   225   226    1
   226   225   224    1
