@<TRIPOS>MOLECULE
tmp/5awaA03.pdb
 113 109 0 0 0
SMALL
GASTEIGER

@<TRIPOS>ATOM
      1  N         19.7190   13.9280   34.3290 N.3   215  PHE215     -0.1227
      2  CA        18.6190   14.4180   35.1710 C.3   215  PHE215      0.1736
      3  C         17.3040   13.7030   34.8460 C.2   215  PHE215      0.2595
      4  O         16.8790   13.7000   33.7060 O.2   215  PHE215     -0.2718
      5  CB        18.3520   15.9240   35.0280 C.3   215  PHE215      0.0547
      6  CG        17.2580   16.4060   35.9240 C.ar  215  PHE215     -0.0202
      7  CD1       17.2970   16.1170   37.2760 C.ar  215  PHE215     -0.0042
      8  CD2       16.1890   17.1340   35.4290 C.ar  215  PHE215     -0.0042
      9  CE1       16.2910   16.5520   38.1250 C.ar  215  PHE215     -0.0003
     10  CE2       15.1830   17.5790   36.2720 C.ar  215  PHE215     -0.0003
     11  CZ        15.2390   17.2970   37.6240 C.ar  215  PHE215     -0.0000
     12  N         16.6450   13.1660   35.8630 N.am  216  ASN216     -0.1974
     13  CA        15.3210   12.5550   35.7130 C.3   216  ASN216      0.1688
     14  C         15.3090   11.3500   34.7690 C.2   216  ASN216      0.2292
     15  O         14.2820   11.0040   34.2380 O.2   216  ASN216     -0.2864
     16  CB        14.2680   13.5940   35.3030 C.3   216  ASN216      0.1181
     17  CG        12.8460   13.1260   35.5710 C.2   216  ASN216      0.2629
     18  OD1       12.5660   12.4120   36.5460 O.2   216  ASN216     -0.2716
     19  ND2       11.9420   13.5130   34.6950 N.am  216  ASN216     -0.0877
     20  N         13.4110   17.7360   24.5270 N.3   300  PHE300     -0.1241
     21  CA        13.9600   17.6610   25.8610 C.3   300  PHE300      0.1605
     22  C         15.3170   18.3310   25.9340 C.2   300  PHE300      0.2264
     23  O         16.2980   17.7820   26.3920 O.2   300  PHE300     -0.2867
     24  CB        13.9370   16.2150   26.3290 C.3   300  PHE300      0.0534
     25  CG        12.5560   15.7590   26.5960 C.ar  300  PHE300     -0.0203
     26  CD1       11.8580   16.3070   27.6490 C.ar  300  PHE300     -0.0042
     27  CD2       11.9120   14.8370   25.7690 C.ar  300  PHE300     -0.0042
     28  CE1       10.5420   15.9350   27.8950 C.ar  300  PHE300     -0.0003
     29  CE2       10.6090   14.4590   26.0150 C.ar  300  PHE300     -0.0003
     30  CZ         9.9170   15.0080   27.0760 C.ar  300  PHE300     -0.0000
     31  N         15.3970   21.1570   27.5570 N.3   302  TYR302     -0.1227
     32  CA        15.0180   22.1840   28.5600 C.3   302  TYR302      0.1736
     33  C         16.1550   22.4890   29.5320 C.2   302  TYR302      0.2595
     34  O         16.9930   21.6250   29.7990 O.2   302  TYR302     -0.2718
     35  CB        13.7280   21.8400   29.3420 C.3   302  TYR302      0.0548
     36  CG        13.7580   20.6660   30.3130 C.ar  302  TYR302     -0.0200
     37  CD1       13.3450   19.4030   29.9250 C.ar  302  TYR302     -0.0009
     38  CD2       14.1390   20.8390   31.6550 C.ar  302  TYR302     -0.0009
     39  CE1       13.3380   18.3320   30.8260 C.ar  302  TYR302      0.0417
     40  CE2       14.1230   19.7800   32.5590 C.ar  302  TYR302      0.0417
     41  CZ        13.7170   18.5160   32.1460 C.ar  302  TYR302      0.1957
     42  OH        13.7210   17.4280   33.0320 O.3   302  TYR302     -0.2866
     43  N         16.2150   23.7260   30.0030 N.am  303  ILE303     -0.1980
     44  CA        17.1730   24.0860   31.0900 C.3   303  ILE303      0.1595
     45  C         16.4430   23.8750   32.3990 C.2   303  ILE303      0.2287
     46  O         15.3450   24.3940   32.6080 O.2   303  ILE303     -0.2864
     47  CB        17.7140   25.5380   31.0140 C.3   303  ILE303      0.0276
     48  CG1       18.3850   25.8110   29.6670 C.3   303  ILE303      0.0022
     49  CG2       18.7780   25.7640   32.0920 C.3   303  ILE303      0.0022
     50  CD1       18.6110   27.2740   29.3370 C.3   303  ILE303      0.0001
     51  N         15.0560   24.2930   35.9180 N.3   305  GLY305     -0.1210
     52  CA        14.7990   25.5000   36.6980 C.3   305  GLY305      0.1956
     53  C         14.3650   26.7020   35.8710 C.2   305  GLY305      0.2613
     54  O         14.0400   27.7560   36.4250 O.2   305  GLY305     -0.2717
     55  N         14.3200   26.5460   34.5500 N.am  306  SER306     -0.1938
     56  CA        14.1250   27.6780   33.6630 C.3   306  SER306      0.2055
     57  C         12.8160   27.5610   32.8750 C.2   306  SER306      0.2643
     58  O         12.5190   26.5210   32.2860 O.2   306  SER306     -0.2714
     59  CB        15.3450   27.7990   32.7300 C.3   306  SER306      0.2130
     60  OG        15.2050   28.8890   31.8410 O.3   306  SER306     -0.2179
     61  N         12.0510   28.6500   32.8630 N.am  307  TYR307     -0.1973
     62  CA        10.7390   28.7200   32.2490 C.3   307  TYR307      0.1639
     63  C         10.5940   30.0030   31.4170 C.2   307  TYR307      0.2290
     64  O          9.8400   30.9000   31.7830 O.2   307  TYR307     -0.2864
     65  CB         9.6680   28.6480   33.3430 C.3   307  TYR307      0.0560
     66  CG         8.2220   28.3530   32.9350 C.ar  307  TYR307     -0.0198
     67  CD1        7.9150   27.6710   31.7540 C.ar  307  TYR307     -0.0009
     68  CD2        7.1540   28.7020   33.7890 C.ar  307  TYR307     -0.0009
     69  CE1        6.6070   27.3650   31.4320 C.ar  307  TYR307      0.0417
     70  CE2        5.8260   28.4160   33.4680 C.ar  307  TYR307      0.0417
     71  CZ         5.5650   27.7340   32.2840 C.ar  307  TYR307      0.1957
     72  OH         4.2900   27.4340   31.9170 O.3   307  TYR307     -0.2866
     73  N          9.5460   19.2960   25.3230 N.3   330  GLY330     -0.1225
     74  CA        10.4400   19.5300   26.4770 C.3   330  GLY330      0.1811
     75  C         11.4680   20.6380   26.3290 C.2   330  GLY330      0.2280
     76  O         12.6040   20.4920   26.7930 O.2   330  GLY330     -0.2866
     77  N         10.0470   23.8970   26.9380 N.3   332  VAL332     -0.1245
     78  CA         9.3970   24.3780   28.1610 C.3   332  VAL332      0.1561
     79  C          9.3930   25.9100   28.1420 C.2   332  VAL332      0.2260
     80  O         10.4220   26.5460   28.3520 O.2   332  VAL332     -0.2867
     81  CB        10.0720   23.9200   29.4620 C.3   332  VAL332      0.0252
     82  CG1        9.2820   24.4570   30.6500 C.3   332  VAL332      0.0019
     83  CG2       10.1840   22.4020   29.5670 C.3   332  VAL332      0.0019
     84  N          4.4000   18.6710   25.4870 N.3   357  ILE357     -0.1245
     85  CA         5.0870   18.7270   26.7970 C.3   357  ILE357      0.1561
     86  C          6.0290   19.9280   26.9600 C.2   357  ILE357      0.2260
     87  O          7.2220   19.7770   27.2220 O.2   357  ILE357     -0.2867
     88  CB         5.8640   17.4460   27.1130 C.3   357  ILE357      0.0252
     89  CG1        5.1020   16.1990   26.6840 C.3   357  ILE357      0.0019
     90  CG2        6.0940   17.3420   28.6080 C.3   357  ILE357      0.0019
     91  CD1        5.8900   14.9190   26.9030 C.3   357  ILE357      0.0001
     92  N          4.6150   22.7570   28.7200 N.3   359  PHE359     -0.1241
     93  CA         3.7980   23.5620   29.6210 C.3   359  PHE359      0.1605
     94  C          3.4440   24.9340   29.0760 C.2   359  PHE359      0.2264
     95  O          3.5060   25.9180   29.7740 O.2   359  PHE359     -0.2867
     96  CB         4.5020   23.6910   30.9680 C.3   359  PHE359      0.0534
     97  CG         4.6740   22.3780   31.6510 C.ar  359  PHE359     -0.0203
     98  CD1        3.6830   21.8820   32.4750 C.ar  359  PHE359     -0.0042
     99  CD2        5.7910   21.6110   31.4200 C.ar  359  PHE359     -0.0042
    100  CE1        3.8190   20.6460   33.0580 C.ar  359  PHE359     -0.0003
    101  CE2        5.9520   20.3900   32.0300 C.ar  359  PHE359     -0.0003
    102  CZ         4.9530   19.9030   32.8420 C.ar  359  PHE359     -0.0000
    103  N         -0.5670   23.3930   28.6720 N.3   383  ARG383     -0.1245
    104  CA        -1.4680   24.0090   29.6520 C.3   383  ARG383      0.1563
    105  C         -2.3700   25.0460   29.0100 C.2   383  ARG383      0.2260
    106  O         -2.7100   26.0690   29.6100 O.2   383  ARG383     -0.2867
    107  CB        -0.6730   24.6070   30.8220 C.3   383  ARG383      0.0307
    108  CG        -0.2780   23.5810   31.8760 C.3   383  ARG383      0.0489
    109  CD         0.0190   24.2700   33.2090 C.3   383  ARG383      0.2205
    110  NE         1.1430   25.2170   33.1020 N.pl3 383  ARG383     -0.0865
    111  CZ         1.3210   26.3150   33.8420 C.cat 383  ARG383      0.5346
    112  NH1        2.3880   27.0600   33.6240 N.pl3 383  ARG383      0.1354
    113  NH2        0.4520   26.6880   34.7800 N.pl3 383  ARG383      0.1354
@<TRIPOS>BOND
     1    20    21    1
     2    73    74    1
     3    84    85    1
     4    27    29   ar
     5    27    25   ar
     6    21    22    1
     7    21    24    1
     8    22    23    2
     9    29    30   ar
    10    24    25    1
    11    75    74    1
    12    75    76    2
    13    25    26   ar
    14    89    91    1
    15    89    88    1
    16    85    86    1
    17    85    88    1
    18    77    78    1
    19    86    87    2
    20    30    28   ar
    21    88    90    1
    22    31    32    1
    23    26    28   ar
    24    79    78    1
    25    79    80    2
    26    78    81    1
    27    32    35    1
    28    32    33    1
    29   103   104    1
    30    92    93    1
    31   105   106    2
    32   105   104    1
    33    94    93    1
    34    94    95    2
    35    50    48    1
    36    35    36    1
    37    81    83    1
    38    81    82    1
    39    33    34    2
    40    33    43   am
    41    93    96    1
    42   104   107    1
    43    48    47    1
    44    37    36   ar
    45    37    39   ar
    46    43    44    1
    47    36    38   ar
    48   107   108    1
    49    39    41   ar
    50    96    97    1
    51    47    44    1
    52    47    49    1
    53    44    45    1
    54    63    64    2
    55    63    62    1
    56    99    97   ar
    57    99   101   ar
    58    69    67   ar
    59    69    71   ar
    60    97    98   ar
    61    38    40   ar
    62    67    66   ar
    63    60    59    1
    64   108   109    1
    65    72    71    1
    66   101   102   ar
    67    41    40   ar
    68    41    42    1
    69    62    61    1
    70    62    65    1
    71    71    70   ar
    72    58    57    2
    73    45    46    2
    74    98   100   ar
    75    59    56    1
    76   102   100   ar
    77    61    57   am
    78    57    56    1
    79    66    65    1
    80    66    68   ar
    81   110   109    1
    82   110   111    2
    83    70    68   ar
    84   112   111    1
    85    56    55    1
    86     4     3    2
    87   111   113    1
    88    15    14    2
    89     1     2    1
    90    55    53   am
    91    19    17   am
    92    14    13    1
    93     3     2    1
    94     3    12   am
    95     5     2    1
    96     5     6    1
    97    16    17    1
    98    16    13    1
    99     8     6   ar
   100     8    10   ar
   101    17    18    2
   102    13    12    1
   103    53    54    2
   104    53    52    1
   105    51    52    1
   106     6     7   ar
   107    10    11   ar
   108     7     9   ar
   109    11     9   ar
