@<TRIPOS>MOLECULE
tmp/5awbA00.pdb
 113 109 0 0 0
SMALL
GASTEIGER

@<TRIPOS>ATOM
      1  N        -20.5240   13.9450  -34.2240 N.3   217  PHE217     -0.1227
      2  CA       -19.5140   14.4350  -35.1800 C.3   217  PHE217      0.1736
      3  C        -18.1630   13.8040  -34.8470 C.2   217  PHE217      0.2595
      4  O        -17.7300   13.8990  -33.7330 O.2   217  PHE217     -0.2718
      5  CB       -19.3630   15.9280  -35.0790 C.3   217  PHE217      0.0547
      6  CG       -18.2870   16.4610  -35.9470 C.ar  217  PHE217     -0.0202
      7  CD1      -18.3160   16.2150  -37.3170 C.ar  217  PHE217     -0.0042
      8  CD2      -17.2320   17.1860  -35.4050 C.ar  217  PHE217     -0.0042
      9  CE1      -17.2900   16.6830  -38.1350 C.ar  217  PHE217     -0.0003
     10  CE2      -16.2260   17.6800  -36.2140 C.ar  217  PHE217     -0.0003
     11  CZ       -16.2470   17.4200  -37.5840 C.ar  217  PHE217     -0.0000
     12  N        -17.5250   13.1560  -35.8000 N.am  218  ASN218     -0.1974
     13  CA       -16.1490   12.6390  -35.6150 C.3   218  ASN218      0.1688
     14  C        -16.0050   11.5260  -34.5760 C.2   218  ASN218      0.2292
     15  O        -14.9330   11.2930  -34.0650 O.2   218  ASN218     -0.2864
     16  CB       -15.1370   13.7420  -35.2980 C.3   218  ASN218      0.1181
     17  CG       -13.6710   13.2760  -35.5070 C.2   218  ASN218      0.2629
     18  OD1      -13.2910   12.6800  -36.5420 O.2   218  ASN218     -0.2716
     19  ND2      -12.8510   13.5820  -34.5350 N.am  218  ASN218     -0.0877
     20  N        -13.7950   17.6550  -24.5120 N.3   302  PHE302     -0.1241
     21  CA       -14.4030   17.5610  -25.8250 C.3   302  PHE302      0.1605
     22  C        -15.7830   18.2090  -25.8860 C.2   302  PHE302      0.2264
     23  O        -16.7590   17.6660  -26.3580 O.2   302  PHE302     -0.2867
     24  CB       -14.3170   16.1290  -26.3350 C.3   302  PHE302      0.0534
     25  CG       -12.8800   15.6730  -26.5540 C.ar  302  PHE302     -0.0203
     26  CD1      -12.1670   16.1040  -27.6460 C.ar  302  PHE302     -0.0042
     27  CD2      -12.2370   14.8180  -25.6190 C.ar  302  PHE302     -0.0042
     28  CE1      -10.8560   15.6930  -27.8440 C.ar  302  PHE302     -0.0003
     29  CE2      -10.9180   14.3950  -25.8170 C.ar  302  PHE302     -0.0003
     30  CZ       -10.2410   14.8380  -26.9340 C.ar  302  PHE302     -0.0000
     31  N        -15.7750   21.2010  -27.3920 N.3   304  TYR304     -0.1227
     32  CA       -15.4590   22.1670  -28.4580 C.3   304  TYR304      0.1736
     33  C        -16.6440   22.4390  -29.3770 C.2   304  TYR304      0.2595
     34  O        -17.4750   21.5540  -29.6270 O.2   304  TYR304     -0.2718
     35  CB       -14.2690   21.7350  -29.3250 C.3   304  TYR304      0.0548
     36  CG       -14.5360   20.5090  -30.1630 C.ar  304  TYR304     -0.0200
     37  CD1      -14.4400   19.2200  -29.6230 C.ar  304  TYR304     -0.0009
     38  CD2      -14.8860   20.6290  -31.5010 C.ar  304  TYR304     -0.0009
     39  CE1      -14.7080   18.1070  -30.4030 C.ar  304  TYR304      0.0417
     40  CE2      -15.1410   19.5340  -32.2630 C.ar  304  TYR304      0.0417
     41  CZ       -15.0430   18.2780  -31.7370 C.ar  304  TYR304      0.1957
     42  OH       -15.3400   17.1820  -32.5670 O.3   304  TYR304     -0.2866
     43  N        -16.7030   23.6710  -29.8680 N.am  305  ILE305     -0.1980
     44  CA       -17.6650   24.0190  -30.9410 C.3   305  ILE305      0.1595
     45  C        -17.0200   23.6950  -32.2510 C.2   305  ILE305      0.2287
     46  O        -15.9170   24.1770  -32.5830 O.2   305  ILE305     -0.2864
     47  CB       -18.0450   25.4950  -30.9460 C.3   305  ILE305      0.0276
     48  CG1      -18.5810   25.8890  -29.5620 C.3   305  ILE305      0.0022
     49  CG2      -19.0440   25.7110  -32.0910 C.3   305  ILE305      0.0022
     50  CD1      -18.8340   27.3850  -29.2780 C.3   305  ILE305      0.0001
     51  N        -15.6120   23.6080  -35.7430 N.3   307  GLY307     -0.1210
     52  CA       -15.2330   24.7080  -36.6400 C.3   307  GLY307      0.1956
     53  C        -14.7080   25.9400  -35.9770 C.2   307  GLY307      0.2613
     54  O        -14.3010   26.8890  -36.6270 O.2   307  GLY307     -0.2717
     55  N        -14.6390   25.9240  -34.6710 N.am  308  SER308     -0.1938
     56  CA       -14.2970   27.1230  -33.9720 C.3   308  SER308      0.2055
     57  C        -12.9600   27.0640  -33.2350 C.2   308  SER308      0.2643
     58  O        -12.6980   26.1090  -32.5060 O.2   308  SER308     -0.2714
     59  CB       -15.4380   27.4850  -33.0140 C.3   308  SER308      0.2130
     60  OG       -14.9980   28.5350  -32.1780 O.3   308  SER308     -0.2179
     61  N        -12.1500   28.1220  -33.4080 N.am  309  TYR309     -0.1973
     62  CA       -10.8440   28.2540  -32.8280 C.3   309  TYR309      0.1639
     63  C        -10.7150   29.5940  -32.1240 C.2   309  TYR309      0.2290
     64  O         -9.8490   30.4170  -32.4360 O.2   309  TYR309     -0.2864
     65  CB        -9.7770   27.9760  -33.8790 C.3   309  TYR309      0.0560
     66  CG        -8.3430   27.6920  -33.4020 C.ar  309  TYR309     -0.0198
     67  CD1       -8.0410   27.3040  -32.0750 C.ar  309  TYR309     -0.0009
     68  CD2       -7.2710   27.8650  -34.2790 C.ar  309  TYR309     -0.0009
     69  CE1       -6.7230   27.0620  -31.6800 C.ar  309  TYR309      0.0417
     70  CE2       -5.9520   27.6340  -33.8920 C.ar  309  TYR309      0.0417
     71  CZ        -5.6800   27.2130  -32.6010 C.ar  309  TYR309      0.1957
     72  OH        -4.3740   27.0260  -32.2420 O.3   309  TYR309     -0.2866
     73  N         -9.8280   19.3100  -25.2370 N.3   332  GLY332     -0.1225
     74  CA       -10.6720   19.3680  -26.4270 C.3   332  GLY332      0.1811
     75  C        -11.7620   20.4620  -26.3510 C.2   332  GLY332      0.2280
     76  O        -12.8550   20.2580  -26.8320 O.2   332  GLY332     -0.2866
     77  N        -10.5670   23.7370  -27.1390 N.3   334  VAL334     -0.1245
     78  CA        -9.9430   24.3000  -28.3900 C.3   334  VAL334      0.1561
     79  C         -9.8380   25.8370  -28.3210 C.2   334  VAL334      0.2260
     80  O        -10.8350   26.5310  -28.3540 O.2   334  VAL334     -0.2867
     81  CB       -10.6200   23.8830  -29.7150 C.3   334  VAL334      0.0252
     82  CG1       -9.7540   24.3390  -30.9060 C.3   334  VAL334      0.0019
     83  CG2      -10.8150   22.3650  -29.8510 C.3   334  VAL334      0.0019
     84  N         -4.7500   18.6920  -25.5100 N.3   359  ILE359     -0.1245
     85  CA        -5.4330   18.6650  -26.8130 C.3   359  ILE359      0.1561
     86  C         -6.3700   19.8720  -27.0160 C.2   359  ILE359      0.2260
     87  O         -7.5610   19.6970  -27.2510 O.2   359  ILE359     -0.2867
     88  CB        -6.2440   17.3670  -27.0130 C.3   359  ILE359      0.0252
     89  CG1       -5.3930   16.1290  -26.6330 C.3   359  ILE359      0.0019
     90  CG2       -6.6100   17.2440  -28.4640 C.3   359  ILE359      0.0019
     91  CD1       -6.1560   14.8080  -26.6610 C.3   359  ILE359      0.0001
     92  N         -4.9340   22.6910  -28.9300 N.3   361  PHE361     -0.1241
     93  CA        -4.1840   23.5130  -29.9030 C.3   361  PHE361      0.1605
     94  C         -3.8220   24.8910  -29.3640 C.2   361  PHE361      0.2264
     95  O         -3.7630   25.8590  -30.1290 O.2   361  PHE361     -0.2867
     96  CB        -4.9230   23.5700  -31.2650 C.3   361  PHE361      0.0534
     97  CG        -5.1180   22.2290  -31.8590 C.ar  361  PHE361     -0.0203
     98  CD1       -4.1020   21.6490  -32.6230 C.ar  361  PHE361     -0.0042
     99  CD2       -6.2330   21.5020  -31.5670 C.ar  361  PHE361     -0.0042
    100  CE1       -4.2500   20.3960  -33.1430 C.ar  361  PHE361     -0.0003
    101  CE2       -6.4000   20.2330  -32.0980 C.ar  361  PHE361     -0.0003
    102  CZ        -5.3900   19.6850  -32.8790 C.ar  361  PHE361     -0.0000
    103  N          0.2210   23.3750  -28.8930 N.3   385  ARG385     -0.1245
    104  CA         1.1220   23.9950  -29.9020 C.3   385  ARG385      0.1563
    105  C          1.9950   25.0080  -29.2450 C.2   385  ARG385      0.2260
    106  O          2.3000   26.0800  -29.8170 O.2   385  ARG385     -0.2867
    107  CB         0.3070   24.7650  -30.9600 C.3   385  ARG385      0.0307
    108  CG        -0.4200   23.9110  -31.9410 C.3   385  ARG385      0.0489
    109  CD        -1.3780   24.8030  -32.7280 C.3   385  ARG385      0.2205
    110  NE        -1.6770   24.2160  -34.0370 N.pl3 385  ARG385     -0.0865
    111  CZ        -2.3200   24.8310  -35.0210 C.cat 385  ARG385      0.5346
    112  NH1       -2.7900   26.0830  -34.8250 N.pl3 385  ARG385      0.1354
    113  NH2       -2.4870   24.1830  -36.2010 N.pl3 385  ARG385      0.1354
@<TRIPOS>BOND
     1     9    11   ar
     2     9     7   ar
     3    11    10   ar
     4     7     6   ar
     5    52    53    1
     6    52    51    1
     7    54    53    2
     8    18    17    2
     9    10     8   ar
    10   113   111    1
    11    53    55   am
    12     6     8   ar
    13     6     5    1
    14    12    13    1
    15    12     3   am
    16    13    16    1
    17    13    14    1
    18    17    16    1
    19    17    19   am
    20     2     5    1
    21     2     3    1
    22     2     1    1
    23   111   112    1
    24   111   110    2
    25     3     4    2
    26    55    56    1
    27    14    15    2
    28    68    70   ar
    29    68    66   ar
    30   110   109    1
    31    56    57    1
    32    56    59    1
    33    70    71   ar
    34    65    66    1
    35    65    62    1
    36    61    57   am
    37    61    62    1
    38    66    67   ar
    39    57    58    2
    40   100   102   ar
    41   100    98   ar
    42    59    60    1
    43   102   101   ar
    44    62    63    1
    45   109   108    1
    46    98    97   ar
    47    71    72    1
    48    71    69   ar
    49    46    45    2
    50    42    41    1
    51    64    63    2
    52    40    41   ar
    53    40    38   ar
    54    45    44    1
    55   101    99   ar
    56    49    47    1
    57    67    69   ar
    58   108   107    1
    59    97    99   ar
    60    97    96    1
    61    41    39   ar
    62    38    36   ar
    63    96    93    1
    64   107   104    1
    65    47    44    1
    66    47    48    1
    67    44    43    1
    68    82    81    1
    69    39    37   ar
    70    36    37   ar
    71    36    35    1
    72    95    94    2
    73    93    94    1
    74    93    92    1
    75   104   105    1
    76   104   103    1
    77    43    33   am
    78    83    81    1
    79   106   105    2
    80    81    78    1
    81    34    33    2
    82    48    50    1
    83    33    32    1
    84    35    32    1
    85    90    88    1
    86    32    31    1
    87    78    79    1
    88    78    77    1
    89    80    79    2
    90    28    26   ar
    91    28    30   ar
    92    26    25   ar
    93    87    86    2
    94    86    85    1
    95    88    85    1
    96    88    89    1
    97    30    29   ar
    98    76    75    2
    99    85    84    1
   100    91    89    1
   101    25    24    1
   102    25    27   ar
   103    74    75    1
   104    74    73    1
   105    23    22    2
   106    24    21    1
   107    22    21    1
   108    21    20    1
   109    29    27   ar
