@<TRIPOS>MOLECULE
tmp/5awcA09.pdb
 105 101 0 0 0
SMALL
GASTEIGER

@<TRIPOS>ATOM
      1  N         34.3070   20.4160   37.3820 N.3   216  PHE216     -0.1227
      2  CA        33.2390   21.2500   37.8500 C.3   216  PHE216      0.1736
      3  C         32.5960   20.6290   39.0850 C.2   216  PHE216      0.2595
      4  O         32.3140   19.4400   39.1510 O.2   216  PHE216     -0.2718
      5  CB        32.2070   21.4860   36.7690 C.3   216  PHE216      0.0547
      6  CG        31.0080   22.2450   37.2480 C.ar  216  PHE216     -0.0202
      7  CD1       31.1150   23.5710   37.6070 C.ar  216  PHE216     -0.0042
      8  CD2       29.7770   21.6270   37.3620 C.ar  216  PHE216     -0.0042
      9  CE1       30.0060   24.2880   38.0210 C.ar  216  PHE216     -0.0003
     10  CE2       28.6700   22.3320   37.7750 C.ar  216  PHE216     -0.0003
     11  CZ        28.7890   23.6690   38.1110 C.ar  216  PHE216     -0.0000
     12  N         32.3680   21.4530   40.0800 N.am  217  ASN217     -0.1974
     13  CA        31.7100   21.0010   41.2970 C.3   217  ASN217      0.1688
     14  C         32.4460   19.8620   41.9660 C.2   217  ASN217      0.2292
     15  O         31.8300   18.9840   42.5900 O.2   217  ASN217     -0.2864
     16  CB        30.2580   20.6080   41.0380 C.3   217  ASN217      0.1181
     17  CG        29.4420   20.5570   42.3310 C.2   217  ASN217      0.2629
     18  OD1       29.4690   21.5210   43.0900 O.2   217  ASN217     -0.2716
     19  ND2       28.7330   19.4380   42.5900 N.am  217  ASN217     -0.0877
     20  N         26.7650   10.8930   36.1870 N.3   301  PHE301     -0.1241
     21  CA        27.3480   12.2220   36.2400 C.3   301  PHE301      0.1605
     22  C         28.0810   12.6760   34.9730 C.2   301  PHE301      0.2264
     23  O         29.1960   13.1650   35.0160 O.2   301  PHE301     -0.2867
     24  CB        28.1810   12.3820   37.5260 C.3   301  PHE301      0.0534
     25  CG        27.3190   12.4900   38.7730 C.ar  301  PHE301     -0.0203
     26  CD1       26.5050   13.6000   38.9740 C.ar  301  PHE301     -0.0042
     27  CD2       27.2840   11.4790   39.7020 C.ar  301  PHE301     -0.0042
     28  CE1       25.6860   13.6890   40.0780 C.ar  301  PHE301     -0.0003
     29  CE2       26.4690   11.5750   40.8190 C.ar  301  PHE301     -0.0003
     30  CZ        25.6610   12.6680   41.0060 C.ar  301  PHE301     -0.0000
     31  N         26.2560   14.8780   33.1120 N.3   303  TYR303     -0.1241
     32  CA        25.3720   15.9710   32.7100 C.3   303  TYR303      0.1605
     33  C         26.1340   17.0810   32.0130 C.2   303  TYR303      0.2264
     34  O         27.2810   17.3700   32.3440 O.2   303  TYR303     -0.2867
     35  CB        24.5900   16.5560   33.8860 C.3   303  TYR303      0.0534
     36  CG        25.4060   17.2320   34.9770 C.ar  303  TYR303     -0.0201
     37  CD1       25.9610   16.5030   36.0150 C.ar  303  TYR303     -0.0009
     38  CD2       25.6170   18.5980   34.9640 C.ar  303  TYR303     -0.0009
     39  CE1       26.7040   17.1170   37.0260 C.ar  303  TYR303      0.0417
     40  CE2       26.3540   19.2210   35.9560 C.ar  303  TYR303      0.0417
     41  CZ        26.8810   18.4750   36.9960 C.ar  303  TYR303      0.1957
     42  OH        27.5770   19.1070   37.9980 O.3   303  TYR303     -0.2866
     43  N         24.2490   23.3540   33.0010 N.3   306  GLY306     -0.1210
     44  CA        23.1930   24.2760   32.6260 C.3   306  GLY306      0.1956
     45  C         22.1070   23.7400   31.7130 C.2   306  GLY306      0.2613
     46  O         21.1730   24.4730   31.3870 O.2   306  GLY306     -0.2717
     47  N         22.1980   22.4950   31.2580 N.am  307  SER307     -0.1938
     48  CA        21.1820   22.0200   30.3180 C.3   307  SER307      0.2055
     49  C         20.2060   21.0440   30.9660 C.2   307  SER307      0.2643
     50  O         20.5740   20.2570   31.8490 O.2   307  SER307     -0.2714
     51  CB        21.8060   21.4710   29.0300 C.3   307  SER307      0.2130
     52  OG        22.1410   20.1210   29.1460 O.3   307  SER307     -0.2179
     53  N         18.9530   21.1440   30.5310 N.am  308  TYR308     -0.1973
     54  CA        17.8450   20.3920   31.0900 C.3   308  TYR308      0.1639
     55  C         17.0150   19.8270   29.9360 C.2   308  TYR308      0.2290
     56  O         15.8620   20.2070   29.7270 O.2   308  TYR308     -0.2864
     57  CB        16.9930   21.3040   31.9890 C.3   308  TYR308      0.0560
     58  CG        16.1820   20.6160   33.0600 C.ar  308  TYR308     -0.0198
     59  CD1       16.4850   19.3450   33.4990 C.ar  308  TYR308     -0.0009
     60  CD2       15.1350   21.2800   33.6850 C.ar  308  TYR308     -0.0009
     61  CE1       15.7530   18.7280   34.5170 C.ar  308  TYR308      0.0417
     62  CE2       14.3910   20.6760   34.6980 C.ar  308  TYR308      0.0417
     63  CZ        14.7160   19.4000   35.1200 C.ar  308  TYR308      0.1957
     64  OH        14.0030   18.7930   36.1230 O.3   308  TYR308     -0.2866
     65  N         22.6000   11.4110   37.2770 N.3   331  GLY331     -0.1225
     66  CA        23.2080   12.6910   36.9590 C.3   331  GLY331      0.1811
     67  C         23.4270   12.9040   35.5040 C.2   331  GLY331      0.2280
     68  O         24.4450   13.4280   35.1070 O.2   331  GLY331     -0.2866
     69  N         20.5290   14.1440   33.8720 N.3   333  VAL333     -0.1245
     70  CA        19.6810   15.3250   34.0950 C.3   333  VAL333      0.1561
     71  C         18.7390   15.6180   32.9310 C.2   333  VAL333      0.2260
     72  O         19.1530   16.1150   31.8880 O.2   333  VAL333     -0.2867
     73  CB        20.4190   16.6340   34.4270 C.3   333  VAL333      0.0252
     74  CG1       19.3830   17.6820   34.7160 C.3   333  VAL333      0.0019
     75  CG2       21.3420   16.5010   35.6290 C.3   333  VAL333      0.0019
     76  N         19.1340   11.0130   40.9330 N.3   358  ILE358     -0.1245
     77  CA        19.6790   12.3550   40.7690 C.3   358  ILE358      0.1561
     78  C         19.6960   12.8650   39.3340 C.2   358  ILE358      0.2260
     79  O         20.7100   13.3620   38.8650 O.2   358  ILE358     -0.2867
     80  CB        21.0760   12.5370   41.4010 C.3   358  ILE358      0.0252
     81  CG1       21.1810   11.7980   42.7440 C.3   358  ILE358      0.0019
     82  CG2       21.3600   14.0300   41.5720 C.3   358  ILE358      0.0019
     83  CD1       22.5950   11.6580   43.2770 C.3   358  ILE358      0.0001
     84  N         16.9380   14.9090   38.4460 N.3   360  PHE360     -0.1241
     85  CA        15.9230   15.9560   38.5530 C.3   360  PHE360      0.1605
     86  C         14.7280   15.6900   37.6350 C.2   360  PHE360      0.2264
     87  O         14.1360   16.6150   37.0650 O.2   360  PHE360     -0.2867
     88  CB        16.5640   17.3050   38.2980 C.3   360  PHE360      0.0534
     89  CG        17.6170   17.6500   39.3090 C.ar  360  PHE360     -0.0203
     90  CD1       17.2670   18.2810   40.5190 C.ar  360  PHE360     -0.0042
     91  CD2       18.9350   17.3430   39.0870 C.ar  360  PHE360     -0.0042
     92  CE1       18.2230   18.5770   41.4790 C.ar  360  PHE360     -0.0003
     93  CE2       19.8950   17.6420   40.0370 C.ar  360  PHE360     -0.0003
     94  CZ        19.5460   18.2770   41.2270 C.ar  360  PHE360     -0.0000
     95  N         12.6280   14.8060   41.0200 N.3   384  ARG384     -0.1245
     96  CA        11.5850   15.8340   41.2880 C.3   384  ARG384      0.1563
     97  C         10.1980   15.3050   40.8400 C.2   384  ARG384      0.2260
     98  O          9.4140   16.0050   40.1950 O.2   384  ARG384     -0.2867
     99  CB        11.9190   17.1770   40.6080 C.3   384  ARG384      0.0307
    100  CG        13.1680   17.9320   41.1090 C.3   384  ARG384      0.0489
    101  CD        12.9180   18.8230   42.3480 C.3   384  ARG384      0.2205
    102  NE        12.5510   17.9920   43.4880 N.pl3 384  ARG384     -0.0865
    103  CZ        11.3570   17.9440   44.1110 C.cat 384  ARG384      0.5346
    104  NH1       10.3440   18.7620   43.8140 N.pl3 384  ARG384      0.1354
    105  NH2       11.2140   17.0800   45.1180 N.pl3 384  ARG384      0.1354
@<TRIPOS>BOND
     1    51    52    1
     2    51    48    1
     3    56    55    2
     4    55    54    1
     5    48    49    1
     6    48    47    1
     7    53    49   am
     8    53    54    1
     9    49    50    2
    10    54    57    1
    11    47    45   am
    12    46    45    2
    13    45    44    1
    14    72    71    2
    15    57    58    1
    16    33    34    2
    17    33    32    1
    18    44    43    1
    19    32    31    1
    20    32    35    1
    21    71    70    1
    22    58    59   ar
    23    58    60   ar
    24    59    61   ar
    25    60    62   ar
    26    69    70    1
    27    35    36    1
    28    70    73    1
    29    73    74    1
    30    73    75    1
    31    61    63   ar
    32    62    63   ar
    33    38    36   ar
    34    38    40   ar
    35    22    23    2
    36    22    21    1
    37    36    37   ar
    38    68    67    2
    39    63    64    1
    40    67    66    1
    41    40    41   ar
    42    37    39   ar
    43    20    21    1
    44    21    24    1
    45     5     6    1
    46     5     2    1
    47    66    65    1
    48    41    39   ar
    49    41    42    1
    50    87    86    2
    51     6     8   ar
    52     6     7   ar
    53     8    10   ar
    54     1     2    1
    55    24    25    1
    56     7     9   ar
    57    86    85    1
    58    10    11   ar
    59     2     3    1
    60     9    11   ar
    61    88    85    1
    62    88    89    1
    63    84    85    1
    64    25    26   ar
    65    25    27   ar
    66    79    78    2
    67    26    28   ar
    68     3     4    2
    69     3    12   am
    70    91    89   ar
    71    91    93   ar
    72    89    90   ar
    73    78    77    1
    74    27    29   ar
    75    93    94   ar
    76    28    30   ar
    77    12    13    1
    78    98    97    2
    79    90    92   ar
    80    99   100    1
    81    99    96    1
    82    77    76    1
    83    77    80    1
    84    29    30   ar
    85    97    96    1
    86    95    96    1
    87    16    13    1
    88    16    17    1
    89   100   101    1
    90    94    92   ar
    91    13    14    1
    92    80    82    1
    93    80    81    1
    94    14    15    2
    95    17    19   am
    96    17    18    2
    97   101   102    1
    98    81    83    1
    99   102   103    2
   100   104   103    1
   101   103   105    1
