@<TRIPOS>MOLECULE
tmp/5awdA06.pdb
 136 131 0 0 0
SMALL
GASTEIGER

@<TRIPOS>ATOM
      1  N        -25.6120   -1.8400  -20.3830 N.3   165  SER165     -0.1202
      2  CA       -24.9490   -1.0640  -21.4120 C.3   165  SER165      0.2020
      3  C        -24.7280   -1.7490  -22.7360 C.2   165  SER165      0.2618
      4  O        -24.5190   -2.9520  -22.8090 O.2   165  SER165     -0.2717
      5  CB       -23.6680   -0.4960  -20.8280 C.3   165  SER165      0.2103
      6  OG       -23.9970    0.2110  -19.6170 O.3   165  SER165     -0.2182
      7  N        -24.8100   -0.9750  -23.8100 N.am  166  PHE166     -0.1975
      8  CA       -24.5820   -1.5180  -25.1660 C.3   166  PHE166      0.1639
      9  C        -25.5350   -2.6560  -25.4940 C.2   166  PHE166      0.2290
     10  O        -25.1510   -3.7410  -25.9210 O.2   166  PHE166     -0.2864
     11  CB       -23.0810   -1.8840  -25.4000 C.3   166  PHE166      0.0560
     12  CG       -22.1660   -0.6800  -25.3040 C.ar  166  PHE166     -0.0200
     13  CD1      -21.6740   -0.2820  -24.1040 C.ar  166  PHE166     -0.0042
     14  CD2      -21.8820    0.0890  -26.4190 C.ar  166  PHE166     -0.0042
     15  CE1      -20.8960    0.8460  -24.0020 C.ar  166  PHE166     -0.0003
     16  CE2      -21.0820    1.2150  -26.3350 C.ar  166  PHE166     -0.0003
     17  CZ       -20.6040    1.6100  -25.1270 C.ar  166  PHE166     -0.0000
     18  N        -25.8400    0.6010  -14.7110 N.3   184  PHE184     -0.1241
     19  CA       -25.1530    0.9400  -15.9540 C.3   184  PHE184      0.1605
     20  C        -26.1370    0.8360  -17.1550 C.2   184  PHE184      0.2264
     21  O        -26.5530   -0.2580  -17.5590 O.2   184  PHE184     -0.2867
     22  CB       -23.8860    0.0450  -16.1420 C.3   184  PHE184      0.0534
     23  CG       -22.7970    0.2670  -15.0940 C.ar  184  PHE184     -0.0203
     24  CD1      -22.7520   -0.5000  -13.9260 C.ar  184  PHE184     -0.0042
     25  CD2      -21.7730    1.1850  -15.3020 C.ar  184  PHE184     -0.0042
     26  CE1      -21.7420   -0.3310  -12.9840 C.ar  184  PHE184     -0.0003
     27  CE2      -20.7780    1.3800  -14.3530 C.ar  184  PHE184     -0.0003
     28  CZ       -20.7450    0.5940  -13.2070 C.ar  184  PHE184     -0.0000
     29  N        -25.4690    2.6510  -20.3050 N.3   186  SER186     -0.1217
     30  CA       -24.7610    3.3750  -21.3620 C.3   186  SER186      0.1889
     31  C        -25.1040    2.8050  -22.7240 C.2   186  SER186      0.2288
     32  O        -25.2650    1.5900  -22.8740 O.2   186  SER186     -0.2866
     33  CB       -23.2480    3.3190  -21.1550 C.3   186  SER186      0.2089
     34  OG       -22.5750    4.1220  -22.1160 O.3   186  SER186     -0.2183
     35  N        -24.1190    4.9740   -8.0480 N.3   206  LEU206     -0.1245
     36  CA       -23.6580    5.2320   -9.4000 C.3   206  LEU206      0.1561
     37  C        -24.7200    5.0430  -10.4410 C.2   206  LEU206      0.2260
     38  O        -25.3880    4.0060  -10.4890 O.2   206  LEU206     -0.2867
     39  CB       -22.4900    4.3140   -9.7580 C.3   206  LEU206      0.0270
     40  CG       -21.9350    4.5450  -11.1730 C.3   206  LEU206      0.0019
     41  CD1      -20.4610    4.2450  -11.2060 C.3   206  LEU206      0.0001
     42  CD2      -22.6550    3.6610  -12.1820 C.3   206  LEU206      0.0001
     43  N        -25.0200    5.4660  -14.7560 N.3   208  ASP208     -0.1239
     44  CA       -24.3610    5.7020  -16.0330 C.3   208  ASP208      0.1674
     45  C        -25.3930    5.7960  -17.1280 C.2   208  ASP208      0.2266
     46  O        -25.9160    4.7780  -17.5370 O.2   208  ASP208     -0.2867
     47  CB       -23.4270    4.5320  -16.3800 C.3   208  ASP208      0.1410
     48  CG       -22.6350    4.7660  -17.6420 C.2   208  ASP208      0.3668
     49  OD1      -22.7050    5.8870  -18.2020 O.co2 208  ASP208     -0.2456
     50  OD2      -21.9470    3.8060  -18.0860 O.co2 208  ASP208     -0.2456
     51  N        -24.5460    7.7770  -20.0000 N.3   210  SER210     -0.1217
     52  CA       -23.6820    8.1220  -21.1610 C.3   210  SER210      0.1889
     53  C        -24.1250    7.5060  -22.4660 C.2   210  SER210      0.2288
     54  O        -24.6750    6.3990  -22.4870 O.2   210  SER210     -0.2866
     55  CB       -22.2360    7.6440  -20.8790 C.3   210  SER210      0.2089
     56  OG       -22.1180    6.2140  -20.9210 O.3   210  SER210     -0.2183
     57  N        -21.4520    8.9080   -8.2720 N.3   247  TYR247     -0.1227
     58  CA       -21.0180    8.8600   -9.6420 C.3   247  TYR247      0.1736
     59  C        -22.1830    9.0730  -10.6070 C.2   247  TYR247      0.2595
     60  O        -23.1400    8.2860  -10.6540 O.2   247  TYR247     -0.2718
     61  CB       -20.3260    7.5230   -9.9310 C.3   247  TYR247      0.0548
     62  CG       -19.0690    7.2860   -9.0740 C.ar  247  TYR247     -0.0200
     63  CD1      -19.1660    6.7650   -7.7820 C.ar  247  TYR247     -0.0009
     64  CD2      -17.7880    7.5840   -9.5590 C.ar  247  TYR247     -0.0009
     65  CE1      -18.0350    6.5530   -6.9960 C.ar  247  TYR247      0.0417
     66  CE2      -16.6490    7.3940   -8.7780 C.ar  247  TYR247      0.0417
     67  CZ       -16.7760    6.8760   -7.4980 C.ar  247  TYR247      0.1957
     68  OH       -15.6590    6.6860   -6.7010 O.3   247  TYR247     -0.2866
     69  N        -22.0090   10.0660  -11.4730 N.am  248  LEU248     -0.1966
     70  CA       -22.9620   10.3320  -12.5560 C.3   248  LEU248      0.1728
     71  C        -22.2930   10.4510  -13.9080 C.2   248  LEU248      0.2616
     72  O        -21.4020   11.2930  -14.1280 O.2   248  LEU248     -0.2715
     73  CB       -23.7810   11.6080  -12.2470 C.3   248  LEU248      0.0311
     74  CG       -24.9310   11.8900  -13.2390 C.3   248  LEU248      0.0022
     75  CD1      -25.9800   10.7930  -13.1980 C.3   248  LEU248      0.0001
     76  CD2      -25.5160   13.2720  -12.9670 C.3   248  LEU248      0.0001
     77  N        -22.6740    9.5640  -14.8140 N.am  249  ASN249     -0.1972
     78  CA       -22.0770    9.5950  -16.1020 C.3   249  ASN249      0.1688
     79  C        -23.1030   10.0010  -17.1610 C.2   249  ASN249      0.2292
     80  O        -23.9900    9.2290  -17.5300 O.2   249  ASN249     -0.2864
     81  CB       -21.3970    8.2640  -16.4870 C.3   249  ASN249      0.1181
     82  CG       -20.3770    8.4410  -17.5990 C.2   249  ASN249      0.2629
     83  OD1      -20.4060    9.4270  -18.3370 O.2   249  ASN249     -0.2716
     84  ND2      -19.4730    7.4620  -17.7540 N.am  249  ASN249     -0.0877
     85  N        -18.1550   12.4670   -8.5720 N.3   271  VAL271     -0.1245
     86  CA       -17.5920   12.3600   -9.8800 C.3   271  VAL271      0.1561
     87  C        -18.6910   12.5850  -10.9060 C.2   271  VAL271      0.2260
     88  O        -19.6900   11.8700  -10.9730 O.2   271  VAL271     -0.2867
     89  CB       -16.9230   11.0000  -10.1180 C.3   271  VAL271      0.0252
     90  CG1      -16.3730   10.8930  -11.5290 C.3   271  VAL271      0.0019
     91  CG2      -15.8260   10.7700   -9.0590 C.3   271  VAL271      0.0019
     92  N        -19.2280   13.1310  -14.9530 N.3   273  ASP273     -0.1239
     93  CA       -18.6610   12.9560  -16.2800 C.3   273  ASP273      0.1674
     94  C        -19.5810   13.5820  -17.3610 C.2   273  ASP273      0.2266
     95  O        -20.7070   13.0970  -17.6020 O.2   273  ASP273     -0.2867
     96  CB       -18.4810   11.4620  -16.5180 C.3   273  ASP273      0.1410
     97  CG       -17.3920   11.1600  -17.4950 C.2   273  ASP273      0.3668
     98  OD1      -17.1310   12.0040  -18.4030 O.co2 273  ASP273     -0.2456
     99  OD2      -16.8220   10.0500  -17.3640 O.co2 273  ASP273     -0.2456
    100  N        -13.5630   -1.6980  -19.3130 N.3   397  SER397     -0.1202
    101  CA       -12.9440   -0.3830  -19.1760 C.3   397  SER397      0.2020
    102  C        -13.9520    0.6900  -19.4390 C.2   397  SER397      0.2619
    103  O        -14.9800    0.4550  -20.0260 O.2   397  SER397     -0.2717
    104  CB       -11.8930   -0.1530  -20.2570 C.3   397  SER397      0.2103
    105  OG       -10.9220   -1.1590  -20.2320 O.3   397  SER397     -0.2182
    106  N        -13.5460    1.9000  -19.1250 N.am  398  ASN398     -0.1960
    107  CA       -14.2600    3.1060  -19.4520 C.3   398  ASN398      0.1819
    108  C        -14.2500    3.3440  -20.9590 C.2   398  ASN398      0.2621
    109  O        -13.2380    3.1620  -21.6280 O.2   398  ASN398     -0.2715
    110  CB       -13.6150    4.2710  -18.7150 C.3   398  ASN398      0.1195
    111  CG       -14.5080    5.4910  -18.6860 C.2   398  ASN398      0.2630
    112  OD1      -14.8120    6.0860  -19.7300 O.2   398  ASN398     -0.2716
    113  ND2      -14.8830    5.8960  -17.5010 N.am  398  ASN398     -0.0877
    114  N        -15.3910    3.7300  -21.5020 N.am  399  PHE399     -0.1960
    115  CA       -15.5060    3.8020  -22.9360 C.3   399  PHE399      0.1771
    116  C        -15.0560    5.1290  -23.4970 C.2   399  PHE399      0.2619
    117  O        -14.6810    5.1660  -24.6480 O.2   399  PHE399     -0.2715
    118  CB       -16.9540    3.5360  -23.3290 C.3   399  PHE399      0.0574
    119  CG       -17.1900    3.4610  -24.7930 C.ar  399  PHE399     -0.0200
    120  CD1      -16.7660    2.3810  -25.5240 C.ar  399  PHE399     -0.0042
    121  CD2      -17.8880    4.4570  -25.4260 C.ar  399  PHE399     -0.0042
    122  CE1      -17.0000    2.3070  -26.8830 C.ar  399  PHE399     -0.0003
    123  CE2      -18.1590    4.3810  -26.7710 C.ar  399  PHE399     -0.0003
    124  CZ       -17.6940    3.3200  -27.5140 C.ar  399  PHE399     -0.0000
    125  N        -15.1840    6.2040  -22.7250 N.am  400  TYR400     -0.1974
    126  CA       -15.0600    7.5720  -23.2280 C.3   400  TYR400      0.1639
    127  C        -13.6510    8.1490  -23.0340 C.2   400  TYR400      0.2290
    128  O        -13.2340    9.0170  -23.8140 O.2   400  TYR400     -0.2864
    129  CB       -16.1900    8.4820  -22.6570 C.3   400  TYR400      0.0560
    130  CG       -17.5210    8.0930  -23.2560 C.ar  400  TYR400     -0.0198
    131  CD1      -17.8130    8.4040  -24.5800 C.ar  400  TYR400     -0.0009
    132  CD2      -18.4370    7.3220  -22.5610 C.ar  400  TYR400     -0.0009
    133  CE1      -18.9910    7.9870  -25.1930 C.ar  400  TYR400      0.0417
    134  CE2      -19.6120    6.8850  -23.1650 C.ar  400  TYR400      0.0417
    135  CZ       -19.8960    7.2410  -24.4850 C.ar  400  TYR400      0.1957
    136  OH       -21.0200    6.7570  -25.1590 O.3   400  TYR400     -0.2866
@<TRIPOS>BOND
     1   124   122   ar
     2   124   123   ar
     3   122   120   ar
     4   123   121   ar
     5    14    16   ar
     6    14    12   ar
     7    16    17   ar
     8    10     9    2
     9   120   119   ar
    10     9     8    1
    11   121   119   ar
    12    11    12    1
    13    11     8    1
    14    12    13   ar
    15   133   131   ar
    16   133   135   ar
    17     8     7    1
    18   136   135    1
    19    17    15   ar
    20   119   118    1
    21   117   116    2
    22   131   130   ar
    23   135   134   ar
    24    13    15   ar
    25   128   127    2
    26     7     3   am
    27   116   115    1
    28   116   125   am
    29   118   115    1
    30   130   129    1
    31   130   132   ar
    32   126   127    1
    33   126   125    1
    34   126   129    1
    35   134   132   ar
    36   115   114    1
    37    32    31    2
    38     4     3    2
    39     3     2    1
    40    31    30    1
    41    54    53    2
    42    53    52    1
    43    34    33    1
    44   109   108    2
    45   114   108   am
    46     2     5    1
    47     2     1    1
    48    30    33    1
    49    30    29    1
    50    52    55    1
    51    52    51    1
    52   108   107    1
    53    56    55    1
    54     5     6    1
    55   104   105    1
    56   104   101    1
    57   103   102    2
    58   112   111    2
    59   107   106    1
    60   107   110    1
    61   102   101    1
    62   102   106   am
    63   100   101    1
    64   110   111    1
    65   111   113   am
    66    98    97   ar
    67    83    82    2
    68    49    48   ar
    69    50    48   ar
    70    84    82   am
    71    48    47    1
    72    95    94    2
    73    82    81    1
    74    21    20    2
    75    46    45    2
    76    80    79    2
    77    97    99   ar
    78    97    96    1
    79    94    93    1
    80    79    78    1
    81    20    19    1
    82    45    44    1
    83    96    93    1
    84    81    78    1
    85    47    44    1
    86    93    92    1
    87    22    19    1
    88    22    23    1
    89    78    77    1
    90    44    43    1
    91    19    18    1
    92    25    23   ar
    93    25    27   ar
    94    23    24   ar
    95    77    71   am
    96    27    28   ar
    97    72    71    2
    98    24    26   ar
    99    71    70    1
   100    74    75    1
   101    74    76    1
   102    74    73    1
   103    28    26   ar
   104    70    73    1
   105    70    69    1
   106    42    40    1
   107    90    89    1
   108    69    59   am
   109    41    40    1
   110    40    39    1
   111    88    87    2
   112    87    86    1
   113    60    59    2
   114    59    58    1
   115    38    37    2
   116    37    36    1
   117    89    86    1
   118    89    91    1
   119    61    58    1
   120    61    62    1
   121    86    85    1
   122    39    36    1
   123    58    57    1
   124    64    62   ar
   125    64    66   ar
   126    36    35    1
   127    62    63   ar
   128    66    67   ar
   129    63    65   ar
   130    67    65   ar
   131    67    68    1
