@<TRIPOS>MOLECULE
tmp/5awdA10.pdb
 128 118 0 0 0
SMALL
GASTEIGER

@<TRIPOS>ATOM
      1  N         -1.0620   19.1290  -16.4890 N.3   380  TYR380     -0.1241
      2  CA        -0.9620   18.2760  -17.6780 C.3   380  TYR380      0.1605
      3  C         -1.2580   19.0510  -18.9640 C.2   380  TYR380      0.2264
      4  O         -2.4320   19.3440  -19.2250 O.2   380  TYR380     -0.2867
      5  CB        -1.9720   17.1590  -17.5720 C.3   380  TYR380      0.0534
      6  CG        -1.8020   16.0650  -18.6060 C.ar  380  TYR380     -0.0201
      7  CD1       -0.7820   15.1130  -18.4950 C.ar  380  TYR380     -0.0009
      8  CD2       -2.6870   15.9680  -19.6740 C.ar  380  TYR380     -0.0009
      9  CE1       -0.6550   14.1080  -19.4550 C.ar  380  TYR380      0.0417
     10  CE2       -2.5790   14.9790  -20.6280 C.ar  380  TYR380      0.0417
     11  CZ        -1.5620   14.0570  -20.5200 C.ar  380  TYR380      0.1957
     12  OH        -1.4730   13.0960  -21.4890 O.3   380  TYR380     -0.2866
     13  N         -0.0360   18.0050  -22.2410 N.3   382  SER382     -0.1217
     14  CA         0.3950   17.1610  -23.3790 C.3   382  SER382      0.1889
     15  C         -0.4590   17.4260  -24.6040 C.2   382  SER382      0.2288
     16  O         -1.6600   17.4470  -24.5040 O.2   382  SER382     -0.2866
     17  CB         0.2080   15.6890  -23.0190 C.3   382  SER382      0.2089
     18  OG         0.8610   14.7940  -23.9150 O.3   382  SER382     -0.2183
     19  N         -5.6770    5.3250  -17.3390 N.3   404  ARG404     -0.1245
     20  CA        -4.3460    5.2950  -16.7520 C.3   404  ARG404      0.1563
     21  C         -3.9060    6.6560  -16.1570 C.2   404  ARG404      0.2260
     22  O         -4.4850    7.7110  -16.4400 O.2   404  ARG404     -0.2867
     23  CB        -3.3620    4.7510  -17.7860 C.3   404  ARG404      0.0307
     24  CG        -2.8010    5.8080  -18.6910 C.3   404  ARG404      0.0489
     25  CD        -3.2020    5.6760  -20.1390 C.3   404  ARG404      0.2205
     26  NE        -2.2060    6.3910  -20.9300 N.pl3 404  ARG404     -0.0865
     27  CZ        -2.0820    7.7190  -20.9730 C.cat 404  ARG404      0.5346
     28  NH1       -2.9260    8.5110  -20.3090 N.pl3 404  ARG404      0.1354
     29  NH2       -1.1120    8.2680  -21.7010 N.pl3 404  ARG404      0.1354
     30  N         -2.2520   10.2210  -15.5650 N.3   406  LEU406     -0.1231
     31  CA        -1.8660   11.1920  -16.5670 C.3   406  LEU406      0.1693
     32  C         -0.3650   11.2320  -16.7010 C.2   406  LEU406      0.2592
     33  O          0.1450   11.3740  -17.8090 O.2   406  LEU406     -0.2718
     34  CB        -2.3790   12.5820  -16.2050 C.3   406  LEU406      0.0284
     35  CG        -3.8870   12.7180  -16.3910 C.3   406  LEU406      0.0019
     36  CD1       -4.3660   13.9770  -15.7300 C.3   406  LEU406      0.0001
     37  CD2       -4.3030   12.6820  -17.8460 C.3   406  LEU406      0.0001
     38  N          0.3000   11.1900  -15.5480 N.am  407  ILE407     -0.1966
     39  CA         1.7570   11.2640  -15.4080 C.3   407  ILE407      0.1727
     40  C          2.2040    9.9290  -14.8240 C.2   407  ILE407      0.2616
     41  O          1.4840    9.3170  -14.0160 O.2   407  ILE407     -0.2715
     42  CB         2.1290   12.3230  -14.3580 C.3   407  ILE407      0.0290
     43  CG1        1.3690   13.6210  -14.6260 C.3   407  ILE407      0.0022
     44  CG2        3.6280   12.5950  -14.3470 C.3   407  ILE407      0.0023
     45  CD1        2.0080   14.4830  -15.6720 C.3   407  ILE407      0.0001
     46  N          3.3360    9.4240  -15.2820 N.am  408  LYS408     -0.1977
     47  CA         3.8300    8.1640  -14.7490 C.3   408  LYS408      0.1596
     48  C          3.9470    8.2480  -13.2270 C.2   408  LYS408      0.2287
     49  O          4.4760    9.2160  -12.7100 O.2   408  LYS408     -0.2864
     50  CB         5.2130    7.8280  -15.3200 C.3   408  LYS408      0.0298
     51  CG         5.2080    6.8850  -16.5090 C.3   408  LYS408      0.0038
     52  CD         6.6390    6.5150  -16.9080 C.3   408  LYS408      0.0206
     53  CE         7.3770    5.7770  -15.7850 C.3   408  LYS408      0.1093
     54  NZ         8.3580    4.7510  -16.2620 N.3   408  LYS408     -0.1314
     55  N          7.2510    9.3010  -11.6710 N.3   411  CYS411     -0.1235
     56  CA         7.7060   10.6630  -11.8430 C.3   411  CYS411      0.1677
     57  C          6.8470   11.5450  -10.8950 C.2   411  CYS411      0.2270
     58  O          7.3440   12.4590  -10.2310 O.2   411  CYS411     -0.2867
     59  CB         7.4750   11.0740  -13.3090 C.3   411  CYS411      0.0956
     60  SG         8.1810   12.6130  -13.8800 S.3   411  CYS411     -0.0801
     61  N          3.7420   18.3240  -17.4460 N.3   419  ASP419     -0.1239
     62  CA         3.8750   17.5110  -18.6440 C.3   419  ASP419      0.1674
     63  C          3.5990   18.3870  -19.8550 C.2   419  ASP419      0.2266
     64  O          2.4710   18.7850  -20.0730 O.2   419  ASP419     -0.2867
     65  CB         2.8760   16.3700  -18.5750 C.3   419  ASP419      0.1410
     66  CG         3.0310   15.4110  -19.7310 C.2   419  ASP419      0.3668
     67  OD1        3.4980   15.8290  -20.8120 O.co2 419  ASP419     -0.2456
     68  OD2        2.6640   14.2400  -19.5380 O.co2 419  ASP419     -0.2456
     69  N          4.7150   17.2400  -22.8500 N.3   421  SER421     -0.1202
     70  CA         5.0390   16.2950  -23.9170 C.3   421  SER421      0.2020
     71  C          4.1440   16.5130  -25.1250 C.2   421  SER421      0.2618
     72  O          3.0590   17.0050  -24.9920 O.2   421  SER421     -0.2717
     73  CB         4.9290   14.8550  -23.4460 C.3   421  SER421      0.2103
     74  OG         3.5980   14.4800  -23.0960 O.3   421  SER421     -0.2182
     75  N          4.6270   16.1430  -26.3080 N.am  422  LEU422     -0.1979
     76  CA         3.8550   16.2600  -27.5620 C.3   422  LEU422      0.1596
     77  C          3.4250   17.6930  -27.8490 C.2   422  LEU422      0.2287
     78  O          2.2420   17.9840  -28.1210 O.2   422  LEU422     -0.2864
     79  CB         2.6690   15.3010  -27.5650 C.3   422  LEU422      0.0297
     80  CG         3.0850   13.8470  -27.4200 C.3   422  LEU422      0.0022
     81  CD1        1.9800   12.9930  -26.8380 C.3   422  LEU422      0.0001
     82  CD2        3.5470   13.2840  -28.7440 C.3   422  LEU422      0.0001
     83  N          8.1250   16.6030  -18.0490 N.3   443  ASN443     -0.1240
     84  CA         8.0510   15.7740  -19.2220 C.3   443  ASN443      0.1653
     85  C          8.1220   16.6400  -20.4370 C.2   443  ASN443      0.2266
     86  O          7.2300   17.4950  -20.6840 O.2   443  ASN443     -0.2867
     87  CB         6.8040   14.9170  -19.2130 C.3   443  ASN443      0.1155
     88  CG         6.8660   13.8210  -20.2830 C.2   443  ASN443      0.2627
     89  OD1        7.7290   13.8390  -21.1670 O.2   443  ASN443     -0.2716
     90  ND2        5.9680   12.8610  -20.1900 N.am  443  ASN443     -0.0877
     91  N          9.0580   15.0220  -23.4510 N.3   445  SER445     -0.1202
     92  CA         9.0570   14.0320  -24.5410 C.3   445  SER445      0.2020
     93  C          8.4030   14.6150  -25.8230 C.2   445  SER445      0.2618
     94  O          7.4140   15.3120  -25.7400 O.2   445  SER445     -0.2717
     95  CB         8.2720   12.8090  -24.0900 C.3   445  SER445      0.2103
     96  OG         8.2410   11.8010  -25.1030 O.3   445  SER445     -0.2182
     97  N          8.9550   14.3120  -26.9910 N.am  446  ALA446     -0.1979
     98  CA         8.3180   14.5700  -28.3120 C.3   446  ALA446      0.1597
     99  C          7.9640   16.0220  -28.5730 C.2   446  ALA446      0.2287
    100  O          6.8080   16.3420  -28.8660 O.2   446  ALA446     -0.2864
    101  CB         7.1200   13.6670  -28.5490 C.3   446  ALA446      0.0319
    102  N         13.0540   14.1810  -11.8190 N.3   466  TYR466     -0.1241
    103  CA        12.7620   13.1640  -12.8470 C.3   466  TYR466      0.1605
    104  C         12.5140   13.8890  -14.1630 C.2   466  TYR466      0.2264
    105  O         11.5430   14.6530  -14.2610 O.2   466  TYR466     -0.2867
    106  CB        11.5380   12.3610  -12.4240 C.3   466  TYR466      0.0534
    107  CG        11.2170   11.1060  -13.2420 C.ar  466  TYR466     -0.0201
    108  CD1       11.0910   11.1530  -14.6380 C.ar  466  TYR466     -0.0009
    109  CD2       10.9900    9.8810  -12.6120 C.ar  466  TYR466     -0.0009
    110  CE1       10.7910   10.0080  -15.3730 C.ar  466  TYR466      0.0417
    111  CE2       10.6730    8.7390  -13.3460 C.ar  466  TYR466      0.0417
    112  CZ        10.5600    8.8220  -14.7200 C.ar  466  TYR466      0.1957
    113  OH        10.2290    7.7070  -15.4310 O.3   466  TYR466     -0.2866
    114  N         12.0750   13.6650  -18.2380 N.3   468  ASP468     -0.1239
    115  CA        11.7760   12.8250  -19.4150 C.3   468  ASP468      0.1674
    116  C         12.0390   13.6610  -20.6440 C.2   468  ASP468      0.2266
    117  O         11.3250   14.6350  -20.9110 O.2   468  ASP468     -0.2867
    118  CB        10.3410   12.3060  -19.3760 C.3   468  ASP468      0.1410
    119  CG        10.0020   11.3280  -20.5240 C.2   468  ASP468      0.3668
    120  OD1       10.5420   11.4510  -21.6510 O.co2 468  ASP468     -0.2456
    121  OD2        9.1050   10.4720  -20.3160 O.co2 468  ASP468     -0.2456
    122  N         12.4730   12.0700  -23.7350 N.3   470  THR470     -0.1218
    123  CA        12.4860   11.0430  -24.7550 C.3   470  THR470      0.1862
    124  C         11.9310   11.5410  -26.0410 C.2   470  THR470      0.2287
    125  O         11.1890   12.5320  -26.0960 O.2   470  THR470     -0.2866
    126  CB        11.6680    9.8280  -24.3770 C.3   470  THR470      0.1770
    127  OG1       10.2960   10.2030  -24.2740 O.3   470  THR470     -0.2211
    128  CG2       12.1570    9.2640  -23.0750 C.3   470  THR470      0.0375
@<TRIPOS>BOND
     1   100    99    2
     2    82    80    1
     3    99    98    1
     4   101    98    1
     5    98    97    1
     6    78    77    2
     7    77    76    1
     8    79    76    1
     9    79    80    1
    10    76    75    1
    11    80    81    1
    12    97    93   am
    13    75    71   am
    14   125   124    2
    15   124   123    1
    16    93    94    2
    17    93    92    1
    18    71    72    2
    19    71    70    1
    20    96    95    1
    21   123   126    1
    22   123   122    1
    23    15    16    2
    24    15    14    1
    25    92    95    1
    26    92    91    1
    27   126   127    1
    28   126   128    1
    29    70    73    1
    30    70    69    1
    31    18    17    1
    32    73    74    1
    33    14    17    1
    34    14    13    1
    35    29    27    1
    36   120   119   ar
    37    12    11    1
    38    89    88    2
    39    27    26    2
    40    27    28    1
    41    26    25    1
    42   117   116    2
    43    67    66   ar
    44    86    85    2
    45   116   115    1
    46    10    11   ar
    47    10     8   ar
    48   119   121   ar
    49   119   118    1
    50    11     9   ar
    51    85    84    1
    52    88    90   am
    53    88    87    1
    54    25    24    1
    55    64    63    2
    56    63    62    1
    57    66    68   ar
    58    66    65    1
    59     8     6   ar
    60     9     7   ar
    61   115   118    1
    62   115   114    1
    63     4     3    2
    64    84    87    1
    65    84    83    1
    66     3     2    1
    67    24    23    1
    68    62    65    1
    69    62    61    1
    70     6     7   ar
    71     6     5    1
    72    37    35    1
    73    33    32    2
    74    23    20    1
    75     2     5    1
    76     2     1    1
    77    19    20    1
    78    52    51    1
    79    52    53    1
    80    20    21    1
    81    32    31    1
    82    32    38   am
    83    31    34    1
    84    31    30    1
    85    51    50    1
    86    22    21    2
    87    35    34    1
    88    35    36    1
    89    54    53    1
    90    45    43    1
    91    38    39    1
    92   113   112    1
    93    39    40    1
    94    39    42    1
    95   110   112   ar
    96   110   108   ar
    97    50    47    1
    98    46    40   am
    99    46    47    1
   100    40    41    2
   101    47    48    1
   102   112   111   ar
   103   108   107   ar
   104    43    42    1
   105    42    44    1
   106   105   104    2
   107   104   103    1
   108    60    59    1
   109   111   109   ar
   110    59    56    1
   111   107   109   ar
   112   107   106    1
   113    48    49    2
   114   103   106    1
   115   103   102    1
   116    56    55    1
   117    56    57    1
   118    57    58    2
