@<TRIPOS>MOLECULE
tmp/5awdA04.pdb
 105 101 0 0 0
SMALL
GASTEIGER

@<TRIPOS>ATOM
      1  N        -20.4720   13.3690  -34.1470 N.3   217  PHE217     -0.1227
      2  CA       -19.5330   13.8950  -35.1050 C.3   217  PHE217      0.1736
      3  C        -18.1580   13.3190  -34.8280 C.2   217  PHE217      0.2595
      4  O        -17.6850   13.3800  -33.7220 O.2   217  PHE217     -0.2718
      5  CB       -19.4090   15.3990  -34.9670 C.3   217  PHE217      0.0547
      6  CG       -18.3310   15.9650  -35.8280 C.ar  217  PHE217     -0.0202
      7  CD1      -18.3770   15.7700  -37.1980 C.ar  217  PHE217     -0.0042
      8  CD2      -17.3020   16.7030  -35.2880 C.ar  217  PHE217     -0.0042
      9  CE1      -17.3900   16.2890  -38.0200 C.ar  217  PHE217     -0.0003
     10  CE2      -16.3320   17.2470  -36.1030 C.ar  217  PHE217     -0.0003
     11  CZ       -16.3560   17.0180  -37.4640 C.ar  217  PHE217     -0.0000
     12  N        -17.4890   12.7850  -35.8320 N.am  218  ASN218     -0.1974
     13  CA       -16.1420   12.2460  -35.6060 C.3   218  ASN218      0.1688
     14  C        -16.0830   11.1380  -34.5580 C.2   218  ASN218      0.2292
     15  O        -15.0890   10.9860  -33.9080 O.2   218  ASN218     -0.2864
     16  CB       -15.1540   13.3450  -35.2120 C.3   218  ASN218      0.1181
     17  CG       -13.7010   12.9160  -35.3980 C.2   218  ASN218      0.2629
     18  OD1      -13.3110   12.3790  -36.4500 O.2   218  ASN218     -0.2716
     19  ND2      -12.8830   13.1970  -34.3990 N.am  218  ASN218     -0.0877
     20  N        -13.7540   17.2230  -24.4720 N.3   302  PHE302     -0.1241
     21  CA       -14.3870   17.0820  -25.7880 C.3   302  PHE302      0.1605
     22  C        -15.7530   17.7620  -25.9200 C.2   302  PHE302      0.2264
     23  O        -16.6940   17.2310  -26.4860 O.2   302  PHE302     -0.2867
     24  CB       -14.3430   15.6400  -26.2710 C.3   302  PHE302      0.0534
     25  CG       -12.9320   15.1410  -26.5050 C.ar  302  PHE302     -0.0203
     26  CD1      -12.2320   15.5030  -27.6430 C.ar  302  PHE302     -0.0042
     27  CD2      -12.2700   14.3530  -25.5360 C.ar  302  PHE302     -0.0042
     28  CE1      -10.9210   15.0780  -27.8500 C.ar  302  PHE302     -0.0003
     29  CE2      -10.9740   13.9050  -25.7650 C.ar  302  PHE302     -0.0003
     30  CZ       -10.3030   14.2640  -26.9110 C.ar  302  PHE302     -0.0000
     31  N        -15.8080   20.7160  -27.4020 N.3   304  TYR304     -0.1241
     32  CA       -15.5460   21.6650  -28.5040 C.3   304  TYR304      0.1605
     33  C        -16.7300   21.9320  -29.4360 C.2   304  TYR304      0.2264
     34  O        -17.5010   21.0240  -29.7760 O.2   304  TYR304     -0.2867
     35  CB       -14.3460   21.2330  -29.3590 C.3   304  TYR304      0.0534
     36  CG       -14.5870   20.0030  -30.1980 C.ar  304  TYR304     -0.0201
     37  CD1      -14.4540   18.7300  -29.6420 C.ar  304  TYR304     -0.0009
     38  CD2      -15.0230   20.0920  -31.5250 C.ar  304  TYR304     -0.0009
     39  CE1      -14.7150   17.6010  -30.3800 C.ar  304  TYR304      0.0417
     40  CE2      -15.2680   18.9510  -32.2590 C.ar  304  TYR304      0.0417
     41  CZ       -15.1180   17.7140  -31.6540 C.ar  304  TYR304      0.1957
     42  OH       -15.3480   16.5430  -32.3030 O.3   304  TYR304     -0.2866
     43  N        -15.7610   22.9950  -35.5920 N.3   307  GLY307     -0.1210
     44  CA       -15.3010   24.0100  -36.5040 C.3   307  GLY307      0.1956
     45  C        -14.7480   25.2530  -35.8650 C.2   307  GLY307      0.2613
     46  O        -14.2780   26.1160  -36.5920 O.2   307  GLY307     -0.2717
     47  N        -14.8180   25.4060  -34.5450 N.am  308  SER308     -0.1938
     48  CA       -14.2820   26.6380  -33.9330 C.3   308  SER308      0.2055
     49  C        -12.9790   26.4640  -33.1900 C.2   308  SER308      0.2643
     50  O        -12.7670   25.4760  -32.4660 O.2   308  SER308     -0.2714
     51  CB       -15.2680   27.3890  -33.0100 C.3   308  SER308      0.2130
     52  OG       -16.2540   26.5480  -32.4980 O.3   308  SER308     -0.2179
     53  N        -12.1670   27.5100  -33.3440 N.am  309  TYR309     -0.1973
     54  CA       -10.8630   27.6380  -32.7800 C.3   309  TYR309      0.1639
     55  C        -10.8240   28.9950  -32.1450 C.2   309  TYR309      0.2290
     56  O        -10.0640   29.8790  -32.5440 O.2   309  TYR309     -0.2864
     57  CB        -9.8040   27.4960  -33.8620 C.3   309  TYR309      0.0560
     58  CG        -8.3840   27.2470  -33.3920 C.ar  309  TYR309     -0.0198
     59  CD1       -8.0920   26.7330  -32.1090 C.ar  309  TYR309     -0.0009
     60  CD2       -7.3150   27.5050  -34.2370 C.ar  309  TYR309     -0.0009
     61  CE1       -6.7920   26.4680  -31.7330 C.ar  309  TYR309      0.0417
     62  CE2       -6.0160   27.2390  -33.8540 C.ar  309  TYR309      0.0417
     63  CZ        -5.7550   26.6900  -32.6300 C.ar  309  TYR309      0.1957
     64  OH        -4.4310   26.4770  -32.2820 O.3   309  TYR309     -0.2866
     65  N         -9.8650   18.7820  -25.3220 N.3   332  GLY332     -0.1225
     66  CA       -10.7560   18.8580  -26.4620 C.3   332  GLY332      0.1811
     67  C        -11.8440   19.9400  -26.3770 C.2   332  GLY332      0.2280
     68  O        -12.9100   19.7690  -26.9150 O.2   332  GLY332     -0.2866
     69  N        -10.6840   23.2540  -27.2830 N.3   334  VAL334     -0.1245
     70  CA       -10.0560   23.8390  -28.5040 C.3   334  VAL334      0.1561
     71  C         -9.9640   25.3600  -28.4370 C.2   334  VAL334      0.2260
     72  O        -10.9580   26.0530  -28.4060 O.2   334  VAL334     -0.2867
     73  CB       -10.6850   23.3770  -29.8220 C.3   334  VAL334      0.0252
     74  CG1       -9.7860   23.7940  -30.9740 C.3   334  VAL334      0.0019
     75  CG2      -10.8180   21.8670  -29.8930 C.3   334  VAL334      0.0019
     76  N         -4.8010   18.1970  -25.5590 N.3   359  ILE359     -0.1245
     77  CA        -5.4930   18.1150  -26.8620 C.3   359  ILE359      0.1561
     78  C         -6.4300   19.3090  -27.0640 C.2   359  ILE359      0.2260
     79  O         -7.6210   19.1450  -27.3310 O.2   359  ILE359     -0.2867
     80  CB        -6.2850   16.7930  -27.0930 C.3   359  ILE359      0.0252
     81  CG1       -5.4220   15.5540  -26.7850 C.3   359  ILE359      0.0019
     82  CG2       -6.6780   16.6990  -28.5540 C.3   359  ILE359      0.0019
     83  CD1       -6.1890   14.2790  -26.6630 C.3   359  ILE359      0.0001
     84  N         -4.9830   22.1620  -28.9280 N.3   361  PHE361     -0.1241
     85  CA        -4.2490   22.9440  -29.9210 C.3   361  PHE361      0.1605
     86  C         -3.8830   24.3120  -29.4390 C.2   361  PHE361      0.2264
     87  O         -3.9060   25.2550  -30.2260 O.2   361  PHE361     -0.2867
     88  CB        -5.0090   23.0250  -31.2430 C.3   361  PHE361      0.0534
     89  CG        -5.1550   21.7070  -31.8850 C.ar  361  PHE361     -0.0203
     90  CD1       -4.1110   21.1810  -32.6350 C.ar  361  PHE361     -0.0042
     91  CD2       -6.2300   20.9130  -31.5960 C.ar  361  PHE361     -0.0042
     92  CE1       -4.1990   19.9320  -33.1970 C.ar  361  PHE361     -0.0003
     93  CE2       -6.3470   19.6570  -32.1790 C.ar  361  PHE361     -0.0003
     94  CZ        -5.3090   19.1550  -32.9510 C.ar  361  PHE361     -0.0000
     95  N          0.1210   22.9420  -28.9570 N.3   385  ARG385     -0.1245
     96  CA         1.0570   23.5480  -29.9120 C.3   385  ARG385      0.1563
     97  C          1.9410   24.5790  -29.2340 C.2   385  ARG385      0.2260
     98  O          2.2710   25.6090  -29.8210 O.2   385  ARG385     -0.2867
     99  CB         0.2960   24.3170  -30.9780 C.3   385  ARG385      0.0307
    100  CG        -0.5190   23.4790  -31.8960 C.3   385  ARG385      0.0489
    101  CD        -1.3480   24.4180  -32.7480 C.3   385  ARG385      0.2205
    102  NE        -1.5760   23.8060  -34.0400 N.pl3 385  ARG385     -0.0865
    103  CZ        -2.2850   24.3420  -35.0140 C.cat 385  ARG385      0.5346
    104  NH1       -2.4330   23.6470  -36.1600 N.pl3 385  ARG385      0.1354
    105  NH2       -2.8440   25.5400  -34.8180 N.pl3 385  ARG385      0.1354
@<TRIPOS>BOND
     1     9    11   ar
     2     9     7   ar
     3    11    10   ar
     4     7     6   ar
     5    46    45    2
     6    44    45    1
     7    44    43    1
     8    18    17    2
     9   104   103    1
    10    10     8   ar
    11    45    47   am
    12    12    13    1
    13    12     3   am
    14     6     8   ar
    15     6     5    1
    16    13    16    1
    17    13    14    1
    18    17    16    1
    19    17    19   am
    20     2     5    1
    21     2     3    1
    22     2     1    1
    23   103   105    1
    24   103   102    2
    25     3     4    2
    26    14    15    2
    27    47    48    1
    28    60    62   ar
    29    60    58   ar
    30   102   101    1
    31    48    49    1
    32    48    51    1
    33    57    58    1
    34    57    54    1
    35    62    63   ar
    36    58    59   ar
    37    53    49   am
    38    53    54    1
    39    92    94   ar
    40    92    90   ar
    41    49    50    2
    42    51    52    1
    43    94    93   ar
    44    54    55    1
    45   101   100    1
    46    90    89   ar
    47    63    64    1
    48    63    61   ar
    49    56    55    2
    50    42    41    1
    51    40    41   ar
    52    40    38   ar
    53    93    91   ar
    54    59    61   ar
    55   100    99    1
    56    89    91   ar
    57    89    88    1
    58    41    39   ar
    59    38    36   ar
    60    88    85    1
    61    99    96    1
    62    74    73    1
    63    39    37   ar
    64    87    86    2
    65    36    37   ar
    66    36    35    1
    67    85    86    1
    68    85    84    1
    69    96    97    1
    70    96    95    1
    71    75    73    1
    72    73    70    1
    73    98    97    2
    74    34    33    2
    75    33    32    1
    76    35    32    1
    77    82    80    1
    78    70    71    1
    79    70    69    1
    80    32    31    1
    81    71    72    2
    82    28    26   ar
    83    28    30   ar
    84    26    25   ar
    85    79    78    2
    86    80    77    1
    87    80    81    1
    88    78    77    1
    89    68    67    2
    90    30    29   ar
    91    77    76    1
    92    81    83    1
    93    25    24    1
    94    25    27   ar
    95    23    22    2
    96    66    67    1
    97    66    65    1
    98    24    21    1
    99    22    21    1
   100    21    20    1
   101    29    27   ar
