@<TRIPOS>MOLECULE
tmp/5awdA00.pdb
 134 122 0 0 0
SMALL
GASTEIGER

@<TRIPOS>ATOM
      1  N          3.3360    9.4240  -15.2820 N.3   408  LYS408     -0.1245
      2  CA         3.8300    8.1640  -14.7490 C.3   408  LYS408      0.1561
      3  C          3.9470    8.2480  -13.2270 C.2   408  LYS408      0.2260
      4  O          4.4760    9.2160  -12.7100 O.2   408  LYS408     -0.2867
      5  CB         5.2130    7.8280  -15.3200 C.3   408  LYS408      0.0271
      6  CG         5.2080    6.8850  -16.5090 C.3   408  LYS408      0.0035
      7  CD         6.6390    6.5150  -16.9080 C.3   408  LYS408      0.0206
      8  CE         7.3770    5.7770  -15.7850 C.3   408  LYS408      0.1093
      9  NZ         8.3580    4.7510  -16.2620 N.3   408  LYS408     -0.1314
     10  N          5.8800    6.8990  -11.1590 N.3   410  GLN410     -0.1245
     11  CA         7.2540    7.0940  -10.6860 C.3   410  GLN410      0.1566
     12  C          7.7630    8.5300  -10.7270 C.2   410  GLN410      0.2260
     13  O          8.6540    8.9260   -9.9490 O.2   410  GLN410     -0.2867
     14  CB         8.2210    6.1920  -11.4690 C.3   410  GLN410      0.0367
     15  CG         7.9020    4.7170  -11.2810 C.3   410  GLN410      0.0905
     16  CD         6.9230    4.1880  -12.3090 C.2   410  GLN410      0.2608
     17  OE1        6.0250    4.8980  -12.7650 O.2   410  GLN410     -0.2717
     18  NE2        7.0140    2.9210  -12.5820 N.am  410  GLN410     -0.0878
     19  N         13.0540   14.1810  -11.8190 N.3   466  TYR466     -0.1241
     20  CA        12.7620   13.1640  -12.8470 C.3   466  TYR466      0.1605
     21  C         12.5140   13.8890  -14.1630 C.2   466  TYR466      0.2264
     22  O         11.5430   14.6530  -14.2610 O.2   466  TYR466     -0.2867
     23  CB        11.5380   12.3610  -12.4240 C.3   466  TYR466      0.0534
     24  CG        11.2170   11.1060  -13.2420 C.ar  466  TYR466     -0.0201
     25  CD1       11.0910   11.1530  -14.6380 C.ar  466  TYR466     -0.0009
     26  CD2       10.9900    9.8810  -12.6120 C.ar  466  TYR466     -0.0009
     27  CE1       10.7910   10.0080  -15.3730 C.ar  466  TYR466      0.0417
     28  CE2       10.6730    8.7390  -13.3460 C.ar  466  TYR466      0.0417
     29  CZ        10.5600    8.8220  -14.7200 C.ar  466  TYR466      0.1957
     30  OH        10.2290    7.7070  -15.4310 O.3   466  TYR466     -0.2866
     31  N         12.0750   13.6650  -18.2380 N.3   468  ASP468     -0.1239
     32  CA        11.7760   12.8250  -19.4150 C.3   468  ASP468      0.1674
     33  C         12.0390   13.6610  -20.6440 C.2   468  ASP468      0.2266
     34  O         11.3250   14.6350  -20.9110 O.2   468  ASP468     -0.2867
     35  CB        10.3410   12.3060  -19.3760 C.3   468  ASP468      0.1410
     36  CG        10.0020   11.3280  -20.5240 C.2   468  ASP468      0.3668
     37  OD1       10.5420   11.4510  -21.6510 O.co2 468  ASP468     -0.2456
     38  OD2        9.1050   10.4720  -20.3160 O.co2 468  ASP468     -0.2456
     39  N         12.4730   12.0700  -23.7350 N.3   470  THR470     -0.1203
     40  CA        12.4860   11.0430  -24.7550 C.3   470  THR470      0.1994
     41  C         11.9310   11.5410  -26.0410 C.2   470  THR470      0.2617
     42  O         11.1890   12.5320  -26.0960 O.2   470  THR470     -0.2717
     43  CB        11.6680    9.8280  -24.3770 C.3   470  THR470      0.1784
     44  OG1       10.2960   10.2030  -24.2740 O.3   470  THR470     -0.2211
     45  CG2       12.1570    9.2640  -23.0750 C.3   470  THR470      0.0376
     46  N         12.3000   10.8360  -27.0970 N.am  471  ASN471     -0.1974
     47  CA        11.7260   11.0690  -28.4230 C.3   471  ASN471      0.1688
     48  C         11.8620   12.4980  -28.9420 C.2   471  ASN471      0.2292
     49  O         10.9330   13.0760  -29.4660 O.2   471  ASN471     -0.2864
     50  CB        10.2810   10.6870  -28.4540 C.3   471  ASN471      0.1181
     51  CG        10.0580    9.2000  -28.3050 C.2   471  ASN471      0.2629
     52  OD1        9.9010    8.4930  -29.2890 O.2   471  ASN471     -0.2716
     53  ND2        9.9430    8.7340  -27.0780 N.am  471  ASN471     -0.0877
     54  N         16.4570   10.6990  -11.9600 N.3   490  VAL490     -0.1245
     55  CA        16.0170    9.8560  -13.0670 C.3   490  VAL490      0.1561
     56  C         16.0380   10.6960  -14.3180 C.2   490  VAL490      0.2260
     57  O         15.4600   11.7980  -14.3540 O.2   490  VAL490     -0.2867
     58  CB        14.6090    9.3240  -12.8410 C.3   490  VAL490      0.0252
     59  CG1       14.0450    8.6640  -14.0840 C.3   490  VAL490      0.0019
     60  CG2       14.5960    8.3630  -11.6660 C.3   490  VAL490      0.0019
     61  N         15.6550   10.2630  -18.5620 N.3   492  ASP492     -0.1239
     62  CA        15.2670    9.3680  -19.6660 C.3   492  ASP492      0.1674
     63  C         15.5920   10.0990  -20.9710 C.2   492  ASP492      0.2266
     64  O         14.9620   11.1110  -21.2910 O.2   492  ASP492     -0.2867
     65  CB        13.7800    8.9820  -19.5230 C.3   492  ASP492      0.1410
     66  CG        13.3570    7.7750  -20.4080 C.2   492  ASP492      0.3668
     67  OD1       14.1010    7.4150  -21.3300 O.co2 492  ASP492     -0.2456
     68  OD2       12.3030    7.1640  -20.1560 O.co2 492  ASP492     -0.2456
     69  N         15.7770    8.2840  -23.8590 N.3   494  SER494     -0.1202
     70  CA        15.4260    7.2930  -24.8960 C.3   494  SER494      0.2020
     71  C         15.0060    7.9400  -26.2200 C.2   494  SER494      0.2618
     72  O         14.3560    9.0040  -26.2170 O.2   494  SER494     -0.2717
     73  CB        14.2410    6.4760  -24.4430 C.3   494  SER494      0.2103
     74  OG        14.5780    5.5760  -23.4480 O.3   494  SER494     -0.2182
     75  N         15.2970    7.2670  -27.3360 N.am  495  TYR495     -0.1975
     76  CA        14.8650    7.7260  -28.6560 C.3   495  TYR495      0.1639
     77  C         15.2640    9.1450  -29.0240 C.2   495  TYR495      0.2290
     78  O         14.4340    9.9500  -29.4570 O.2   495  TYR495     -0.2864
     79  CB        13.3460    7.6170  -28.8110 C.3   495  TYR495      0.0560
     80  CG        12.8330    6.2070  -28.7160 C.ar  495  TYR495     -0.0198
     81  CD1       12.8120    5.3550  -29.8170 C.ar  495  TYR495     -0.0009
     82  CD2       12.3920    5.7210  -27.4970 C.ar  495  TYR495     -0.0009
     83  CE1       12.3410    4.0420  -29.6890 C.ar  495  TYR495      0.0417
     84  CE2       11.9280    4.4280  -27.3570 C.ar  495  TYR495      0.0417
     85  CZ        11.9100    3.6050  -28.4520 C.ar  495  TYR495      0.1957
     86  OH        11.4350    2.3560  -28.2170 O.3   495  TYR495     -0.2866
     87  N         18.9030    6.4920  -12.0390 N.3   520  VAL520     -0.1245
     88  CA        18.4030    5.7160  -13.1790 C.3   520  VAL520      0.1561
     89  C         18.6190    6.5290  -14.4040 C.2   520  VAL520      0.2260
     90  O         18.2410    7.7070  -14.4280 O.2   520  VAL520     -0.2867
     91  CB        16.9050    5.4240  -13.0760 C.3   520  VAL520      0.0252
     92  CG1       16.4250    4.6860  -14.3170 C.3   520  VAL520      0.0019
     93  CG2       16.6230    4.6190  -11.8230 C.3   520  VAL520      0.0019
     94  N         18.3240    6.1590  -18.6980 N.3   522  ASN522     -0.1240
     95  CA        17.8530    5.4330  -19.8660 C.3   522  ASN522      0.1653
     96  C         18.3800    6.0940  -21.1440 C.2   522  ASN522      0.2266
     97  O         18.0200    7.2320  -21.4950 O.2   522  ASN522     -0.2867
     98  CB        16.3280    5.2920  -19.8340 C.3   522  ASN522      0.1155
     99  CG        15.8220    4.2700  -20.8430 C.2   522  ASN522      0.2627
    100  OD1       16.5300    3.9700  -21.7910 O.2   522  ASN522     -0.2716
    101  ND2       14.6080    3.7050  -20.6310 N.am  522  ASN522     -0.0877
    102  N         18.2340    4.2790  -23.9740 N.3   524  SER524     -0.1217
    103  CA        17.7340    3.3300  -24.9780 C.3   524  SER524      0.1889
    104  C         17.4060    3.9100  -26.3440 C.2   524  SER524      0.2288
    105  O         16.9810    5.0620  -26.5050 O.2   524  SER524     -0.2866
    106  CB        16.5370    2.5260  -24.4740 C.3   524  SER524      0.2089
    107  OG        15.3670    3.3180  -24.5450 O.3   524  SER524     -0.2183
    108  N         21.1380    2.1340  -12.1440 N.3   544  GLU544     -0.1245
    109  CA        20.4640    1.4330  -13.2720 C.3   544  GLU544      0.1567
    110  C         20.7850    2.1160  -14.5760 C.2   544  GLU544      0.2260
    111  O         20.6170    3.3160  -14.6680 O.2   544  GLU544     -0.2867
    112  CB        18.9350    1.3620  -13.0880 C.3   544  GLU544      0.0388
    113  CG        18.1780    0.6880  -14.2640 C.3   544  GLU544      0.1160
    114  CD        16.6650    0.6170  -14.0880 C.2   544  GLU544      0.3649
    115  OE1       16.1080    1.2100  -13.1630 O.co2 544  GLU544     -0.2457
    116  OE2       15.9950   -0.0320  -14.9000 O.co2 544  GLU544     -0.2457
    117  N         19.9520    1.7290  -18.6920 N.3   546  VAL546     -0.1245
    118  CA        19.3050    1.0390  -19.8030 C.3   546  VAL546      0.1561
    119  C         20.0450    1.4770  -21.0430 C.2   546  VAL546      0.2260
    120  O         20.0210    2.6580  -21.4040 O.2   546  VAL546     -0.2867
    121  CB        17.8240    1.3860  -19.8510 C.3   546  VAL546      0.0252
    122  CG1       17.0620    0.5410  -20.8940 C.3   546  VAL546      0.0019
    123  CG2       17.2490    1.1060  -18.4830 C.3   546  VAL546      0.0019
    124  N         22.0100   -2.6620  -11.9760 N.3   575  ARG575     -0.1245
    125  CA        21.1550   -3.2310  -13.0370 C.3   575  ARG575      0.1563
    126  C         21.6140   -2.6780  -14.3670 C.2   575  ARG575      0.2260
    127  O         21.8060   -1.4890  -14.4750 O.2   575  ARG575     -0.2867
    128  CB        19.6760   -2.9520  -12.7930 C.3   575  ARG575      0.0307
    129  CG        18.7680   -3.4290  -13.9280 C.3   575  ARG575      0.0489
    130  CD        17.2830   -3.1130  -13.6950 C.3   575  ARG575      0.2205
    131  NE        16.4540   -3.6870  -14.7520 N.pl3 575  ARG575     -0.0865
    132  CZ        16.3370   -3.1620  -15.9740 C.cat 575  ARG575      0.5346
    133  NH1       17.0200   -2.0570  -16.3300 N.pl3 575  ARG575      0.1354
    134  NH2       15.5640   -3.7710  -16.8610 N.pl3 575  ARG575      0.1354
@<TRIPOS>BOND
     1    81    83   ar
     2    81    80   ar
     3    83    85   ar
     4    49    48    2
     5    78    77    2
     6    52    51    2
     7    77    76    1
     8    48    47    1
     9    79    80    1
    10    79    76    1
    11    80    82   ar
    12    76    75    1
    13    50    47    1
    14    50    51    1
    15    85    86    1
    16    85    84   ar
    17    47    46    1
    18    51    53   am
    19    82    84   ar
    20    75    71   am
    21    46    41   am
    22   105   104    2
    23   104   103    1
    24    71    72    2
    25    71    70    1
    26    42    41    2
    27    41    40    1
    28   103   106    1
    29   103   102    1
    30    70    73    1
    31    70    69    1
    32    40    43    1
    33    40    39    1
    34   107   106    1
    35    73    74    1
    36    43    44    1
    37    43    45    1
    38   100    99    2
    39    37    36   ar
    40    97    96    2
    41   120   119    2
    42    67    66   ar
    43    64    63    2
    44    96    95    1
    45   119   118    1
    46    63    62    1
    47    34    33    2
    48   122   121    1
    49    99   101   am
    50    99    98    1
    51    33    32    1
    52    36    38   ar
    53    36    35    1
    54    66    68   ar
    55    66    65    1
    56    95    98    1
    57    95    94    1
    58   121   118    1
    59   121   123    1
    60   118   117    1
    61    62    65    1
    62    62    61    1
    63    32    35    1
    64    32    31    1
    65     7     6    1
    66     7     8    1
    67   134   132    1
    68     6     5    1
    69   133   132    1
    70     9     8    1
    71   132   131    2
    72    30    29    1
    73    27    29   ar
    74    27    25   ar
    75     5     2    1
    76     1     2    1
    77   116   114   ar
    78   131   130    1
    79     2     3    1
    80    29    28   ar
    81   111   110    2
    82    25    24   ar
    83   110   109    1
    84   127   126    2
    85    90    89    2
    86    89    88    1
    87   126   125    1
    88    57    56    2
    89    56    55    1
    90    92    91    1
    91   113   114    1
    92   113   112    1
    93    22    21    2
    94    21    20    1
    95   114   115   ar
    96    59    58    1
    97   129   130    1
    98   129   128    1
    99    28    26   ar
   100   109   112    1
   101   109   108    1
   102    24    26   ar
   103    24    23    1
   104     3     4    2
   105    88    91    1
   106    88    87    1
   107    91    93    1
   108    55    58    1
   109    55    54    1
   110   125   128    1
   111   125   124    1
   112    20    23    1
   113    20    19    1
   114    58    60    1
   115    17    16    2
   116    18    16   am
   117    16    15    1
   118    14    15    1
   119    14    11    1
   120    10    11    1
   121    12    11    1
   122    12    13    2
