@<TRIPOS>MOLECULE
tmp/5awkA01.pdb
 257 243 0 0 0
SMALL
GASTEIGER

@<TRIPOS>ATOM
      1  N         15.8030    6.7800   10.1320 N.3    21  TYR21      -0.1241
      2  CA        15.8240    7.7160   11.2440 C.3    21  TYR21       0.1605
      3  C         15.5380    9.1340   10.7970 C.2    21  TYR21       0.2264
      4  O         16.1990    9.6650    9.9160 O.2    21  TYR21      -0.2867
      5  CB        17.1740    7.6630   11.9540 C.3    21  TYR21       0.0534
      6  CG        17.1960    8.3130   13.3160 C.ar   21  TYR21      -0.0201
      7  CD1       17.4100    9.6700   13.4520 C.ar   21  TYR21      -0.0009
      8  CD2       17.0200    7.5660   14.4660 C.ar   21  TYR21      -0.0009
      9  CE1       17.4390   10.2680   14.6930 C.ar   21  TYR21       0.0417
     10  CE2       17.0480    8.1560   15.7100 C.ar   21  TYR21       0.0417
     11  CZ        17.2590    9.5070   15.8150 C.ar   21  TYR21       0.1957
     12  OH        17.2860   10.1060   17.0460 O.3    21  TYR21      -0.2866
     13  N         11.9460   14.3220   14.0420 N.3    25  TYR25      -0.1241
     14  CA        11.0790   13.7240   15.0570 C.3    25  TYR25       0.1605
     15  C          9.6300   14.2180   14.8830 C.2    25  TYR25       0.2264
     16  O          8.8320   14.2630   15.8310 O.2    25  TYR25      -0.2867
     17  CB        11.6170   14.0230   16.4790 C.3    25  TYR25       0.0534
     18  CG        13.0750   13.6250   16.6930 C.ar   25  TYR25      -0.0201
     19  CD1       14.0340   14.5640   17.0840 C.ar   25  TYR25      -0.0009
     20  CD2       13.4920   12.3110   16.4940 C.ar   25  TYR25      -0.0009
     21  CE1       15.3590   14.2050   17.2780 C.ar   25  TYR25       0.0417
     22  CE2       14.8130   11.9470   16.6890 C.ar   25  TYR25       0.0417
     23  CZ        15.7410   12.8980   17.0820 C.ar   25  TYR25       0.1957
     24  OH        17.0550   12.5430   17.2750 O.3    25  TYR25      -0.2866
     25  N          6.4890   12.1790   15.9790 N.3    28  PHE28      -0.1241
     26  CA         6.1870   12.0290   17.4100 C.3    28  PHE28       0.1605
     27  C          4.8160   12.5560   17.8440 C.2    28  PHE28       0.2264
     28  O          4.2810   12.1730   18.8950 O.2    28  PHE28      -0.2867
     29  CB         7.2520   12.7520   18.2530 C.3    28  PHE28       0.0534
     30  CG         8.5070   11.9510   18.4790 C.ar   28  PHE28      -0.0203
     31  CD1        9.1020   11.2310   17.4370 C.ar   28  PHE28      -0.0042
     32  CD2        9.1020   11.9170   19.7400 C.ar   28  PHE28      -0.0042
     33  CE1       10.2530   10.4870   17.6520 C.ar   28  PHE28      -0.0003
     34  CE2       10.2540   11.1780   19.9580 C.ar   28  PHE28      -0.0003
     35  CZ        10.8320   10.4660   18.9140 C.ar   28  PHE28      -0.0000
     36  N          3.8300    5.8240   30.1100 N.3    43  LEU43      -0.1245
     37  CA         3.8730    4.5690   29.3640 C.3    43  LEU43       0.1561
     38  C          3.1460    4.5790   28.0110 C.2    43  LEU43       0.2260
     39  O          3.6830    4.0790   27.0270 O.2    43  LEU43      -0.2867
     40  CB         3.3480    3.4290   30.2490 C.3    43  LEU43       0.0270
     41  CG         3.1780    2.0800   29.5610 C.3    43  LEU43       0.0019
     42  CD1        4.5040    1.6060   28.9620 C.3    43  LEU43       0.0001
     43  CD2        2.6020    1.0580   30.5320 C.3    43  LEU43       0.0001
     44  N          5.4380    6.5940   25.6900 N.3    46  LEU46      -0.1245
     45  CA         6.6580    5.8180   25.4910 C.3    46  LEU46       0.1561
     46  C          6.4510    4.5310   24.7020 C.2    46  LEU46       0.2260
     47  O          7.2560    4.1910   23.8430 O.2    46  LEU46      -0.2867
     48  CB         7.3190    5.5160   26.8320 C.3    46  LEU46       0.0270
     49  CG         7.8650    6.7280   27.5830 C.3    46  LEU46       0.0019
     50  CD1        8.5950    6.2860   28.8360 C.3    46  LEU46       0.0001
     51  CD2        8.7750    7.5460   26.6850 C.3    46  LEU46       0.0001
     52  N          6.2840    5.3890   21.1010 N.3    49  LEU49      -0.1231
     53  CA         7.6110    5.7330   20.5930 C.3    49  LEU49       0.1693
     54  C          8.3690    4.4550   20.3210 C.2    49  LEU49       0.2591
     55  O          9.0000    4.2920   19.2830 O.2    49  LEU49      -0.2718
     56  CB         8.3840    6.5670   21.6150 C.3    49  LEU49       0.0284
     57  CG         9.5500    7.4050   21.0660 C.3    49  LEU49       0.0019
     58  CD1       10.3880    7.9280   22.2280 C.3    49  LEU49       0.0001
     59  CD2       10.4350    6.6560   20.0820 C.3    49  LEU49       0.0001
     60  N          8.2990    3.5510   21.2800 N.am   50  VAL50      -0.1980
     61  CA         8.9630    2.2620   21.1740 C.3    50  VAL50       0.1595
     62  C          8.4180    1.4440   20.0110 C.2    50  VAL50       0.2287
     63  O          9.1770    0.8710   19.2220 O.2    50  VAL50      -0.2864
     64  CB         8.8030    1.4540   22.4770 C.3    50  VAL50       0.0276
     65  CG1        9.3270    0.0460   22.3040 C.3    50  VAL50       0.0022
     66  CG2        9.5590    2.1200   23.6210 C.3    50  VAL50       0.0022
     67  N          6.9070    2.6580   17.4060 N.3    52  TYR52      -0.1227
     68  CA         7.3380    3.3740   16.2150 C.3    52  TYR52       0.1736
     69  C          8.7840    3.0740   15.9010 C.2    52  TYR52       0.2596
     70  O          9.1680    2.8750   14.7530 O.2    52  TYR52      -0.2718
     71  CB         7.1620    4.8710   16.4280 C.3    52  TYR52       0.0548
     72  CG         7.9080    5.7330   15.4320 C.ar   52  TYR52      -0.0200
     73  CD1        7.2850    6.1970   14.2560 C.ar   52  TYR52      -0.0009
     74  CD2        9.2330    6.1020   15.6550 C.ar   52  TYR52      -0.0009
     75  CE1        7.9700    6.9990   13.3400 C.ar   52  TYR52       0.0417
     76  CE2        9.9240    6.8960   14.7340 C.ar   52  TYR52       0.0417
     77  CZ         9.2890    7.3420   13.5840 C.ar   52  TYR52       0.1957
     78  OH         9.9720    8.1310   12.6900 O.3    52  TYR52      -0.2866
     79  N          9.5910    3.0700   16.9450 N.am   53  SER53      -0.1952
     80  CA        11.0030    2.7410   16.8390 C.3    53  SER53       0.1924
     81  C         11.2500    1.3170   16.3550 C.2    53  SER53       0.2314
     82  O         12.1870    1.0580   15.6060 O.2    53  SER53      -0.2863
     83  CB        11.6660    2.9420   18.1930 C.3    53  SER53       0.2116
     84  OG        11.6300    4.3120   18.5300 O.3    53  SER53      -0.2180
     85  N         15.2560   -4.1880   21.0770 N.3    84  ILE84      -0.1245
     86  CA        15.4530   -3.3080   22.2180 C.3    84  ILE84       0.1561
     87  C         16.8540   -2.7060   22.2080 C.2    84  ILE84       0.2260
     88  O         17.0310   -1.5170   22.4520 O.2    84  ILE84      -0.2867
     89  CB        15.2300   -4.0460   23.5470 C.3    84  ILE84       0.0252
     90  CG1       15.2610   -3.0650   24.7170 C.3    84  ILE84       0.0019
     91  CG2       16.2790   -5.1260   23.7330 C.3    84  ILE84       0.0019
     92  CD1       14.4280   -1.8230   24.5010 C.3    84  ILE84       0.0001
     93  N         17.2430    0.0520   19.7070 N.3    87  ILE87      -0.1231
     94  CA        16.5500    1.2760   20.1360 C.3    87  ILE87       0.1692
     95  C         17.4150    2.0650   21.1000 C.2    87  ILE87       0.2591
     96  O         17.5380    3.2700   21.0000 O.2    87  ILE87      -0.2718
     97  CB        15.1840    0.9970   20.7930 C.3    87  ILE87       0.0266
     98  CG1       14.2170    0.3890   19.7680 C.3    87  ILE87       0.0019
     99  CG2       14.5800    2.2950   21.3050 C.3    87  ILE87       0.0020
    100  CD1       12.8680   -0.0190   20.3250 C.3    87  ILE87       0.0001
    101  N         18.0270    1.3830   22.0370 N.am   88  MET88      -0.1979
    102  CA        18.9540    2.0670   22.9270 C.3    88  MET88       0.1605
    103  C         20.1350    2.6230   22.1440 C.2    88  MET88       0.2287
    104  O         20.5360    3.7540   22.3800 O.2    88  MET88      -0.2864
    105  CB        19.4380    1.1260   24.0320 C.3    88  MET88       0.0413
    106  CG        18.3200    0.6970   24.9840 C.3    88  MET88       0.0598
    107  SD        18.7290   -0.7680   25.9520 S.3    88  MET88      -0.1393
    108  CE        17.4220   -0.7530   27.1910 C.3    88  MET88       0.0692
    109  N         20.3280    3.2860   18.7620 N.3    90  ARG90      -0.1231
    110  CA        19.8920    4.3510   17.8680 C.3    90  ARG90       0.1694
    111  C         19.5840    5.6160   18.6610 C.2    90  ARG90       0.2592
    112  O         19.8850    6.7270   18.2240 O.2    90  ARG90      -0.2718
    113  CB        18.6610    3.9140   17.0730 C.3    90  ARG90       0.0321
    114  CG        17.3530    4.0340   17.8380 C.3    90  ARG90       0.0489
    115  CD        16.2190    3.3340   17.1070 C.3    90  ARG90       0.2205
    116  NE        16.2790    3.5540   15.6650 N.pl3  90  ARG90      -0.0865
    117  CZ        15.4030    4.2850   14.9840 C.cat  90  ARG90       0.5346
    118  NH1       14.3930    4.8710   15.6140 N.pl3  90  ARG90       0.1354
    119  NH2       15.5350    4.4310   13.6730 N.pl3  90  ARG90       0.1354
    120  N         18.9760    5.4330   19.8270 N.am   91  SER91      -0.1952
    121  CA        18.5390    6.5480   20.6700 C.3    91  SER91       0.1924
    122  C         19.6910    7.4070   21.1270 C.2    91  SER91       0.2314
    123  O         19.4750    8.4740   21.6980 O.2    91  SER91      -0.2863
    124  CB        17.7650    6.0810   21.9070 C.3    91  SER91       0.2116
    125  OG        18.6270    5.5250   22.8660 O.3    91  SER91      -0.2180
    126  N         19.8080   11.0950   19.7500 N.3    94  SER94      -0.1217
    127  CA        18.9040   12.0260   20.4350 C.3    94  SER94       0.1889
    128  C         19.4300   12.4040   21.8160 C.2    94  SER94       0.2288
    129  O         19.2240   13.5300   22.2760 O.2    94  SER94      -0.2866
    130  CB        17.5260   11.3890   20.6160 C.3    94  SER94       0.2089
    131  OG        17.5440   10.4730   21.7000 O.3    94  SER94      -0.2183
    132  N         17.2460   12.2080   26.7450 N.3   102  TRP102     -0.1241
    133  CA        17.0760   12.1110   25.2950 C.3   102  TRP102      0.1605
    134  C         16.3180   13.3350   24.8170 C.2   102  TRP102      0.2264
    135  O         15.2670   13.6380   25.3620 O.2   102  TRP102     -0.2867
    136  CB        16.2840   10.8660   24.9180 C.3   102  TRP102      0.0550
    137  CG        16.9440    9.5860   25.2810 C.ar  102  TRP102      0.0003
    138  CD1       17.6640    8.7740   24.4600 C.ar  102  TRP102      0.0946
    139  CD2       16.9360    8.9520   26.5660 C.ar  102  TRP102      0.0152
    140  NE1       18.1000    7.6640   25.1480 N.ar  102  TRP102     -0.2442
    141  CE2       17.6700    7.7530   26.4450 C.ar  102  TRP102      0.0810
    142  CE3       16.3750    9.2810   27.8120 C.ar  102  TRP102      0.0012
    143  CZ2       17.8670    6.8870   27.5210 C.ar  102  TRP102      0.0191
    144  CZ3       16.5700    8.4170   28.8810 C.ar  102  TRP102      0.0001
    145  CH2       17.3100    7.2340   28.7290 C.ar  102  TRP102      0.0015
    146  N         14.3540   15.3790   21.8320 N.3   104  CYS104     -0.1235
    147  CA        13.6670   15.1920   20.5400 C.3   104  CYS104      0.1677
    148  C         13.2280   16.5230   19.8860 C.2   104  CYS104      0.2270
    149  O         12.3040   16.5630   19.0640 O.2   104  CYS104     -0.2867
    150  CB        12.5060   14.2110   20.7250 C.3   104  CYS104      0.0956
    151  SG        13.0580   12.4770   20.9300 S.3   104  CYS104     -0.0801
    152  N         12.9070   13.7000   27.1050 N.3   111  TYR111     -0.1241
    153  CA        12.5980   12.6430   28.0930 C.3   111  TYR111      0.1605
    154  C         13.5910   12.5480   29.2410 C.2   111  TYR111      0.2264
    155  O         14.7560   12.1750   29.0380 O.2   111  TYR111     -0.2867
    156  CB        12.5010   11.2730   27.4210 C.3   111  TYR111      0.0534
    157  CG        11.6010   11.3170   26.2380 C.ar  111  TYR111     -0.0201
    158  CD1       12.1180   11.3220   24.9570 C.ar  111  TYR111     -0.0009
    159  CD2       10.2320   11.4300   26.3970 C.ar  111  TYR111     -0.0009
    160  CE1       11.2840   11.3980   23.8470 C.ar  111  TYR111      0.0417
    161  CE2        9.3910   11.5090   25.3130 C.ar  111  TYR111      0.0417
    162  CZ         9.9110   11.4920   24.0360 C.ar  111  TYR111      0.1957
    163  OH         9.0550   11.5860   22.9580 O.3   111  TYR111     -0.2866
    164  N         11.2770    8.0280   32.1090 N.3   116  VAL116     -0.1245
    165  CA        11.5310    6.5880   31.9060 C.3   116  VAL116      0.1561
    166  C         11.0200    5.7810   33.0950 C.2   116  VAL116      0.2260
    167  O         10.4320    4.7060   32.9240 O.2   116  VAL116     -0.2867
    168  CB        13.0330    6.2920   31.6860 C.3   116  VAL116      0.0252
    169  CG1       13.2940    4.7890   31.5860 C.3   116  VAL116      0.0019
    170  CG2       13.5360    7.0060   30.4270 C.3   116  VAL116      0.0019
    171  N          7.1950    5.4810   32.8820 N.3   119  ALA119     -0.1245
    172  CA         6.7660    4.3260   32.0780 C.3   119  ALA119      0.1562
    173  C          6.6120    3.0560   32.9100 C.2   119  ALA119      0.2260
    174  O          5.7920    2.2050   32.5890 O.2   119  ALA119     -0.2867
    175  CB         7.7570    4.0540   30.9780 C.3   119  ALA119      0.0290
    176  N          9.7800    1.6590   34.8840 N.3   121  HIS121     -0.1241
    177  CA        11.1100    1.0360   34.8580 C.3   121  HIS121      0.1621
    178  C         11.9440    1.5460   36.0440 C.2   121  HIS121      0.2264
    179  O         11.9980    2.7470   36.3080 O.2   121  HIS121     -0.2867
    180  CB        11.8050    1.2490   33.4880 C.3   121  HIS121      0.0745
    181  CG        11.2530    0.3750   32.3950 C.ar  121  HIS121      0.0817
    182  ND1       11.5470   -0.9720   32.2840 N.ar  121  HIS121     -0.2268
    183  CD2       10.3990    0.6530   31.3820 C.ar  121  HIS121      0.1154
    184  CE1       10.9040   -1.4850   31.2510 C.ar  121  HIS121      0.1986
    185  NE2       10.1980   -0.5220   30.6870 N.ar  121  HIS121     -0.2212
    186  N         17.6460   -0.7990   35.7780 N.3   125  LEU125     -0.1245
    187  CA        17.6440   -0.7070   34.3150 C.3   125  LEU125      0.1561
    188  C         18.0640    0.6580   33.7520 C.2   125  LEU125      0.2260
    189  O         18.7990    0.7440   32.7700 O.2   125  LEU125     -0.2867
    190  CB        16.2730   -1.0950   33.7570 C.3   125  LEU125      0.0270
    191  CG        16.1900   -1.2600   32.2380 C.3   125  LEU125      0.0019
    192  CD1       17.4860   -1.8350   31.6910 C.3   125  LEU125      0.0001
    193  CD2       15.0090   -2.1330   31.8520 C.3   125  LEU125      0.0001
    194  N         21.3390    2.2250   31.7610 N.3   129  LEU129     -0.1245
    195  CA        20.9470    2.7620   30.4610 C.3   129  LEU129      0.1561
    196  C         21.5600    4.1340   30.1950 C.2   129  LEU129      0.2260
    197  O         22.0190    4.4170   29.0890 O.2   129  LEU129     -0.2867
    198  CB        19.4230    2.8400   30.3520 C.3   129  LEU129      0.0270
    199  CG        18.8620    3.2930   29.0020 C.3   129  LEU129      0.0019
    200  CD1       19.5180    2.5280   27.8630 C.3   129  LEU129      0.0001
    201  CD2       17.3510    3.1260   28.9650 C.3   129  LEU129      0.0001
    202  N         15.8950   -5.3350   30.8730 N.3   213  HIS213     -0.1241
    203  CA        14.6500   -4.8190   30.2750 C.3   213  HIS213      0.1621
    204  C         13.5850   -5.9170   30.1920 C.2   213  HIS213      0.2264
    205  O         12.4100   -5.6870   30.5010 O.2   213  HIS213     -0.2867
    206  CB        14.9210   -4.2060   28.8780 C.3   213  HIS213      0.0745
    207  CG        13.6800   -3.9330   28.0690 C.ar  213  HIS213      0.0817
    208  ND1       13.1240   -4.8730   27.2250 N.ar  213  HIS213     -0.2268
    209  CD2       12.8930   -2.8290   27.9750 C.ar  213  HIS213      0.1154
    210  CE1       12.0500   -4.3610   26.6470 C.ar  213  HIS213      0.1986
    211  NE2       11.8870   -3.1230   27.0850 N.ar  213  HIS213     -0.2212
    212  N         10.2270   -5.6470   31.8540 N.3   217  TYR217     -0.1241
    213  CA         9.0710   -5.6960   30.9530 C.3   217  TYR217      0.1605
    214  C          8.0820   -6.7660   31.4280 C.2   217  TYR217      0.2264
    215  O          6.9060   -6.4730   31.6220 O.2   217  TYR217     -0.2867
    216  CB         9.4630   -5.9370   29.4850 C.3   217  TYR217      0.0534
    217  CG         8.2590   -6.0610   28.5510 C.ar  217  TYR217     -0.0201
    218  CD1        7.6230   -4.9400   28.0310 C.ar  217  TYR217     -0.0009
    219  CD2        7.7570   -7.3010   28.2030 C.ar  217  TYR217     -0.0009
    220  CE1        6.5300   -5.0610   27.1870 C.ar  217  TYR217      0.0417
    221  CE2        6.6620   -7.4270   27.3650 C.ar  217  TYR217      0.0417
    222  CZ         6.0470   -6.3110   26.8650 C.ar  217  TYR217      0.1957
    223  OH         4.9590   -6.4910   26.0380 O.3   217  TYR217     -0.2866
    224  N          6.0140   -5.5830   34.4580 N.3   220  LEU220     -0.1245
    225  CA         5.0690   -4.5740   33.9840 C.3   220  LEU220      0.1561
    226  C          4.0200   -5.2370   33.0800 C.2   220  LEU220      0.2260
    227  O          2.8250   -5.1910   33.3590 O.2   220  LEU220     -0.2867
    228  CB         5.8270   -3.4700   33.2370 C.3   220  LEU220      0.0270
    229  CG         5.0160   -2.3400   32.6180 C.3   220  LEU220      0.0019
    230  CD1        4.3070   -1.5560   33.7070 C.3   220  LEU220      0.0001
    231  CD2        5.9290   -1.4270   31.8240 C.3   220  LEU220      0.0001
    232  N          0.2560   -1.0720   26.0390 N.3   230  LEU230     -0.1245
    233  CA         1.2710   -1.3530   25.0410 C.3   230  LEU230      0.1561
    234  C          0.6140   -1.5130   23.6960 C.2   230  LEU230      0.2260
    235  O         -0.5590   -1.8690   23.6290 O.2   230  LEU230     -0.2867
    236  CB         2.0350   -2.6240   25.3970 C.3   230  LEU230      0.0270
    237  CG         2.6630   -2.5820   26.7890 C.3   230  LEU230      0.0019
    238  CD1        3.3710   -3.9080   27.0360 C.3   230  LEU230      0.0001
    239  CD2        3.6060   -1.3900   26.9450 C.3   230  LEU230      0.0001
    240  N          4.4420   -4.0080   19.8760 N.3   234  VAL234     -0.1245
    241  CA         5.2690   -4.1930   21.0740 C.3   234  VAL234      0.1561
    242  C          5.0040   -5.5340   21.7510 C.2   234  VAL234      0.2260
    243  O          5.9370   -6.2480   22.0840 O.2   234  VAL234     -0.2867
    244  CB         5.0550   -3.0770   22.1030 C.3   234  VAL234      0.0252
    245  CG1        5.8330   -3.3650   23.3680 C.3   234  VAL234      0.0019
    246  CG2        5.5270   -1.7510   21.5410 C.3   234  VAL234      0.0019
    247  N          8.0820   -7.7830   21.8260 N.3   238  PHE238     -0.1241
    248  CA         8.6020   -7.9320   23.1860 C.3   238  PHE238      0.1605
    249  C          7.8990   -9.0280   23.9660 C.2   238  PHE238      0.2264
    250  O          8.3480   -9.4140   25.0390 O.2   238  PHE238     -0.2867
    251  CB         8.5100   -6.6110   23.9720 C.3   238  PHE238      0.0534
    252  CG         9.4820   -5.5520   23.5250 C.ar  238  PHE238     -0.0203
    253  CD1       10.6790   -5.8820   22.9030 C.ar  238  PHE238     -0.0042
    254  CD2        9.2060   -4.2180   23.7570 C.ar  238  PHE238     -0.0042
    255  CE1       11.5630   -4.8990   22.4980 C.ar  238  PHE238     -0.0003
    256  CE2       10.0890   -3.2240   23.3650 C.ar  238  PHE238     -0.0003
    257  CZ        11.2690   -3.5630   22.7360 C.ar  238  PHE238     -0.0000
@<TRIPOS>BOND
     1     4     3    2
     2     1     2    1
     3     3     2    1
     4     2     5    1
     5     5     6    1
     6    78    77    1
     7     6     7   ar
     8     6     8   ar
     9    75    77   ar
    10    75    73   ar
    11     7     9   ar
    12    77    76   ar
    13   119   117    1
    14    13    14    1
    15    73    72   ar
    16     8    10   ar
    17     9    11   ar
    18    76    74   ar
    19    70    69    2
    20    15    14    1
    21    15    16    2
    22   117   118    1
    23   117   116    2
    24    14    17    1
    25    72    74   ar
    26    72    71    1
    27    82    81    2
    28   116   115    1
    29    10    11   ar
    30    11    12    1
    31    69    68    1
    32    69    79   am
    33    25    26    1
    34    68    71    1
    35    68    67    1
    36    81    80    1
    37    17    18    1
    38    20    22   ar
    39    20    18   ar
    40    22    23   ar
    41    18    19   ar
    42    80    79    1
    43    80    83    1
    44   113   114    1
    45   113   110    1
    46    23    24    1
    47    23    21   ar
    48    19    21   ar
    49   115   114    1
    50    26    27    1
    51    26    29    1
    52    31    33   ar
    53    31    30   ar
    54    33    35   ar
    55    27    28    2
    56   110   111    1
    57   110   109    1
    58    83    84    1
    59   112   111    2
    60    29    30    1
    61    30    32   ar
    62   111   120   am
    63    35    34   ar
    64   149   148    2
    65    63    62    2
    66    55    54    2
    67    93    94    1
    68    32    34   ar
    69   126   127    1
    70    98   100    1
    71    98    97    1
    72   120   121    1
    73   240   241    1
    74   148   147    1
    75    62    61    1
    76    59    57    1
    77    94    97    1
    78    94    95    1
    79    54    53    1
    80    54    60   am
    81   127   130    1
    82   127   128    1
    83   147   150    1
    84   147   146    1
    85    53    52    1
    86    53    56    1
    87   130   131    1
    88   121   122    1
    89   121   124    1
    90   150   151    1
    91    97    99    1
    92    96    95    2
    93    57    56    1
    94    57    58    1
    95   241   242    1
    96   241   244    1
    97    85    86    1
    98    95   101   am
    99   122   123    2
   100    61    60    1
   101    61    64    1
   102   246   244    1
   103   242   243    2
   104   128   129    2
   105   247   248    1
   106   124   125    1
   107   101   102    1
   108   244   245    1
   109   103   104    2
   110   103   102    1
   111    87    86    1
   112    87    88    2
   113    86    89    1
   114    65    64    1
   115    64    66    1
   116   255   257   ar
   117   255   253   ar
   118   257   256   ar
   119   253   252   ar
   120   102   105    1
   121   163   162    1
   122   248   249    1
   123   248   251    1
   124   256   254   ar
   125   252   254   ar
   126   252   251    1
   127    89    91    1
   128    89    90    1
   129   235   234    2
   130   234   233    1
   131    47    46    2
   132   160   162   ar
   133   160   158   ar
   134   249   250    2
   135   105   106    1
   136   162   161   ar
   137   138   140   ar
   138   138   137   ar
   139    92    90    1
   140    46    45    1
   141   134   133    1
   142   134   135    2
   143   136   137    1
   144   136   133    1
   145   158   157   ar
   146   106   107    1
   147   233   236    1
   148   233   232    1
   149   140   141   ar
   150   137   139   ar
   151   133   132    1
   152   161   159   ar
   153   236   237    1
   154    45    44    1
   155    45    48    1
   156   107   108    1
   157   223   222    1
   158   157   159   ar
   159   157   156    1
   160   141   139   ar
   161   141   143   ar
   162   139   142   ar
   163   210   211   ar
   164   210   208   ar
   165    51    49    1
   166   237   239    1
   167   237   238    1
   168    48    49    1
   169   222   220   ar
   170   222   221   ar
   171    39    38    2
   172   211   209   ar
   173   152   153    1
   174   220   218   ar
   175   208   207   ar
   176   221   219   ar
   177   156   153    1
   178   143   145   ar
   179    49    50    1
   180   142   144   ar
   181   200   199    1
   182   209   207   ar
   183    38    37    1
   184   218   217   ar
   185   207   206    1
   186   153   154    1
   187   219   217   ar
   188   217   216    1
   189   145   144   ar
   190   206   203    1
   191    42    41    1
   192   201   199    1
   193   199   198    1
   194   155   154    2
   195   197   196    2
   196    37    36    1
   197    37    40    1
   198   216   213    1
   199    41    40    1
   200    41    43    1
   201   204   203    1
   202   204   205    2
   203   196   195    1
   204   203   202    1
   205   198   195    1
   206   170   168    1
   207   195   194    1
   208   185   184   ar
   209   185   183   ar
   210   213   214    1
   211   213   212    1
   212   175   172    1
   213   184   182   ar
   214   183   181   ar
   215   214   215    2
   216   169   168    1
   217   168   165    1
   218   192   191    1
   219   231   229    1
   220   193   191    1
   221   165   164    1
   222   165   166    1
   223   172   171    1
   224   172   173    1
   225   191   190    1
   226   182   181   ar
   227   181   180    1
   228   174   173    2
   229   229   228    1
   230   229   230    1
   231   189   188    2
   232   167   166    2
   233   226   227    2
   234   226   225    1
   235   228   225    1
   236   180   177    1
   237   188   187    1
   238   190   187    1
   239   225   224    1
   240   187   186    1
   241   177   176    1
   242   177   178    1
   243   178   179    2
