@<TRIPOS>MOLECULE
tmp/5awmA00.pdb
 161 148 0 0 0
SMALL
GASTEIGER

@<TRIPOS>ATOM
      1  N        -17.8300    3.6670   21.7350 N.3    24  ILE24      -0.1231
      2  CA       -16.8700    4.2960   20.7560 C.3    24  ILE24       0.1692
      3  C        -16.7370    3.5570   19.4140 C.2    24  ILE24       0.2592
      4  O        -17.2240    2.4100   19.2680 O.2    24  ILE24      -0.2718
      5  CB       -15.4650    4.5580   21.3340 C.3    24  ILE24       0.0266
      6  CG1      -14.6920    3.2540   21.6170 C.3    24  ILE24       0.0019
      7  CG2      -15.5410    5.5170   22.5060 C.3    24  ILE24       0.0020
      8  CD1      -13.2400    3.5240   22.0710 C.3    24  ILE24       0.0001
      9  N        -16.1590    4.2690   18.4310 N.am   25  GLY25      -0.1957
     10  CA       -15.9600    3.7930   17.0300 C.3    25  GLY25       0.1869
     11  C        -17.0370    3.9940   15.9630 C.2    25  GLY25       0.2309
     12  O        -18.2350    3.9810   16.2720 O.2    25  GLY25      -0.2863
     13  N        -18.6610   -3.3170   19.5630 N.3    27  ILE27      -0.1231
     14  CA       -18.0970   -4.2200   20.5720 C.3    27  ILE27       0.1692
     15  C        -16.9000   -3.5710   21.3300 C.2    27  ILE27       0.2591
     16  O        -16.2010   -4.2600   22.0740 O.2    27  ILE27      -0.2718
     17  CB       -17.6530   -5.5630   19.9260 C.3    27  ILE27       0.0266
     18  CG1      -16.5150   -5.3320   18.8730 C.3    27  ILE27       0.0019
     19  CG2      -18.8370   -6.2430   19.2770 C.3    27  ILE27       0.0020
     20  CD1      -15.8300   -6.5950   18.3850 C.3    27  ILE27       0.0001
     21  N        -16.6190   -2.2950   21.0680 N.am   28  VAL28      -0.1980
     22  CA       -15.5780   -1.5600   21.8080 C.3    28  VAL28       0.1595
     23  C        -16.2390   -0.4190   22.5710 C.2    28  VAL28       0.2287
     24  O        -17.0490    0.3240   22.0140 O.2    28  VAL28      -0.2864
     25  CB       -14.4980   -1.0050   20.8600 C.3    28  VAL28       0.0276
     26  CG1      -13.3560   -0.4380   21.6370 C.3    28  VAL28       0.0022
     27  CG2      -14.0250   -2.1030   19.9370 C.3    28  VAL28       0.0022
     28  N         -9.6300    1.5190   26.4870 N.3    41  ALA41      -0.1245
     29  CA       -10.5620    0.9590   25.5270 C.3    41  ALA41       0.1562
     30  C        -10.7290   -0.5190   25.8580 C.2    41  ALA41       0.2260
     31  O         -9.7440   -1.2220   26.0890 O.2    41  ALA41      -0.2867
     32  CB       -10.0300    1.1180   24.0690 C.3    41  ALA41       0.0290
     33  N        -12.4600   -4.0490   24.4280 N.3    43  LYS43      -0.1245
     34  CA       -13.0920   -4.7350   23.3070 C.3    43  LYS43       0.1561
     35  C        -13.6170   -6.1120   23.7460 C.2    43  LYS43       0.2260
     36  O        -12.8680   -6.9000   24.3640 O.2    43  LYS43      -0.2867
     37  CB       -12.0540   -4.9260   22.1440 C.3    43  LYS43       0.0271
     38  CG       -12.5780   -5.6430   20.9370 C.3    43  LYS43       0.0035
     39  CD       -11.5720   -5.4820   19.7760 C.3    43  LYS43       0.0206
     40  CE       -12.0280   -6.0570   18.4710 C.3    43  LYS43       0.1093
     41  NZ       -10.8970   -5.9610   17.4840 N.3    43  LYS43      -0.1314
     42  N         -8.2540  -16.8850   14.2730 N.3    57  ARG57      -0.1245
     43  CA        -8.0510  -15.4050   14.3190 C.3    57  ARG57       0.1563
     44  C         -7.8440  -14.8010   15.7220 C.2    57  ARG57       0.2260
     45  O         -6.9840  -13.9350   15.8990 O.2    57  ARG57      -0.2867
     46  CB        -9.2010  -14.6880   13.5940 C.3    57  ARG57       0.0307
     47  CG        -9.1880  -13.1560   13.6660 C.3    57  ARG57       0.0489
     48  CD        -9.9460  -12.5120   12.5010 C.3    57  ARG57       0.2205
     49  NE       -11.3890  -12.8160   12.5330 N.pl3  57  ARG57      -0.0865
     50  CZ       -12.2960  -12.2110   13.3160 C.cat  57  ARG57       0.5346
     51  NH1      -11.9460  -11.2310   14.1620 N.pl3  57  ARG57       0.1354
     52  NH2      -13.5770  -12.5870   13.2560 N.pl3  57  ARG57       0.1354
     53  N         -4.2720  -13.3640   17.1290 N.3    61  GLU61      -0.1245
     54  CA        -4.1450  -11.9260   17.5090 C.3    61  GLU61       0.1567
     55  C         -3.7740  -11.7160   18.9590 C.2    61  GLU61       0.2260
     56  O         -2.9780  -10.8290   19.2900 O.2    61  GLU61      -0.2867
     57  CB        -5.3390  -11.0980   17.0870 C.3    61  GLU61       0.0388
     58  CG        -5.2760  -10.7520   15.5930 C.3    61  GLU61       0.1160
     59  CD        -6.0690   -9.5090   15.2060 C.2    61  GLU61       0.3649
     60  OE1       -7.1560   -9.2530   15.8060 O.co2  61  GLU61      -0.2457
     61  OE2       -5.5950   -8.8060   14.2770 O.co2  61  GLU61      -0.2457
     62  N         -0.5470   -1.0450   18.7160 N.3    74  ILE74      -0.1245
     63  CA        -1.2490   -1.0340   19.9930 C.3    74  ILE74       0.1561
     64  C         -0.8200   -2.2280   20.8170 C.2    74  ILE74       0.2260
     65  O         -0.4400   -3.2690   20.2700 O.2    74  ILE74      -0.2867
     66  CB        -2.7790   -1.0430   19.7660 C.3    74  ILE74       0.0252
     67  CG1       -3.5500   -0.4840   20.9510 C.3    74  ILE74       0.0019
     68  CG2       -3.2160   -2.3860   19.3400 C.3    74  ILE74       0.0019
     69  CD1       -3.5960    1.0260   21.0640 C.3    74  ILE74       0.0001
     70  N         -7.0100   -1.9010   26.3360 N.3    96  MET96      -0.1230
     71  CA        -5.9790   -1.0690   25.6610 C.3    96  MET96       0.1702
     72  C         -5.9720    0.3170   26.1870 C.2    96  MET96       0.2592
     73  O         -6.9900    0.7860   26.6500 O.2    96  MET96      -0.2718
     74  CB        -6.2880   -0.9820   24.1650 C.3    96  MET96       0.0401
     75  CG        -6.1360   -2.2950   23.4310 C.3    96  MET96       0.0596
     76  SD        -7.0860   -2.3250   21.8610 S.3    96  MET96      -0.1393
     77  CE        -8.7370   -2.6040   22.5170 C.3    96  MET96       0.0692
     78  N         -4.8610    1.0300   26.0570 N.am   97  GLU97      -0.1966
     79  CA        -4.8970    2.4670   26.2750 C.3    97  GLU97       0.1733
     80  C         -5.9400    3.1290   25.3230 C.2    97  GLU97       0.2616
     81  O         -6.0570    2.7070   24.1610 O.2    97  GLU97      -0.2715
     82  CB        -3.4820    3.0580   26.0640 C.3    97  GLU97       0.0429
     83  CG        -3.3020    4.5240   26.4110 C.3    97  GLU97       0.1163
     84  CD        -1.8910    5.0670   26.0790 C.2    97  GLU97       0.3649
     85  OE1       -0.9950    4.2560   25.7000 O.co2  97  GLU97      -0.2457
     86  OE2       -1.6970    6.3230   26.1570 O.co2  97  GLU97      -0.2457
     87  N         -6.6100    4.1840   25.7820 N.am   98  LEU98      -0.1963
     88  CA        -7.6730    4.8460   24.9870 C.3    98  LEU98       0.1728
     89  C         -6.9730    5.9530   24.1850 C.2    98  LEU98       0.2616
     90  O         -6.4150    6.9030   24.7890 O.2    98  LEU98      -0.2715
     91  CB        -8.7740    5.4820   25.8080 C.3    98  LEU98       0.0311
     92  CG        -9.9140    6.1240   25.0310 C.3    98  LEU98       0.0022
     93  CD1      -10.7250    5.0700   24.2660 C.3    98  LEU98       0.0001
     94  CD2      -10.7810    6.9270   26.0050 C.3    98  LEU98       0.0001
     95  N         -6.9540    5.7900   22.8500 N.am   99  MET99      -0.1977
     96  CA        -6.4430    6.8430   21.9590 C.3    99  MET99       0.1605
     97  C         -7.5950    7.7770   21.6490 C.2    99  MET99       0.2287
     98  O         -8.7460    7.4970   21.9370 O.2    99  MET99      -0.2864
     99  CB        -5.8160    6.2560   20.6860 C.3    99  MET99       0.0413
    100  CG        -4.7880    5.1720   20.9710 C.3    99  MET99       0.0598
    101  SD        -3.2730    5.8210   21.6290 S.3    99  MET99      -0.1393
    102  CE        -3.5600    5.8940   23.3630 C.3    99  MET99       0.0692
    103  N         -8.8320    9.2020   18.6700 N.3   101  ALA101     -0.1231
    104  CA        -9.6160    9.1490   17.4480 C.3   101  ALA101      0.1694
    105  C         -9.1140    7.9990   16.5880 C.2   101  ALA101      0.2592
    106  O         -7.9770    7.5390   16.7630 O.2   101  ALA101     -0.2718
    107  CB        -9.4690   10.4380   16.6530 C.3   101  ALA101      0.0304
    108  N         -9.9330    7.5500   15.6700 N.am  102  ASN102     -0.1974
    109  CA        -9.4470    6.6930   14.6290 C.3   102  ASN102      0.1688
    110  C         -8.9780    7.5150   13.4000 C.2   102  ASN102      0.2292
    111  O         -9.2750    8.7230   13.2630 O.2   102  ASN102     -0.2864
    112  CB       -10.4190    5.5500   14.2690 C.3   102  ASN102      0.1181
    113  CG       -11.6840    6.0030   13.5760 C.2   102  ASN102      0.2629
    114  OD1      -11.6470    6.8960   12.7180 O.2   102  ASN102     -0.2716
    115  ND2      -12.7690    5.3550   13.8690 N.am  102  ASN102     -0.0877
    116  N        -11.5310    9.5600   11.3600 N.3   105  GLN105     -0.1245
    117  CA       -11.9160   10.8120   11.9930 C.3   105  GLN105      0.1566
    118  C        -10.8450   11.8750   11.7810 C.2   105  GLN105      0.2260
    119  O        -11.1550   13.0210   11.5050 O.2   105  GLN105     -0.2867
    120  CB       -12.1720   10.6410   13.4820 C.3   105  GLN105      0.0367
    121  CG       -13.2880    9.7100   13.8120 C.3   105  GLN105      0.0905
    122  CD       -13.3760    9.4560   15.3260 C.2   105  GLN105      0.2608
    123  OE1      -12.4650    8.9370   15.9110 O.2   105  GLN105     -0.2717
    124  NE2      -14.4580    9.8720   15.9500 N.am  105  GLN105     -0.0878
    125  N         -9.9620    2.6630    9.6030 N.3   143  SER143     -0.1202
    126  CA       -10.8180    2.4180   10.7340 C.3   143  SER143      0.2020
    127  C        -10.0760    1.5190   11.7710 C.2   143  SER143      0.2618
    128  O        -10.4240    1.4690   12.9680 O.2   143  SER143     -0.2717
    129  CB       -12.1520    1.7840   10.3170 C.3   143  SER143      0.2103
    130  OG       -11.9090    0.4790    9.8060 O.3   143  SER143     -0.2182
    131  N         -9.0550    0.8160   11.3360 N.am  144  ASN144     -0.1974
    132  CA        -8.2690   -0.0140   12.2710 C.3   144  ASN144      0.1688
    133  C         -6.9030    0.5920   12.6580 C.2   144  ASN144      0.2292
    134  O         -5.9710   -0.1550   13.0010 O.2   144  ASN144     -0.2864
    135  CB        -8.1240   -1.4050   11.6650 C.3   144  ASN144      0.1181
    136  CG        -9.4060   -2.2510   11.7240 C.2   144  ASN144      0.2629
    137  OD1      -10.3860   -1.8910   12.3390 O.2   144  ASN144     -0.2716
    138  ND2       -9.4730   -3.2610   10.9050 N.am  144  ASN144     -0.0877
    139  N         -5.4590    4.0670   15.0180 N.3   146  VAL146     -0.1245
    140  CA        -5.8950    5.1010   15.9880 C.3   146  VAL146      0.1561
    141  C         -4.7880    6.0620   16.2150 C.2   146  VAL146      0.2260
    142  O         -3.5830    5.7790   15.9720 O.2   146  VAL146     -0.2867
    143  CB        -6.5130    4.5190   17.3470 C.3   146  VAL146      0.0252
    144  CG1       -7.8230    3.8320   17.0600 C.3   146  VAL146      0.0019
    145  CG2       -5.5470    3.5090   17.9830 C.3   146  VAL146      0.0019
    146  N         -4.0540   -1.0580   14.9630 N.3   156  LEU156     -0.1231
    147  CA        -4.8040   -1.8420   15.9250 C.3   156  LEU156      0.1693
    148  C         -4.7420   -3.2930   15.6870 C.2   156  LEU156      0.2592
    149  O         -5.1260   -4.0910   16.6170 O.2   156  LEU156     -0.2718
    150  CB        -6.3140   -1.5270   15.8850 C.3   156  LEU156      0.0284
    151  CG        -6.7240   -0.1900   16.4380 C.3   156  LEU156      0.0019
    152  CD1       -8.2310    0.0220   16.3610 C.3   156  LEU156      0.0001
    153  CD2       -6.2840    0.0620   17.8650 C.3   156  LEU156      0.0001
    154  N         -4.4310   -3.7240   14.4760 N.am  157  ASP157     -0.1974
    155  CA        -4.5670   -5.1780   14.1160 C.3   157  ASP157      0.1709
    156  C         -3.4290   -5.7680   13.2730 C.2   157  ASP157      0.2293
    157  O         -2.5000   -5.0420   12.9070 O.2   157  ASP157     -0.2864
    158  CB        -5.8870   -5.4430   13.4490 C.3   157  ASP157      0.1436
    159  CG        -6.0170   -4.7900   12.0630 C.2   157  ASP157      0.3671
    160  OD1       -5.1700   -3.9200   11.6910 O.co2 157  ASP157     -0.2456
    161  OD2       -7.0290   -5.1540   11.3730 O.co2 157  ASP157     -0.2456
@<TRIPOS>BOND
     1   125   126    1
     2   130   129    1
     3   129   126    1
     4   126   127    1
     5   138   136   am
     6   131   127   am
     7   131   132    1
     8   116   117    1
     9   161   159   ar
    10   119   118    2
    11   135   136    1
    12   135   132    1
    13   160   159   ar
    14   136   137    2
    15   127   128    2
    16   118   117    1
    17   117   120    1
    18   159   158    1
    19   132   133    1
    20    48    49    1
    21    48    47    1
    22    49    50    2
    23   133   134    2
    24   114   113    2
    25   157   156    2
    26    52    50    1
    27   111   110    2
    28   156   155    1
    29    50    51    1
    30   110   109    1
    31   158   155    1
    32   120   121    1
    33   113   115   am
    34   113   112    1
    35    46    47    1
    36    46    43    1
    37   121   122    1
    38   155   154    1
    39   112   109    1
    40    42    43    1
    41    61    59   ar
    42    43    44    1
    43   154   148   am
    44   109   108    1
    45   146   147    1
    46   139   140    1
    47    59    58    1
    48    59    60   ar
    49   122   123    2
    50   122   124   am
    51    58    57    1
    52   108   105   am
    53   148   147    1
    54   148   149    2
    55    44    45    2
    56   150   147    1
    57   150   151    1
    58    11    12    2
    59    11    10    1
    60   142   141    2
    61   140   141    1
    62   140   143    1
    63   152   151    1
    64   151   153    1
    65   105   106    2
    66   105   104    1
    67   107   104    1
    68    10     9    1
    69   144   143    1
    70    57    54    1
    71    53    54    1
    72   143   145    1
    73   104   103    1
    74    41    40    1
    75    54    55    1
    76    20    18    1
    77     9     3   am
    78    40    39    1
    79    62    63    1
    80    18    17    1
    81    55    56    2
    82     4     3    2
    83    19    17    1
    84    68    66    1
    85     3     2    1
    86    13    14    1
    87    66    63    1
    88    66    67    1
    89    39    38    1
    90    17    14    1
    91    27    25    1
    92    63    64    1
    93    65    64    2
    94    14    15    1
    95    99   100    1
    96    99    96    1
    97     2     5    1
    98     2     1    1
    99    25    26    1
   100    25    22    1
   101    38    37    1
   102    67    69    1
   103   100   101    1
   104    21    15   am
   105    21    22    1
   106    15    16    2
   107     5     6    1
   108     5     7    1
   109     6     8    1
   110   101   102    1
   111    97    98    2
   112    97    96    1
   113    22    23    1
   114    76    77    1
   115    76    75    1
   116    96    95    1
   117    24    23    2
   118    37    34    1
   119    95    89   am
   120    34    35    1
   121    34    33    1
   122    75    74    1
   123    35    36    2
   124    32    29    1
   125    81    80    2
   126    74    71    1
   127    89    90    2
   128    89    88    1
   129    93    92    1
   130    88    87    1
   131    88    91    1
   132    92    91    1
   133    92    94    1
   134    80    87   am
   135    80    79    1
   136    29    30    1
   137    29    28    1
   138    71    72    1
   139    71    70    1
   140    85    84   ar
   141    30    31    2
   142    78    72   am
   143    78    79    1
   144    82    79    1
   145    82    83    1
   146    84    86   ar
   147    84    83    1
   148    72    73    2
