@<TRIPOS>MOLECULE
tmp/5awpA01.pdb
 99 100 0 0 0
SMALL
GASTEIGER

@<TRIPOS>ATOM
      1  N         -7.7750   -4.3710  -19.9660 N.3    37  ASN37      -0.1240
      2  CA        -8.3550   -3.0910  -20.3900 C.3    37  ASN37       0.1653
      3  C         -9.1850   -3.2880  -21.6410 C.2    37  ASN37       0.2266
      4  O         -8.9820   -2.6260  -22.6310 O.2    37  ASN37      -0.2867
      5  CB        -7.2660   -2.0200  -20.6020 C.3    37  ASN37       0.1155
      6  CG        -7.8330   -0.6280  -20.8270 C.2    37  ASN37       0.2627
      7  OD1       -8.9210   -0.2840  -20.3520 O.2    37  ASN37      -0.2716
      8  ND2       -7.0840    0.1980  -21.5350 N.am   37  ASN37      -0.0877
      9  N        -19.7100   -5.7500  -16.7140 N.3    67  ASP67      -0.1225
     10  CA       -19.1450   -4.5250  -16.1750 C.3    67  ASP67       0.1805
     11  C        -18.9590   -3.5140  -17.3180 C.2    67  ASP67       0.2598
     12  O        -19.7770   -3.4810  -18.2570 O.2    67  ASP67      -0.2718
     13  CB       -17.8460   -4.8280  -15.4330 C.3    67  ASP67       0.1424
     14  CG       -17.5290   -3.7760  -14.3790 C.2    67  ASP67       0.3668
     15  OD1      -18.2240   -3.7450  -13.3490 O.co2  67  ASP67      -0.2456
     16  OD2      -16.6260   -2.9490  -14.6250 O.co2  67  ASP67      -0.2456
     17  N        -17.9320   -2.6700  -17.2270 N.am   68  GLY68      -0.1942
     18  CA       -17.7260   -1.5810  -18.1560 C.3    68  GLY68       0.2014
     19  C        -17.1330   -2.0640  -19.4620 C.2    68  GLY68       0.2639
     20  O        -17.3560   -3.1940  -19.8750 O.2    68  GLY68      -0.2714
     21  N        -16.3540   -1.1960  -20.0880 N.am   69  TRP69      -0.1959
     22  CA       -15.8400   -1.4120  -21.4460 C.3    69  TRP69       0.1771
     23  C        -17.0120   -1.6030  -22.4060 C.2    69  TRP69       0.2620
     24  O        -16.9730   -2.4580  -23.2610 O.2    69  TRP69      -0.2715
     25  CB       -14.7800   -2.5580  -21.4750 C.3    69  TRP69       0.0590
     26  CG       -13.5730   -2.1940  -20.6350 C.ar   69  TRP69       0.0006
     27  CD1      -12.4240   -1.5520  -21.0590 C.ar   69  TRP69       0.0946
     28  CD2      -13.4280   -2.3600  -19.2100 C.ar   69  TRP69       0.0152
     29  NE1      -11.5750   -1.3420  -19.9890 N.ar   69  TRP69      -0.2442
     30  CE2      -12.1660   -1.8280  -18.8480 C.ar   69  TRP69       0.0810
     31  CE3      -14.2310   -2.9270  -18.2120 C.ar   69  TRP69       0.0012
     32  CZ2      -11.6920   -1.8540  -17.5290 C.ar   69  TRP69       0.0191
     33  CZ3      -13.7600   -2.9340  -16.8880 C.ar   69  TRP69       0.0001
     34  CH2      -12.5120   -2.3820  -16.5620 C.ar   69  TRP69       0.0015
     35  N        -18.0500   -0.7620  -22.2650 N.am   70  ILE70      -0.1963
     36  CA       -19.2600   -0.9100  -23.0730 C.3    70  ILE70       0.1727
     37  C        -19.3700    0.0670  -24.2380 C.2    70  ILE70       0.2616
     38  O        -20.3970    0.1010  -24.9040 O.2    70  ILE70      -0.2715
     39  CB       -20.5850   -0.9320  -22.2290 C.3    70  ILE70       0.0290
     40  CG1      -20.6230    0.1940  -21.1870 C.3    70  ILE70       0.0022
     41  CG2      -20.7610   -2.2910  -21.5580 C.3    70  ILE70       0.0023
     42  CD1      -20.5040    1.5710  -21.8060 C.3    70  ILE70       0.0001
     43  N        -18.3120    0.8360  -24.5230 N.am   71  GLU71      -0.1977
     44  CA       -18.3560    1.7730  -25.6580 C.3    71  GLU71       0.1602
     45  C        -18.5890    1.0360  -26.9740 C.2    71  GLU71       0.2287
     46  O        -19.2260    1.5590  -27.8770 O.2    71  GLU71      -0.2864
     47  CB       -17.0670    2.6030  -25.7530 C.3    71  GLU71       0.0415
     48  CG       -16.9880    3.7710  -24.7740 C.3    71  GLU71       0.1163
     49  CD       -16.5970    3.4000  -23.3330 C.2    71  GLU71       0.3649
     50  OE1      -16.4200    2.2140  -23.0060 O.co2  71  GLU71      -0.2457
     51  OE2      -16.4980    4.3350  -22.5060 O.co2  71  GLU71      -0.2457
     52  N        -24.2510   -4.1490  -16.0010 N.3   110  TYR110     -0.1241
     53  CA       -23.6680   -2.8210  -15.7930 C.3   110  TYR110      0.1605
     54  C        -24.1050   -1.9500  -16.9410 C.2   110  TYR110      0.2264
     55  O        -23.7140   -2.1940  -18.0940 O.2   110  TYR110     -0.2867
     56  CB       -22.1590   -2.9380  -15.7670 C.3   110  TYR110      0.0534
     57  CG       -21.3390   -1.6730  -15.6860 C.ar  110  TYR110     -0.0201
     58  CD1      -21.1290   -0.9070  -16.8180 C.ar  110  TYR110     -0.0009
     59  CD2      -20.6690   -1.2990  -14.5130 C.ar  110  TYR110     -0.0009
     60  CE1      -20.3460    0.2160  -16.7950 C.ar  110  TYR110      0.0417
     61  CE2      -19.8790   -0.1450  -14.4890 C.ar  110  TYR110      0.0417
     62  CZ       -19.7310    0.5990  -15.6590 C.ar  110  TYR110      0.1957
     63  OH       -18.9590    1.7420  -15.7730 O.3   110  TYR110     -0.2866
     64  N        -27.0680    6.9310  -20.6460 N.3   115  TRP115     -0.1241
     65  CA       -26.2210    6.8790  -21.8130 C.3   115  TRP115      0.1605
     66  C        -27.1020    6.6580  -23.0330 C.2   115  TRP115      0.2264
     67  O        -28.0500    5.8680  -22.9990 O.2   115  TRP115     -0.2867
     68  CB       -25.1830    5.7440  -21.7400 C.3   115  TRP115      0.0550
     69  CG       -24.0040    6.0200  -20.8780 C.ar  115  TRP115      0.0003
     70  CD1      -23.3850    7.2130  -20.7040 C.ar  115  TRP115      0.0946
     71  CD2      -23.2670    5.0600  -20.0990 C.ar  115  TRP115      0.0152
     72  NE1      -22.2980    7.0620  -19.8640 N.ar  115  TRP115     -0.2442
     73  CE2      -22.2100    5.7520  -19.4740 C.ar  115  TRP115      0.0810
     74  CE3      -23.4170    3.6860  -19.8530 C.ar  115  TRP115      0.0012
     75  CZ2      -21.2980    5.1290  -18.6110 C.ar  115  TRP115      0.0191
     76  CZ3      -22.5040    3.0620  -18.9860 C.ar  115  TRP115      0.0001
     77  CH2      -21.4530    3.7960  -18.3850 C.ar  115  TRP115      0.0015
     78  N        -20.3550   11.7170  -22.9790 N.3   146  PHE146     -0.1241
     79  CA       -19.7470   11.1270  -21.7870 C.3   146  PHE146      0.1605
     80  C        -18.2420   11.1520  -21.9710 C.2   146  PHE146      0.2264
     81  O        -17.7500   10.7000  -22.9880 O.2   146  PHE146     -0.2867
     82  CB       -20.2240    9.6720  -21.6340 C.3   146  PHE146      0.0534
     83  CG       -19.3930    8.8400  -20.6880 C.ar  146  PHE146     -0.0203
     84  CD1      -19.2960    9.1820  -19.3620 C.ar  146  PHE146     -0.0042
     85  CD2      -18.7440    7.6930  -21.1300 C.ar  146  PHE146     -0.0042
     86  CE1      -18.5510    8.4190  -18.4740 C.ar  146  PHE146     -0.0003
     87  CE2      -17.9980    6.9160  -20.2540 C.ar  146  PHE146     -0.0003
     88  CZ       -17.8920    7.2880  -18.9180 C.ar  146  PHE146     -0.0000
     89  N        -20.9190    6.1670  -13.1930 N.3   188  PHE188     -0.1241
     90  CA       -20.6010    7.4460  -13.8570 C.3   188  PHE188      0.1605
     91  C        -21.6200    8.5810  -13.6250 C.2   188  PHE188      0.2264
     92  O        -21.5640    9.6220  -14.3090 O.2   188  PHE188     -0.2867
     93  CB       -20.2490    7.2510  -15.3420 C.3   188  PHE188      0.0534
     94  CG       -18.9220    6.5730  -15.5430 C.ar  188  PHE188     -0.0203
     95  CD1      -17.7340    7.2850  -15.3590 C.ar  188  PHE188     -0.0042
     96  CD2      -18.8460    5.2300  -15.8670 C.ar  188  PHE188     -0.0042
     97  CE1      -16.5100    6.6670  -15.4950 C.ar  188  PHE188     -0.0003
     98  CE2      -17.6120    4.5990  -16.0100 C.ar  188  PHE188     -0.0003
     99  CZ       -16.4450    5.3230  -15.8260 C.ar  188  PHE188     -0.0000
@<TRIPOS>BOND
     1    46    45    2
     2    45    44    1
     3    47    44    1
     4    47    48    1
     5    44    43    1
     6    38    37    2
     7    48    49    1
     8    43    37   am
     9    37    36    1
    10    49    50   ar
    11    49    51   ar
    12    24    23    2
    13    36    35    1
    14    36    39    1
    15    66    67    2
    16    66    65    1
    17    81    80    2
    18    78    79    1
    19     4     3    2
    20    23    35   am
    21    23    22    1
    22    39    41    1
    23    39    40    1
    24    80    79    1
    25    65    68    1
    26    65    64    1
    27    42    40    1
    28    79    82    1
    29    68    69    1
    30     3     2    1
    31    82    83    1
    32     8     6   am
    33    25    22    1
    34    25    26    1
    35    22    21    1
    36    85    83   ar
    37    85    87   ar
    38    27    26   ar
    39    27    29   ar
    40    69    70   ar
    41    69    71   ar
    42     6     5    1
    43     6     7    2
    44    70    72   ar
    45    83    84   ar
    46    26    28   ar
    47     5     2    1
    48     2     1    1
    49    87    88   ar
    50    71    74   ar
    51    71    73   ar
    52    21    19   am
    53    29    30   ar
    54    20    19    2
    55    72    73   ar
    56    74    76   ar
    57    73    75   ar
    58    19    18    1
    59    84    86   ar
    60    28    30   ar
    61    28    31   ar
    62    76    77   ar
    63    88    86   ar
    64    30    32   ar
    65    75    77   ar
    66    12    11    2
    67    31    33   ar
    68    18    17    1
    69    55    54    2
    70    32    34   ar
    71    11    17   am
    72    11    10    1
    73    54    53    1
    74    33    34   ar
    75    58    60   ar
    76    58    57   ar
    77    60    62   ar
    78     9    10    1
    79    10    13    1
    80    98    96   ar
    81    98    99   ar
    82    52    53    1
    83    96    94   ar
    84    99    97   ar
    85    53    56    1
    86    63    62    1
    87    56    57    1
    88    57    59   ar
    89    62    61   ar
    90    94    95   ar
    91    94    93    1
    92    97    95   ar
    93    13    14    1
    94    93    90    1
    95    16    14   ar
    96    59    61   ar
    97    14    15   ar
    98    92    91    2
    99    90    91    1
   100    90    89    1
