@<TRIPOS>MOLECULE
tmp/5awpA00.pdb
 139 137 0 0 0
SMALL
GASTEIGER

@<TRIPOS>ATOM
      1  N        -14.8150   -8.1130  -14.0990 N.3    30  TYR30      -0.1241
      2  CA       -13.7190   -7.1700  -13.8670 C.3    30  TYR30       0.1605
      3  C        -12.3410   -7.8290  -13.8650 C.2    30  TYR30       0.2264
      4  O        -11.3730   -7.2120  -14.2950 O.2    30  TYR30      -0.2867
      5  CB       -13.9460   -6.4500  -12.5500 C.3    30  TYR30       0.0534
      6  CG       -13.0590   -5.2500  -12.2620 C.ar   30  TYR30      -0.0201
      7  CD1      -13.3600   -3.9870  -12.7850 C.ar   30  TYR30      -0.0009
      8  CD2      -11.9460   -5.3620  -11.4280 C.ar   30  TYR30      -0.0009
      9  CE1      -12.5570   -2.8900  -12.5150 C.ar   30  TYR30       0.0417
     10  CE2      -11.1500   -4.2680  -11.1430 C.ar   30  TYR30       0.0417
     11  CZ       -11.4680   -3.0390  -11.6610 C.ar   30  TYR30       0.1957
     12  OH       -10.7020   -1.9540  -11.3610 O.3    30  TYR30      -0.2866
     13  N        -19.7100   -5.7500  -16.7140 N.3    67  ASP67      -0.1225
     14  CA       -19.1450   -4.5250  -16.1750 C.3    67  ASP67       0.1805
     15  C        -18.9590   -3.5140  -17.3180 C.2    67  ASP67       0.2598
     16  O        -19.7770   -3.4810  -18.2570 O.2    67  ASP67      -0.2718
     17  CB       -17.8460   -4.8280  -15.4330 C.3    67  ASP67       0.1424
     18  CG       -17.5290   -3.7760  -14.3790 C.2    67  ASP67       0.3668
     19  OD1      -18.2240   -3.7450  -13.3490 O.co2  67  ASP67      -0.2456
     20  OD2      -16.6260   -2.9490  -14.6250 O.co2  67  ASP67      -0.2456
     21  N        -17.9320   -2.6700  -17.2270 N.am   68  GLY68      -0.1942
     22  CA       -17.7260   -1.5810  -18.1560 C.3    68  GLY68       0.2014
     23  C        -17.1330   -2.0640  -19.4620 C.2    68  GLY68       0.2638
     24  O        -17.3560   -3.1940  -19.8750 O.2    68  GLY68      -0.2714
     25  N        -16.3540   -1.1960  -20.0880 N.am   69  TRP69      -0.1973
     26  CA       -15.8400   -1.4120  -21.4460 C.3    69  TRP69       0.1640
     27  C        -17.0120   -1.6030  -22.4060 C.2    69  TRP69       0.2290
     28  O        -16.9730   -2.4580  -23.2610 O.2    69  TRP69      -0.2864
     29  CB       -14.7800   -2.5580  -21.4750 C.3    69  TRP69       0.0576
     30  CG       -13.5730   -2.1940  -20.6350 C.ar   69  TRP69       0.0006
     31  CD1      -12.4240   -1.5520  -21.0590 C.ar   69  TRP69       0.0946
     32  CD2      -13.4280   -2.3600  -19.2100 C.ar   69  TRP69       0.0152
     33  NE1      -11.5750   -1.3420  -19.9890 N.ar   69  TRP69      -0.2442
     34  CE2      -12.1660   -1.8280  -18.8480 C.ar   69  TRP69       0.0810
     35  CE3      -14.2310   -2.9270  -18.2120 C.ar   69  TRP69       0.0012
     36  CZ2      -11.6920   -1.8540  -17.5290 C.ar   69  TRP69       0.0191
     37  CZ3      -13.7600   -2.9340  -16.8880 C.ar   69  TRP69       0.0001
     38  CH2      -12.5120   -2.3820  -16.5620 C.ar   69  TRP69       0.0015
     39  N        -24.2510   -4.1490  -16.0010 N.3   110  TYR110     -0.1241
     40  CA       -23.6680   -2.8210  -15.7930 C.3   110  TYR110      0.1605
     41  C        -24.1050   -1.9500  -16.9410 C.2   110  TYR110      0.2264
     42  O        -23.7140   -2.1940  -18.0940 O.2   110  TYR110     -0.2867
     43  CB       -22.1590   -2.9380  -15.7670 C.3   110  TYR110      0.0534
     44  CG       -21.3390   -1.6730  -15.6860 C.ar  110  TYR110     -0.0201
     45  CD1      -21.1290   -0.9070  -16.8180 C.ar  110  TYR110     -0.0009
     46  CD2      -20.6690   -1.2990  -14.5130 C.ar  110  TYR110     -0.0009
     47  CE1      -20.3460    0.2160  -16.7950 C.ar  110  TYR110      0.0417
     48  CE2      -19.8790   -0.1450  -14.4890 C.ar  110  TYR110      0.0417
     49  CZ       -19.7310    0.5990  -15.6590 C.ar  110  TYR110      0.1957
     50  OH       -18.9590    1.7420  -15.7730 O.3   110  TYR110     -0.2866
     51  N        -26.1910   -2.2180  -12.2700 N.3   185  ARG185     -0.1245
     52  CA       -25.0490   -1.5490  -11.6990 C.3   185  ARG185      0.1563
     53  C        -24.8000   -0.2980  -12.5220 C.2   185  ARG185      0.2260
     54  O        -24.3760   -0.3820  -13.7020 O.2   185  ARG185     -0.2867
     55  CB       -23.8710   -2.5160  -11.7750 C.3   185  ARG185      0.0307
     56  CG       -22.6570   -2.0820  -11.0180 C.3   185  ARG185      0.0489
     57  CD       -21.7860   -3.2850  -10.6230 C.3   185  ARG185      0.2205
     58  NE       -20.6050   -2.8040   -9.9220 N.pl3 185  ARG185     -0.0865
     59  CZ       -20.5260   -2.5440   -8.6190 C.cat 185  ARG185      0.5346
     60  NH1      -21.5680   -2.6970   -7.8110 N.pl3 185  ARG185      0.1354
     61  NH2      -19.3770   -2.1040   -8.1240 N.pl3 185  ARG185      0.1354
     62  N        -23.1480    3.2990  -13.1340 N.3   187  ASP187     -0.1225
     63  CA       -21.9050    3.9910  -12.8410 C.3   187  ASP187      0.1805
     64  C        -21.8720    5.3240  -13.5830 C.2   187  ASP187      0.2597
     65  O        -22.6590    5.5530  -14.4990 O.2   187  ASP187     -0.2718
     66  CB       -20.7530    3.0820  -13.3120 C.3   187  ASP187      0.1424
     67  CG       -19.3740    3.5520  -12.8680 C.2   187  ASP187      0.3668
     68  OD1      -19.2830    4.3830  -11.9520 O.co2 187  ASP187     -0.2456
     69  OD2      -18.3810    3.0380  -13.4490 O.co2 187  ASP187     -0.2456
     70  N        -20.9190    6.1670  -13.1930 N.am  188  PHE188     -0.1976
     71  CA       -20.6010    7.4460  -13.8570 C.3   188  PHE188      0.1639
     72  C        -21.6200    8.5810  -13.6250 C.2   188  PHE188      0.2290
     73  O        -21.5640    9.6220  -14.3090 O.2   188  PHE188     -0.2864
     74  CB       -20.2490    7.2510  -15.3420 C.3   188  PHE188      0.0560
     75  CG       -18.9220    6.5730  -15.5430 C.ar  188  PHE188     -0.0200
     76  CD1      -17.7340    7.2850  -15.3590 C.ar  188  PHE188     -0.0042
     77  CD2      -18.8460    5.2300  -15.8670 C.ar  188  PHE188     -0.0042
     78  CE1      -16.5100    6.6670  -15.4950 C.ar  188  PHE188     -0.0003
     79  CE2      -17.6120    4.5990  -16.0100 C.ar  188  PHE188     -0.0003
     80  CZ       -16.4450    5.3230  -15.8260 C.ar  188  PHE188     -0.0000
     81  N        -22.7500    3.1920   -8.5410 N.3   232  VAL232     -0.1245
     82  CA       -21.3150    2.8680   -8.5100 C.3   232  VAL232      0.1561
     83  C        -20.4390    4.1340   -8.3660 C.2   232  VAL232      0.2260
     84  O        -19.2890    4.0290   -7.9400 O.2   232  VAL232     -0.2867
     85  CB       -20.9280    2.0750   -9.7730 C.3   232  VAL232      0.0252
     86  CG1      -19.4490    1.6900   -9.8110 C.3   232  VAL232      0.0019
     87  CG2      -21.7820    0.8170   -9.8690 C.3   232  VAL232      0.0019
     88  N        -21.3700    2.4260   -3.7230 N.3   250  ARG250     -0.1245
     89  CA       -19.9340    2.1950   -3.5820 C.3   250  ARG250      0.1563
     90  C        -19.3650    3.1540   -2.5380 C.2   250  ARG250      0.2260
     91  O        -19.7000    4.3470   -2.5320 O.2   250  ARG250     -0.2867
     92  CB       -19.1860    2.3470   -4.9310 C.3   250  ARG250      0.0307
     93  CG       -19.0840    1.0440   -5.7170 C.3   250  ARG250      0.0489
     94  CD       -17.8280    0.2380   -5.3830 C.3   250  ARG250      0.2205
     95  NE       -16.6570    1.0910   -5.6280 N.pl3 250  ARG250     -0.0865
     96  CZ       -16.1680    1.3590   -6.8440 C.cat 250  ARG250      0.5346
     97  NH1      -16.6750    0.7790   -7.9040 N.pl3 250  ARG250      0.1354
     98  NH2      -15.1750    2.2270   -6.9950 N.pl3 250  ARG250      0.1354
     99  N        -12.0620    2.1030   -6.8690 N.3   254  ASP254     -0.1239
    100  CA       -12.1310    0.8210   -7.5500 C.3   254  ASP254      0.1674
    101  C        -11.1480   -0.2050   -6.9860 C.2   254  ASP254      0.2266
    102  O        -10.0330    0.1470   -6.6210 O.2   254  ASP254     -0.2867
    103  CB       -11.6970    0.9570   -9.0160 C.3   254  ASP254      0.1410
    104  CG       -12.5660    1.8470   -9.8210 C.2   254  ASP254      0.3668
    105  OD1      -13.5590    2.4620   -9.3120 O.co2 254  ASP254     -0.2456
    106  OD2      -12.2200    1.9360  -11.0130 O.co2 254  ASP254     -0.2456
    107  N        -16.3110   12.3630   -5.0190 N.3   274  TRP274     -0.1241
    108  CA       -16.2650   10.9140   -5.2620 C.3   274  TRP274      0.1605
    109  C        -14.8230   10.4210   -5.4050 C.2   274  TRP274      0.2264
    110  O        -14.0460   11.0320   -6.1430 O.2   274  TRP274     -0.2867
    111  CB       -17.0100   10.5190   -6.5410 C.3   274  TRP274      0.0550
    112  CG       -16.5010    9.2200   -7.0650 C.ar  274  TRP274      0.0003
    113  CD1      -15.5990    9.0410   -8.0770 C.ar  274  TRP274      0.0946
    114  CD2      -16.7820    7.9160   -6.5400 C.ar  274  TRP274      0.0152
    115  NE1      -15.3040    7.7130   -8.2130 N.ar  274  TRP274     -0.2442
    116  CE2      -16.0380    6.9930   -7.3040 C.ar  274  TRP274      0.0810
    117  CE3      -17.6030    7.4410   -5.5160 C.ar  274  TRP274      0.0012
    118  CZ2      -16.0880    5.6180   -7.0750 C.ar  274  TRP274      0.0191
    119  CZ3      -17.6510    6.0710   -5.2720 C.ar  274  TRP274      0.0001
    120  CH2      -16.8940    5.1720   -6.0560 C.ar  274  TRP274      0.0015
    121  N        -17.1660   -3.0580   -3.4830 N.3   301  ASP301     -0.1225
    122  CA       -16.6840   -3.3520   -4.8390 C.3   301  ASP301      0.1805
    123  C        -16.3120   -4.8200   -5.0320 C.2   301  ASP301      0.2597
    124  O        -17.0750   -5.7000   -4.6100 O.2   301  ASP301     -0.2718
    125  CB       -15.5760   -2.3900   -5.2890 C.3   301  ASP301      0.1424
    126  CG       -15.4750   -2.2900   -6.8120 C.2   301  ASP301      0.3668
    127  OD1      -16.5120   -2.1620   -7.4890 O.co2 301  ASP301     -0.2456
    128  OD2      -14.3540   -2.3370   -7.3290 O.co2 301  ASP301     -0.2456
    129  N        -15.1850   -5.1150   -5.6700 N.am  302  PHE302     -0.1976
    130  CA       -14.9000   -6.4580   -6.1180 C.3   302  PHE302      0.1639
    131  C        -13.7820   -7.1330   -5.3350 C.2   302  PHE302      0.2290
    132  O        -12.7950   -6.5080   -5.0060 O.2   302  PHE302     -0.2864
    133  CB       -14.4950   -6.4360   -7.5780 C.3   302  PHE302      0.0560
    134  CG       -15.5160   -5.8260   -8.4850 C.ar  302  PHE302     -0.0200
    135  CD1      -16.8660   -6.1000   -8.3260 C.ar  302  PHE302     -0.0042
    136  CD2      -15.1170   -5.0320   -9.5530 C.ar  302  PHE302     -0.0042
    137  CE1      -17.8080   -5.5390   -9.1690 C.ar  302  PHE302     -0.0003
    138  CE2      -16.0700   -4.4910  -10.4240 C.ar  302  PHE302     -0.0003
    139  CZ       -17.4100   -4.7670  -10.2330 C.ar  302  PHE302     -0.0000
@<TRIPOS>BOND
     1    28    27    2
     2    27    26    1
     3    29    26    1
     4    29    30    1
     5    26    25    1
     6    31    30   ar
     7    31    33   ar
     8    30    32   ar
     9    25    23   am
    10    33    34   ar
    11    24    23    2
    12    23    22    1
    13    32    34   ar
    14    32    35   ar
    15    34    36   ar
    16    16    15    2
    17    35    37   ar
    18    22    21    1
    19    42    41    2
    20    36    38   ar
    21    15    21   am
    22    15    14    1
    23    41    40    1
    24    37    38   ar
    25    45    47   ar
    26    45    44   ar
    27    47    49   ar
    28    13    14    1
    29    14    17    1
    30    79    77   ar
    31    79    80   ar
    32    39    40    1
    33    77    75   ar
    34    80    78   ar
    35    40    43    1
    36    50    49    1
    37    43    44    1
    38    44    46   ar
    39    49    48   ar
    40    75    76   ar
    41    75    74    1
    42    78    76   ar
    43    17    18    1
    44    74    71    1
    45    20    18   ar
    46    46    48   ar
    47    65    64    2
    48    18    19   ar
    49    73    72    2
    50     4     3    2
    51     1     2    1
    52     2     3    1
    53     2     5    1
    54    71    72    1
    55    71    70    1
    56    54    53    2
    57    64    70   am
    58    64    63    1
    59    69    67   ar
    60    66    67    1
    61    66    63    1
    62    62    63    1
    63    67    68   ar
    64     7     9   ar
    65     7     6   ar
    66     5     6    1
    67    53    52    1
    68     9    11   ar
    69    51    52    1
    70     6     8   ar
    71    55    52    1
    72    55    56    1
    73    11    12    1
    74    11    10   ar
    75     8    10   ar
    76    56    57    1
    77   106   104   ar
    78    57    58    1
    79   138   139   ar
    80   138   136   ar
    81   139   137   ar
    82    58    59    2
    83    87    85    1
    84   104   105   ar
    85   104   103    1
    86    86    85    1
    87    85    82    1
    88   136   134   ar
    89   137   135   ar
    90   103   100    1
    91    59    61    1
    92    59    60    1
    93    81    82    1
    94    82    83    1
    95   134   135   ar
    96   134   133    1
    97    83    84    2
    98   115   113   ar
    99   115   116   ar
   100   113   112   ar
   101    97    96    1
   102   133   130    1
   103   100   101    1
   104   100    99    1
   105   127   126   ar
   106   128   126   ar
   107   116   118   ar
   108   116   114   ar
   109   118   120   ar
   110   112   111    1
   111   112   114   ar
   112    98    96    1
   113   101   102    2
   114    96    95    2
   115   126   125    1
   116   111   108    1
   117   114   117   ar
   118   110   109    2
   119   130   129    1
   120   130   131    1
   121   120   119   ar
   122    93    94    1
   123    93    92    1
   124   129   123   am
   125    95    94    1
   126   117   119   ar
   127   109   108    1
   128   131   132    2
   129   125   122    1
   130   108   107    1
   131   123   122    1
   132   123   124    2
   133    92    89    1
   134   122   121    1
   135    88    89    1
   136    89    90    1
   137    90    91    2
