@<TRIPOS>MOLECULE
tmp/5awpA02.pdb
 89 87 0 0 0
SMALL
GASTEIGER

@<TRIPOS>ATOM
      1  N        -23.5410   10.8430   25.3430 N.3   477  ASN477     -0.1225
      2  CA       -23.2420   12.0620   26.0660 C.3   477  ASN477      0.1785
      3  C        -24.0950   12.2690   27.3370 C.2   477  ASN477      0.2597
      4  O        -24.0550   13.3460   27.9490 O.2   477  ASN477     -0.2718
      5  CB       -23.3070   13.2650   25.1180 C.3   477  ASN477      0.1169
      6  CG       -24.6900   13.4930   24.5480 C.2   477  ASN477      0.2627
      7  OD1      -25.5120   12.5790   24.4590 O.2   477  ASN477     -0.2716
      8  ND2      -24.9540   14.7250   24.1650 N.am  477  ASN477     -0.0877
      9  N        -24.8390   11.2330   27.7260 N.am  478  HIS478     -0.1975
     10  CA       -25.4230   11.1340   29.0530 C.3   478  HIS478      0.1656
     11  C        -25.1320    9.7380   29.6210 C.2   478  HIS478      0.2291
     12  O        -25.4880    8.7330   28.9970 O.2   478  HIS478     -0.2864
     13  CB       -26.9290   11.3750   28.9990 C.3   478  HIS478      0.0771
     14  CG       -27.3060   12.6890   28.3930 C.ar  478  HIS478      0.0820
     15  ND1      -26.9780   13.8980   28.9700 N.ar  478  HIS478     -0.2267
     16  CD2      -27.9860   12.9850   27.2610 C.ar  478  HIS478      0.1154
     17  CE1      -27.4300   14.8830   28.2140 C.ar  478  HIS478      0.1986
     18  NE2      -28.0530   14.3540   27.1730 N.ar  478  HIS478     -0.2212
     19  N        -29.8860    9.0490   19.7620 N.3   488  ASP488     -0.1225
     20  CA       -30.5680   10.3350   19.9190 C.3   488  ASP488      0.1805
     21  C        -31.0380   10.8730   18.5530 C.2   488  ASP488      0.2598
     22  O        -31.0250   10.1490   17.5420 O.2   488  ASP488     -0.2718
     23  CB       -29.6840   11.3420   20.6850 C.3   488  ASP488      0.1424
     24  CG       -28.5250   11.8620   19.8760 C.2   488  ASP488      0.3668
     25  OD1      -28.3620   11.4540   18.7030 O.co2 488  ASP488     -0.2456
     26  OD2      -27.7540   12.6940   20.4220 O.co2 488  ASP488     -0.2456
     27  N        -31.4990   12.1200   18.5420 N.am  489  GLY489     -0.1942
     28  CA       -32.0860   12.7140   17.3590 C.3   489  GLY489      0.2014
     29  C        -33.5180   12.2790   17.1470 C.2   489  GLY489      0.2639
     30  O        -34.1160   12.5630   16.1140 O.2   489  GLY489     -0.2714
     31  N        -34.0880   11.6230   18.1420 N.am  490  LEU490     -0.1963
     32  CA       -35.4780   11.2460   18.0960 C.3   490  LEU490      0.1728
     33  C        -36.2980   12.4020   18.6860 C.2   490  LEU490      0.2616
     34  O        -36.8740   12.2810   19.7560 O.2   490  LEU490     -0.2715
     35  CB       -35.6890    9.9490   18.8680 C.3   490  LEU490      0.0311
     36  CG       -34.9950    8.7370   18.2390 C.3   490  LEU490      0.0022
     37  CD1      -34.8640    7.6300   19.2600 C.3   490  LEU490      0.0001
     38  CD2      -35.7550    8.2630   17.0080 C.3   490  LEU490      0.0001
     39  N        -36.3020   13.5180   17.9680 N.am  491  GLN491     -0.1977
     40  CA       -36.8740   14.7830   18.4260 C.3   491  GLN491      0.1601
     41  C        -37.4230   15.5340   17.2080 C.2   491  GLN491      0.2287
     42  O        -37.1550   15.1520   16.0640 O.2   491  GLN491     -0.2864
     43  CB       -35.7940   15.6240   19.1190 C.3   491  GLN491      0.0394
     44  CG       -34.6190   15.9530   18.2130 C.3   491  GLN491      0.0908
     45  CD       -33.5680   16.8000   18.8780 C.2   491  GLN491      0.2608
     46  OE1      -33.5120   16.9010   20.1020 O.2   491  GLN491     -0.2717
     47  NE2      -32.7210   17.4160   18.0730 N.am  491  GLN491     -0.0878
     48  N        -37.5770   15.7920   28.8200 N.3   523  THR523     -0.1218
     49  CA       -38.2370   16.9450   28.1930 C.3   523  THR523      0.1862
     50  C        -39.1040   17.7660   29.1630 C.2   523  THR523      0.2287
     51  O        -39.4450   18.9120   28.8620 O.2   523  THR523     -0.2866
     52  CB       -39.1940   16.5110   27.0750 C.3   523  THR523      0.1770
     53  OG1      -40.1080   15.5280   27.5860 O.3   523  THR523     -0.2211
     54  CG2      -38.4150   15.9640   25.8440 C.3   523  THR523      0.0375
     55  N        -31.5560   13.8230   32.0990 N.3   555  TRP555     -0.1241
     56  CA       -31.1470   13.0690   30.9040 C.3   555  TRP555      0.1605
     57  C        -30.2210   11.8770   31.2320 C.2   555  TRP555      0.2264
     58  O        -30.0700   10.9810   30.4100 O.2   555  TRP555     -0.2867
     59  CB       -30.5120   13.9990   29.8520 C.3   555  TRP555      0.0550
     60  CG       -31.5390   14.7590   29.0750 C.ar  555  TRP555      0.0003
     61  CD1      -31.7340   16.1120   29.0640 C.ar  555  TRP555      0.0946
     62  CD2      -32.5290   14.2030   28.2120 C.ar  555  TRP555      0.0152
     63  NE1      -32.7810   16.4290   28.2390 N.ar  555  TRP555     -0.2442
     64  CE2      -33.2920   15.2760   27.7060 C.ar  555  TRP555      0.0810
     65  CE3      -32.8420   12.8970   27.8060 C.ar  555  TRP555      0.0012
     66  CZ2      -34.3530   15.0860   26.8240 C.ar  555  TRP555      0.0191
     67  CZ3      -33.8950   12.7100   26.9300 C.ar  555  TRP555      0.0001
     68  CH2      -34.6430   13.8040   26.4480 C.ar  555  TRP555      0.0015
     69  N        -39.5440   13.9750   22.9970 N.3   585  ALA585     -0.1231
     70  CA       -38.3510   13.3020   22.4920 C.3   585  ALA585      0.1694
     71  C        -37.8770   12.2410   23.4590 C.2   585  ALA585      0.2592
     72  O        -38.1360   12.3210   24.6620 O.2   585  ALA585     -0.2718
     73  CB       -37.2420   14.3240   22.2680 C.3   585  ALA585      0.0304
     74  N        -37.1740   11.2350   22.9370 N.am  586  ILE586     -0.1966
     75  CA       -36.4950   10.2550   23.7910 C.3   586  ILE586      0.1727
     76  C        -35.1090   10.0120   23.2420 C.2   586  ILE586      0.2616
     77  O        -34.8180   10.3530   22.0860 O.2   586  ILE586     -0.2715
     78  CB       -37.2390    8.8960   23.9340 C.3   586  ILE586      0.0290
     79  CG1      -37.1350    8.0250   22.6620 C.3   586  ILE586      0.0022
     80  CG2      -38.7000    9.1120   24.3360 C.3   586  ILE586      0.0023
     81  CD1      -37.7540    6.6530   22.7930 C.3   586  ILE586      0.0001
     82  N        -34.2460    9.4800   24.1010 N.am  587  ASN587     -0.1972
     83  CA       -33.0440    8.7780   23.6640 C.3   587  ASN587      0.1688
     84  C        -33.3130    7.3160   23.8870 C.2   587  ASN587      0.2292
     85  O        -33.8600    6.9560   24.9250 O.2   587  ASN587     -0.2864
     86  CB       -31.8500    9.1900   24.4930 C.3   587  ASN587      0.1181
     87  CG       -31.4620   10.6270   24.2740 C.2   587  ASN587      0.2629
     88  OD1      -31.6700   11.1890   23.2010 O.2   587  ASN587     -0.2716
     89  ND2      -30.8800   11.2340   25.2950 N.am  587  ASN587     -0.0877
@<TRIPOS>BOND
     1    42    41    2
     2    30    29    2
     3    38    36    1
     4    29    28    1
     5    29    31   am
     6    41    40    1
     7    28    27    1
     8    22    21    2
     9    39    40    1
    10    39    33   am
    11    47    45   am
    12    32    31    1
    13    32    33    1
    14    32    35    1
    15    44    45    1
    16    44    43    1
    17    36    35    1
    18    36    37    1
    19    40    43    1
    20    27    21   am
    21    21    20    1
    22    33    34    2
    23    25    24   ar
    24    45    46    2
    25    19    20    1
    26    24    26   ar
    27    24    23    1
    28    20    23    1
    29    77    76    2
    30    73    70    1
    31    70    69    1
    32    70    71    1
    33    79    81    1
    34    79    78    1
    35    74    71   am
    36    74    75    1
    37    88    87    2
    38    76    75    1
    39    76    82   am
    40    71    72    2
    41    83    84    1
    42    83    82    1
    43    83    86    1
    44    75    78    1
    45    84    85    2
    46    78    80    1
    47     8     6   am
    48    87    86    1
    49    87    89   am
    50     7     6    2
    51     6     5    1
    52     5     2    1
    53     1     2    1
    54    54    52    1
    55     2     3    1
    56    68    66   ar
    57    68    67   ar
    58    66    64   ar
    59    67    65   ar
    60    52    53    1
    61    52    49    1
    62    18    16   ar
    63    18    17   ar
    64    16    14   ar
    65     3     9   am
    66     3     4    2
    67    64    62   ar
    68    64    63   ar
    69     9    10    1
    70    65    62   ar
    71    49    48    1
    72    49    50    1
    73    62    60   ar
    74    17    15   ar
    75    63    61   ar
    76    14    15   ar
    77    14    13    1
    78    51    50    2
    79    12    11    2
    80    13    10    1
    81    10    11    1
    82    61    60   ar
    83    60    59    1
    84    59    56    1
    85    58    57    2
    86    56    57    1
    87    56    55    1
