@<TRIPOS>MOLECULE
tmp/5awvB01.pdb
 179 172 0 0 0
SMALL
GASTEIGER

@<TRIPOS>ATOM
      1  N         -9.4560  -42.2110  502.7660 N.3    66  HIS66      -0.1241
      2  CA        -8.4920  -42.8180  503.6270 C.3    66  HIS66       0.1621
      3  C         -8.4540  -44.3510  503.6410 C.2    66  HIS66       0.2264
      4  O         -7.7430  -44.8860  504.4710 O.2    66  HIS66      -0.2867
      5  CB        -8.6880  -42.3010  505.0460 C.3    66  HIS66       0.0745
      6  CG        -7.8300  -41.1300  505.3260 C.ar   66  HIS66       0.0817
      7  ND1       -6.5450  -41.2450  505.8840 N.ar   66  HIS66      -0.2268
      8  CD2       -7.9900  -39.8570  504.8930 C.ar   66  HIS66       0.1154
      9  CE1       -6.0230  -40.0040  505.8280 C.ar   66  HIS66       0.1986
     10  NE2       -6.8760  -39.1680  505.2710 N.ar   66  HIS66      -0.2212
     11  N         -8.6840  -39.6580  515.2120 N.3   125  VAL125     -0.1231
     12  CA        -7.7700  -38.5310  515.3880 C.3   125  VAL125      0.1692
     13  C         -7.4070  -37.8350  514.0960 C.2   125  VAL125      0.2592
     14  O         -7.3010  -36.6110  514.0860 O.2   125  VAL125     -0.2718
     15  CB        -6.3920  -39.0020  515.9390 C.3   125  VAL125      0.0266
     16  CG1       -5.4490  -37.8180  516.1950 C.3   125  VAL125      0.0020
     17  CG2       -6.5630  -39.7910  517.2220 C.3   125  VAL125      0.0020
     18  N         -7.1590  -38.6030  513.0340 N.am  126  CYS126     -0.1970
     19  CA        -6.6140  -38.0280  511.7920 C.3   126  CYS126      0.1712
     20  C         -7.6560  -37.1440  511.1110 C.2   126  CYS126      0.2296
     21  O         -8.7050  -37.6250  510.6850 O.2   126  CYS126     -0.2864
     22  CB        -6.1120  -39.0980  510.8010 C.3   126  CYS126      0.0983
     23  SG        -5.2910  -40.6280  511.4250 S.3   126  CYS126     -0.0798
     24  N         -9.4320  -41.3760  520.6480 N.3   142  PRO142     -0.2116
     25  CA        -9.0360  -41.1280  522.0550 C.3   142  PRO142      0.1372
     26  C        -10.1550  -40.9670  523.0800 C.2   142  PRO142      0.2244
     27  O         -9.9490  -41.3140  524.2000 O.2   142  PRO142     -0.2868
     28  CB        -8.1370  -39.8770  521.9780 C.3   142  PRO142      0.0268
     29  CG        -7.6050  -39.8780  520.6090 C.3   142  PRO142      0.0207
     30  CD        -8.6470  -40.5630  519.7180 C.3   142  PRO142      0.0892
     31  N          4.0660  -36.9480  526.2550 N.3   229  THR229     -0.1218
     32  CA         4.6350  -38.0060  525.4000 C.3   229  THR229      0.1862
     33  C          5.9140  -38.6410  525.9950 C.2   229  THR229      0.2287
     34  O          6.9800  -38.0100  525.9630 O.2   229  THR229     -0.2866
     35  CB         4.8950  -37.4780  524.0010 C.3   229  THR229      0.1770
     36  OG1        3.6170  -37.1460  523.4380 O.3   229  THR229     -0.2211
     37  CG2        5.5300  -38.5760  523.1220 C.3   229  THR229      0.0375
     38  N         -6.2530  -42.0860  527.6970 N.3   267  TRP267     -0.1241
     39  CA        -5.8840  -42.8390  526.5470 C.3   267  TRP267      0.1605
     40  C         -4.4550  -42.6640  526.2710 C.2   267  TRP267      0.2264
     41  O         -3.9090  -41.5950  526.4620 O.2   267  TRP267     -0.2867
     42  CB        -6.7310  -42.3320  525.3760 C.3   267  TRP267      0.0550
     43  CG        -6.4380  -42.9510  524.0400 C.ar  267  TRP267      0.0003
     44  CD1       -6.9320  -44.1560  523.5570 C.ar  267  TRP267      0.0946
     45  CD2       -5.5720  -42.4510  523.0940 C.ar  267  TRP267      0.0152
     46  NE1       -6.4140  -44.3870  522.3150 N.ar  267  TRP267     -0.2442
     47  CE2       -5.5870  -43.3530  521.9910 C.ar  267  TRP267      0.0810
     48  CE3       -4.7240  -41.3390  523.0460 C.ar  267  TRP267      0.0012
     49  CZ2       -4.8250  -43.1410  520.8510 C.ar  267  TRP267      0.0191
     50  CZ3       -3.9480  -41.1280  521.9180 C.ar  267  TRP267      0.0001
     51  CH2       -4.0100  -42.0460  520.8180 C.ar  267  TRP267      0.0015
     52  N         -1.2900  -44.3680  523.3240 N.3   269  GLN269     -0.1245
     53  CA        -0.7900  -45.3130  522.3820 C.3   269  GLN269      0.1566
     54  C          0.6830  -45.5440  522.4480 C.2   269  GLN269      0.2260
     55  O          1.4620  -44.6430  522.2920 O.2   269  GLN269     -0.2867
     56  CB        -1.2350  -45.0430  520.9310 C.3   269  GLN269      0.0367
     57  CG        -0.7540  -43.8990  520.1440 C.3   269  GLN269      0.0905
     58  CD        -1.3480  -43.9330  518.6940 C.2   269  GLN269      0.2608
     59  OE1       -2.4140  -44.4980  518.4260 O.2   269  GLN269     -0.2717
     60  NE2       -0.6260  -43.3670  517.7660 N.am  269  GLN269     -0.0878
     61  N          3.8540  -46.5320  520.6200 N.3   271  MET271     -0.1245
     62  CA         4.2630  -46.5260  519.2620 C.3   271  MET271      0.1570
     63  C          5.6680  -47.0200  519.2170 C.2   271  MET271      0.2261
     64  O          6.6050  -46.3330  519.6410 O.2   271  MET271     -0.2867
     65  CB         4.1330  -45.1420  518.6170 C.3   271  MET271      0.0387
     66  CG         2.7510  -44.5360  518.8360 C.3   271  MET271      0.0595
     67  SD         2.6210  -42.7510  518.5020 S.3   271  MET271     -0.1393
     68  CE         3.0200  -42.7950  516.7760 C.3   271  MET271      0.0692
     69  N         12.2180  -37.0760  508.6520 N.3   278  GLY278     -0.1210
     70  CA        11.1720  -36.0750  508.3150 C.3   278  GLY278      0.1956
     71  C          9.8310  -36.0790  509.0720 C.2   278  GLY278      0.2612
     72  O          8.9820  -35.2280  508.8050 O.2   278  GLY278     -0.2717
     73  N          9.6400  -36.9890  510.0350 N.am  279  MET279     -0.1965
     74  CA         8.3000  -37.4520  510.4140 C.3   279  MET279      0.1736
     75  C          8.1450  -37.5020  511.9670 C.2   279  MET279      0.2617
     76  O          8.6500  -38.3970  512.6600 O.2   279  MET279     -0.2715
     77  CB         8.0630  -38.7910  509.6670 C.3   279  MET279      0.0427
     78  CG         6.8580  -39.6370  510.0650 C.3   279  MET279      0.0599
     79  SD         7.1010  -41.4140  509.6960 S.3   279  MET279     -0.1393
     80  CE         5.6760  -42.1100  510.5730 C.3   279  MET279      0.0692
     81  N          7.4610  -36.5040  512.5270 N.am  280  GLY280     -0.1940
     82  CA         7.3410  -36.3690  513.9800 C.3   280  GLY280      0.2014
     83  C          6.6170  -37.5150  514.7050 C.2   280  GLY280      0.2638
     84  O          6.8170  -37.6940  515.8980 O.2   280  GLY280     -0.2714
     85  N          5.7750  -38.2710  513.9840 N.am  281  GLU281     -0.1977
     86  CA         4.9940  -39.3710  514.5560 C.3   281  GLU281      0.1602
     87  C          5.7710  -40.7080  514.5170 C.2   281  GLU281      0.2287
     88  O          5.2760  -41.7420  514.9870 O.2   281  GLU281     -0.2864
     89  CB         3.6300  -39.4980  513.8470 C.3   281  GLU281      0.0415
     90  CG         2.4060  -39.4870  514.7740 C.3   281  GLU281      0.1163
     91  CD         2.0010  -38.1320  515.3710 C.2   281  GLU281      0.3649
     92  OE1        2.3240  -37.0700  514.8090 O.co2 281  GLU281     -0.2457
     93  OE2        1.3190  -38.1190  516.4150 O.co2 281  GLU281     -0.2457
     94  N          7.8140  -44.0600  521.1230 N.3   285  MET285     -0.1245
     95  CA         7.1770  -43.1580  522.0400 C.3   285  MET285      0.1570
     96  C          5.7830  -43.5680  522.3980 C.2   285  MET285      0.2261
     97  O          5.1470  -44.4120  521.6710 O.2   285  MET285     -0.2867
     98  CB         7.1470  -41.7580  521.4230 C.3   285  MET285      0.0387
     99  CG         6.6310  -41.6710  519.9890 C.3   285  MET285      0.0595
    100  SD         5.9550  -40.0180  519.6570 S.3   285  MET285     -0.1393
    101  CE         5.8290  -40.1300  517.8880 C.3   285  MET285      0.0692
    102  N          2.4020  -41.3110  523.4090 N.3   287  PRO287     -0.2116
    103  CA         1.5680  -40.1770  523.7260 C.3   287  PRO287      0.1372
    104  C          0.4400  -40.5710  524.6780 C.2   287  PRO287      0.2244
    105  O         -0.1240  -41.7030  524.5850 O.2   287  PRO287     -0.2868
    106  CB         1.0300  -39.7580  522.3390 C.3   287  PRO287      0.0268
    107  CG         1.9980  -40.3490  521.3620 C.3   287  PRO287      0.0207
    108  CD         2.4150  -41.6130  521.9420 C.3   287  PRO287      0.0892
    109  N         -3.1070  -38.9590  526.8920 N.3   289  GLN289     -0.1245
    110  CA        -3.9570  -37.8310  527.2770 C.3   289  GLN289      0.1566
    111  C         -4.9460  -38.2230  528.2870 C.2   289  GLN289      0.2260
    112  O         -5.4300  -39.3570  528.2550 O.2   289  GLN289     -0.2867
    113  CB        -4.6850  -37.2290  526.0300 C.3   289  GLN289      0.0367
    114  CG        -5.6190  -38.1040  525.2650 C.3   289  GLN289      0.0905
    115  CD        -6.2100  -37.4010  523.9900 C.2   289  GLN289      0.2608
    116  OE1       -7.3870  -37.2260  523.8500 O.2   289  GLN289     -0.2717
    117  NE2       -5.3870  -37.0570  523.1230 N.am  289  GLN289     -0.0878
    118  N         -3.8640  -28.7460  527.6830 N.3   323  GLN323     -0.1245
    119  CA        -4.2710  -28.1360  526.3850 C.3   323  GLN323      0.1566
    120  C         -5.7240  -28.1120  526.2490 C.2   323  GLN323      0.2260
    121  O         -6.4100  -29.0420  526.6270 O.2   323  GLN323     -0.2867
    122  CB        -3.7660  -28.9010  525.1790 C.3   323  GLN323      0.0367
    123  CG        -2.3390  -29.3610  525.2360 C.3   323  GLN323      0.0905
    124  CD        -1.9790  -30.1590  524.0070 C.2   323  GLN323      0.2608
    125  OE1       -2.6410  -30.0520  522.9820 O.2   323  GLN323     -0.2717
    126  NE2       -0.9450  -30.9780  524.1040 N.am  323  GLN323     -0.0878
    127  N         -5.3390  -26.5670  518.7240 N.3   328  SER328     -0.1217
    128  CA        -4.6900  -26.4910  517.3840 C.3   328  SER328      0.1889
    129  C         -5.6070  -27.1680  516.3840 C.2   328  SER328      0.2288
    130  O         -6.0850  -28.2700  516.6410 O.2   328  SER328     -0.2866
    131  CB        -3.2930  -27.1130  517.3720 C.3   328  SER328      0.2089
    132  OG        -3.2570  -28.2720  518.1630 O.3   328  SER328     -0.2183
    133  N         -7.3540  -29.4340  513.8530 N.3   330  PRO330     -0.2102
    134  CA        -6.8840  -30.8020  513.6150 C.3   330  PRO330      0.1504
    135  C         -6.3840  -30.9650  512.1710 C.2   330  PRO330      0.2576
    136  O         -7.1110  -30.6260  511.2450 O.2   330  PRO330     -0.2718
    137  CB        -8.1260  -31.7010  513.9210 C.3   330  PRO330      0.0282
    138  CG        -9.1580  -30.8220  514.5270 C.3   330  PRO330      0.0208
    139  CD        -8.8120  -29.3990  514.1290 C.3   330  PRO330      0.0893
    140  N         -5.1260  -31.3960  512.0190 N.am  331  GLY331     -0.1943
    141  CA        -4.5600  -31.8770  510.7540 C.3   331  GLY331      0.2014
    142  C         -4.9220  -31.1100  509.4910 C.2   331  GLY331      0.2639
    143  O         -5.0710  -29.8870  509.5300 O.2   331  GLY331     -0.2714
    144  N         -5.0290  -31.8440  508.3760 N.am  332  ARG332     -0.1963
    145  CA        -5.4510  -31.3250  507.0530 C.3   332  ARG332      0.1729
    146  C         -5.9330  -32.5050  506.1760 C.2   332  ARG332      0.2616
    147  O         -7.1140  -32.5820  505.8020 O.2   332  ARG332     -0.2715
    148  CB        -4.3350  -30.5590  506.2680 C.3   332  ARG332      0.0348
    149  CG        -3.4920  -29.4700  506.9630 C.3   332  ARG332      0.0492
    150  CD        -2.1820  -29.9390  507.6200 C.3   332  ARG332      0.2205
    151  NE        -1.5010  -30.9720  506.8330 N.pl3 332  ARG332     -0.0865
    152  CZ        -1.5040  -32.2820  507.0930 C.cat 332  ARG332      0.5346
    153  NH1       -2.1230  -32.7920  508.1580 N.pl3 332  ARG332      0.1354
    154  NH2       -0.8690  -33.1040  506.2750 N.pl3 332  ARG332      0.1354
    155  N         -4.9940  -33.4110  505.8700 N.am  333  GLY333     -0.1955
    156  CA        -5.1800  -34.4820  504.8940 C.3   333  GLY333      0.1869
    157  C         -4.2990  -34.2870  503.6590 C.2   333  GLY333      0.2309
    158  O         -3.6040  -33.2830  503.5190 O.2   333  GLY333     -0.2863
    159  N          2.6680  -41.1620  501.5230 N.3   337  PRO337     -0.2116
    160  CA         3.5000  -42.2200  500.9720 C.3   337  PRO337      0.1372
    161  C          2.7290  -43.5400  501.0130 C.2   337  PRO337      0.2244
    162  O          1.7330  -43.6300  501.7110 O.2   337  PRO337     -0.2868
    163  CB         4.6910  -42.2540  501.9310 C.3   337  PRO337      0.0268
    164  CG         4.0980  -41.8510  503.2350 C.3   337  PRO337      0.0207
    165  CD         3.1100  -40.7840  502.8790 C.3   337  PRO337      0.0892
    166  N          1.9690  -50.4380  516.8060 N.3   374  TRP374     -0.1298
    167  CA         1.2320  -49.5200  517.7130 C.3   374  TRP374      0.1291
    168  C          0.2440  -50.2510  518.5160 C.3   374  TRP374      0.2013
    169  O         -0.5730  -51.0870  517.9530 O.3   374  TRP374     -0.2188
    170  CB         0.5200  -48.3940  516.9320 C.3   374  TRP374      0.0497
    171  CG         1.3670  -47.4280  516.1170 C.ar  374  TRP374     -0.0001
    172  CD1        2.6560  -47.4720  515.8730 C.ar  374  TRP374      0.0946
    173  CD2        0.8570  -46.3100  515.3670 C.ar  374  TRP374      0.0152
    174  NE1        3.0430  -46.4600  515.0310 N.ar  374  TRP374     -0.2442
    175  CE2        1.9440  -45.7150  514.7190 C.ar  374  TRP374      0.0810
    176  CE3       -0.4150  -45.7470  515.2300 C.ar  374  TRP374      0.0012
    177  CZ2        1.8260  -44.5680  513.9270 C.ar  374  TRP374      0.0191
    178  CZ3       -0.5430  -44.6070  514.4600 C.ar  374  TRP374      0.0001
    179  CH2        0.5650  -44.0490  513.7890 C.ar  374  TRP374      0.0015
@<TRIPOS>BOND
     1   160   161    1
     2   160   159    1
     3   160   163    1
     4   161   162    2
     5   159   165    1
     6   163   164    1
     7     1     2    1
     8   165   164    1
     9   158   157    2
    10     2     3    1
    11     2     5    1
    12     3     4    2
    13   157   156    1
    14     8    10   ar
    15     8     6   ar
    16   156   155    1
    17     5     6    1
    18    10     9   ar
    19     6     7   ar
    20   147   146    2
    21     9     7   ar
    22   155   146   am
    23   146   145    1
    24   148   149    1
    25   148   145    1
    26   154   152    1
    27   151   152    2
    28   151   150    1
    29   149   150    1
    30   145   144    1
    31   152   153    1
    32    70    69    1
    33    70    71    1
    34   144   142   am
    35    72    71    2
    36    71    73   am
    37   142   143    2
    38   142   141    1
    39    77    78    1
    40    77    74    1
    41    79    78    1
    42    79    80    1
    43    73    74    1
    44    74    75    1
    45    21    20    2
    46   141   140    1
    47    22    23    1
    48    22    19    1
    49    20    19    1
    50   136   135    2
    51    19    18    1
    52    75    81   am
    53    75    76    2
    54   140   135   am
    55   135   134    1
    56    81    82    1
    57    18    13   am
    58   134   133    1
    59   134   137    1
    60   179   177   ar
    61   179   178   ar
    62    89    86    1
    63    89    90    1
    64   133   139    1
    65   137   138    1
    66   177   175   ar
    67    82    83    1
    68    85    86    1
    69    85    83   am
    70    14    13    2
    71    13    12    1
    72   139   138    1
    73   178   176   ar
    74    87    86    1
    75    87    88    2
    76    83    84    2
    77   175   174   ar
    78   175   173   ar
    79    90    91    1
    80    92    91   ar
    81   174   172   ar
    82    11    12    1
    83   176   173   ar
    84   173   171   ar
    85    91    93   ar
    86    12    15    1
    87   172   171   ar
    88    15    16    1
    89    15    17    1
    90   171   170    1
    91   129   130    2
    92   129   128    1
    93    68    67    1
    94   166   167    1
    95   170   167    1
    96   131   128    1
    97   131   132    1
    98   128   127    1
    99   167   168    1
   100    60    58   am
   101   101   100    1
   102   169   168    1
   103    59    58    2
   104    67    66    1
   105    65    66    1
   106    65    62    1
   107    58    57    1
   108    63    62    1
   109    63    64    2
   110    62    61    1
   111   100    99    1
   112    30    29    1
   113    30    24    1
   114    99    98    1
   115    57    56    1
   116    29    28    1
   117    24    25    1
   118    51    49   ar
   119    51    50   ar
   120    49    47   ar
   121    56    53    1
   122    94    95    1
   123   107   108    1
   124   107   106    1
   125    98    95    1
   126    97    96    2
   127    50    48   ar
   128   108   102    1
   129    28    25    1
   130    47    46   ar
   131    47    45   ar
   132    95    96    1
   133    25    26    1
   134    55    54    2
   135    46    44   ar
   136   106   103    1
   137    53    54    1
   138    53    52    1
   139   125   124    2
   140    48    45   ar
   141    26    27    2
   142    45    43   ar
   143    37    35    1
   144   117   115   am
   145   102   103    1
   146    36    35    1
   147    44    43   ar
   148   103   104    1
   149   116   115    2
   150   115   114    1
   151    35    32    1
   152   124   126   am
   153   124   123    1
   154    43    42    1
   155   105   104    2
   156   122   123    1
   157   122   119    1
   158   114   113    1
   159    42    39    1
   160    32    33    1
   161    32    31    1
   162    34    33    2
   163   113   110    1
   164   120   119    1
   165   120   121    2
   166    40    41    2
   167    40    39    1
   168   119   118    1
   169    39    38    1
   170   109   110    1
   171   110   111    1
   172   112   111    2
