@<TRIPOS>MOLECULE
tmp/5awvB00.pdb
 92 87 0 0 0
SMALL
GASTEIGER

@<TRIPOS>ATOM
      1  N        -37.0350  -49.6760  517.2120 N.3   177  ARG177     -0.1245
      2  CA       -37.2110  -51.1420  517.2130 C.3   177  ARG177      0.1563
      3  C        -38.2310  -51.5620  516.1760 C.2   177  ARG177      0.2260
      4  O        -38.0640  -52.5950  515.5400 O.2   177  ARG177     -0.2867
      5  CB       -37.5300  -51.7220  518.6300 C.3   177  ARG177      0.0307
      6  CG       -38.7240  -51.1460  519.3540 C.3   177  ARG177      0.0489
      7  CD       -39.2990  -52.1340  520.3740 C.3   177  ARG177      0.2205
      8  NE       -40.6580  -51.7530  520.7690 N.pl3 177  ARG177     -0.0865
      9  CZ       -41.3760  -52.3620  521.7080 C.cat 177  ARG177      0.5346
     10  NH1      -40.8880  -53.4050  522.3780 N.pl3 177  ARG177      0.1354
     11  NH2      -42.5990  -51.9200  521.9830 N.pl3 177  ARG177      0.1354
     12  N        -39.0900  -50.5690  509.9010 N.3   180  PRO180     -0.2116
     13  CA       -39.0190  -51.7550  509.0760 C.3   180  PRO180      0.1372
     14  C        -37.6450  -51.9660  508.3990 C.2   180  PRO180      0.2244
     15  O        -37.4830  -52.9560  507.7460 O.2   180  PRO180     -0.2868
     16  CB       -40.0800  -51.4740  507.9790 C.3   180  PRO180      0.0268
     17  CG       -40.1710  -50.0010  507.9540 C.3   180  PRO180      0.0207
     18  CD       -40.0470  -49.5860  509.3490 C.3   180  PRO180      0.0892
     19  N        -34.7540  -51.3080  510.1350 N.3   182  HIS182     -0.1226
     20  CA       -33.9070  -51.3010  511.3250 C.3   182  HIS182      0.1752
     21  C        -32.6700  -52.1860  511.1050 C.2   182  HIS182      0.2596
     22  O        -31.6230  -51.8880  511.7000 O.2   182  HIS182     -0.2718
     23  CB       -34.7430  -51.8140  512.5120 C.3   182  HIS182      0.0759
     24  CG       -33.9920  -51.9190  513.7840 C.ar  182  HIS182      0.0818
     25  ND1      -33.2650  -53.0360  514.1600 N.ar  182  HIS182     -0.2268
     26  CD2      -33.8710  -51.0350  514.8020 C.ar  182  HIS182      0.1154
     27  CE1      -32.7360  -52.8230  515.3540 C.ar  182  HIS182      0.1986
     28  NE2      -33.1120  -51.6270  515.7750 N.ar  182  HIS182     -0.2212
     29  N        -32.7970  -53.2040  510.2470 N.am  183  ASP183     -0.1974
     30  CA       -31.6880  -54.1160  509.9150 C.3   183  ASP183      0.1709
     31  C        -30.5720  -53.4040  509.1360 C.2   183  ASP183      0.2293
     32  O        -29.3960  -53.6490  509.3760 O.2   183  ASP183     -0.2864
     33  CB       -32.1910  -55.4190  509.2370 C.3   183  ASP183      0.1436
     34  CG       -32.9810  -55.1950  507.9350 C.2   183  ASP183      0.3671
     35  OD1      -33.5270  -54.0760  507.6310 O.co2 183  ASP183     -0.2456
     36  OD2      -33.0190  -56.1630  507.1280 O.co2 183  ASP183     -0.2456
     37  N        -23.4440  -54.9530  524.1660 N.3   386  ASP386     -0.1239
     38  CA       -23.5080  -56.3750  523.8030 C.3   386  ASP386      0.1674
     39  C        -22.9200  -56.6300  522.3830 C.2   386  ASP386      0.2266
     40  O        -23.1800  -55.8530  521.4230 O.2   386  ASP386     -0.2867
     41  CB       -24.9750  -56.7870  523.7970 C.3   386  ASP386      0.1410
     42  CG       -25.1660  -58.2610  523.6540 C.2   386  ASP386      0.3668
     43  OD1      -25.1630  -58.9410  524.7020 O.co2 386  ASP386     -0.2456
     44  OD2      -25.3160  -58.7460  522.4970 O.co2 386  ASP386     -0.2456
     45  N        -23.7930  -58.3690  519.9230 N.3   388  ALA388     -0.1231
     46  CA       -24.7660  -58.4600  518.8460 C.3   388  ALA388      0.1694
     47  C        -25.5720  -57.1520  518.6420 C.2   388  ALA388      0.2591
     48  O        -26.3200  -57.0270  517.6620 O.2   388  ALA388     -0.2718
     49  CB       -25.7020  -59.6340  519.0910 C.3   388  ALA388      0.0304
     50  N        -25.4210  -56.1800  519.5370 N.am  389  ALA389     -0.1980
     51  CA       -26.2330  -54.9320  519.5140 C.3   389  ALA389      0.1597
     52  C        -25.8030  -53.9270  518.4430 C.2   389  ALA389      0.2287
     53  O        -26.6230  -53.0960  518.0120 O.2   389  ALA389     -0.2864
     54  CB       -26.1480  -54.2270  520.8640 C.3   389  ALA389      0.0319
     55  N        -19.5790  -63.4410  515.2320 N.3   472  GLY472     -0.1225
     56  CA       -20.9220  -64.0080  515.1850 C.3   472  GLY472      0.1811
     57  C        -21.8690  -63.0170  514.5190 C.2   472  GLY472      0.2280
     58  O        -23.0430  -63.3480  514.3330 O.2   472  GLY472     -0.2866
     59  N        -23.3880  -63.6680  509.9340 N.3   475  PRO475     -0.2102
     60  CA       -24.5940  -64.1870  509.2880 C.3   475  PRO475      0.1504
     61  C        -25.6900  -63.1450  509.0760 C.2   475  PRO475      0.2575
     62  O        -26.3270  -63.1290  508.0410 O.2   475  PRO475     -0.2718
     63  CB       -25.0770  -65.3220  510.2430 C.3   475  PRO475      0.0282
     64  CG       -23.8060  -65.7810  510.9490 C.3   475  PRO475      0.0208
     65  CD       -22.9280  -64.5280  511.0460 C.3   475  PRO475      0.0893
     66  N        -25.8740  -62.2710  510.0330 N.am  476  ARG476     -0.1980
     67  CA       -26.8420  -61.2310  509.9160 C.3   476  ARG476      0.1597
     68  C        -26.4370  -60.1410  508.8680 C.2   476  ARG476      0.2287
     69  O        -27.2610  -59.6120  508.0910 O.2   476  ARG476     -0.2864
     70  CB       -27.0690  -60.6990  511.3280 C.3   476  ARG476      0.0334
     71  CG       -28.0490  -59.5840  511.3550 C.3   476  ARG476      0.0492
     72  CD       -28.5720  -59.1540  512.7410 C.3   476  ARG476      0.2205
     73  NE       -29.6600  -58.1590  512.5520 N.pl3 476  ARG476     -0.0865
     74  CZ       -30.1020  -57.3040  513.4950 C.cat 476  ARG476      0.5346
     75  NH1      -29.5110  -57.2180  514.7110 N.pl3 476  ARG476      0.1354
     76  NH2      -31.1150  -56.4860  513.1920 N.pl3 476  ARG476      0.1354
     77  N        -27.3130  -61.4880  505.5420 N.3   479  LYS479     -0.1231
     78  CA       -28.7840  -61.3530  505.3090 C.3   479  LYS479      0.1693
     79  C        -29.1120  -59.9230  504.8630 C.2   479  LYS479      0.2591
     80  O        -29.8150  -59.7280  503.9040 O.2   479  LYS479     -0.2718
     81  CB       -29.6030  -61.6820  506.5460 C.3   479  LYS479      0.0285
     82  CG       -29.7540  -63.1670  506.8720 C.3   479  LYS479      0.0035
     83  CD       -30.7230  -63.3350  508.0760 C.3   479  LYS479      0.0206
     84  CE       -30.7250  -64.7470  508.7170 C.3   479  LYS479      0.1093
     85  NZ       -31.3150  -64.7520  510.1130 N.3   479  LYS479     -0.1314
     86  N        -28.5690  -58.9350  505.5670 N.am  480  VAL480     -0.1980
     87  CA       -28.8030  -57.5370  505.1690 C.3   480  VAL480      0.1595
     88  C        -28.2790  -57.2530  503.7220 C.2   480  VAL480      0.2287
     89  O        -28.9780  -56.6470  502.9330 O.2   480  VAL480     -0.2864
     90  CB       -28.2170  -56.5190  506.1630 C.3   480  VAL480      0.0276
     91  CG1      -28.5640  -55.0850  505.7520 C.3   480  VAL480      0.0022
     92  CG2      -28.7310  -56.7200  507.5690 C.3   480  VAL480      0.0022
@<TRIPOS>BOND
     1    89    88    2
     2    88    87    1
     3    80    79    2
     4    79    78    1
     5    79    86   am
     6    87    86    1
     7    87    90    1
     8    78    77    1
     9    78    81    1
    10    91    90    1
    11    90    92    1
    12    81    82    1
    13    82    83    1
    14    36    34   ar
    15    35    34   ar
    16    15    14    2
    17    34    33    1
    18    17    16    1
    19    17    18    1
    20    16    13    1
    21    62    61    2
    22    83    84    1
    23    69    68    2
    24    14    13    1
    25    84    85    1
    26    68    67    1
    27    13    12    1
    28    61    60    1
    29    61    66   am
    30    31    32    2
    31    31    30    1
    32    33    30    1
    33    60    59    1
    34    60    63    1
    35    18    12    1
    36    30    29    1
    37    67    66    1
    38    67    70    1
    39    59    65    1
    40    19    20    1
    41    63    64    1
    42    29    21   am
    43    64    65    1
    44    21    20    1
    45    21    22    2
    46    20    23    1
    47    70    71    1
    48    71    72    1
    49    23    24    1
    50    73    72    1
    51    73    74    2
    52    76    74    1
    53    74    75    1
    54    24    25   ar
    55    24    26   ar
    56    25    27   ar
    57    58    57    2
    58    57    56    1
    59    26    28   ar
    60    56    55    1
    61    27    28   ar
    62     4     3    2
    63     3     2    1
    64     1     2    1
    65     2     5    1
    66    48    47    2
    67    53    52    2
    68    52    51    1
    69     5     6    1
    70    47    46    1
    71    47    50   am
    72    46    49    1
    73    46    45    1
    74     6     7    1
    75    51    50    1
    76    51    54    1
    77     7     8    1
    78     8     9    2
    79    40    39    2
    80     9    11    1
    81     9    10    1
    82    39    38    1
    83    44    42   ar
    84    42    41    1
    85    42    43   ar
    86    41    38    1
    87    38    37    1
