@<TRIPOS>MOLECULE
tmp/5awvB07.pdb
 101 95 0 0 0
SMALL
GASTEIGER

@<TRIPOS>ATOM
      1  N         -7.5970  -48.0390  503.7380 N.3    68  PHE68      -0.1241
      2  CA        -6.3400  -48.7350  503.8320 C.3    68  PHE68       0.1605
      3  C         -6.0650  -49.7000  502.6470 C.2    68  PHE68       0.2264
      4  O         -4.9500  -50.1920  502.5230 O.2    68  PHE68      -0.2867
      5  CB        -6.2460  -49.6100  505.1130 C.3    68  PHE68       0.0534
      6  CG        -5.9970  -48.8490  506.3910 C.ar   68  PHE68      -0.0203
      7  CD1       -6.1920  -47.4810  506.4960 C.ar   68  PHE68      -0.0042
      8  CD2       -5.5870  -49.5570  507.5340 C.ar   68  PHE68      -0.0042
      9  CE1       -5.9120  -46.8160  507.6680 C.ar   68  PHE68      -0.0003
     10  CE2       -5.3550  -48.8900  508.7200 C.ar   68  PHE68      -0.0003
     11  CZ        -5.5260  -47.5060  508.7770 C.ar   68  PHE68      -0.0000
     12  N         -7.1590  -38.6030  513.0340 N.3   126  CYS126     -0.1235
     13  CA        -6.6140  -38.0280  511.7920 C.3   126  CYS126      0.1677
     14  C         -7.6560  -37.1440  511.1110 C.2   126  CYS126      0.2270
     15  O         -8.7050  -37.6250  510.6850 O.2   126  CYS126     -0.2867
     16  CB        -6.1120  -39.0980  510.8010 C.3   126  CYS126      0.0956
     17  SG        -5.2910  -40.6280  511.4250 S.3   126  CYS126     -0.0801
     18  N        -13.4480  -44.9920  515.9920 N.3   140  TYR140     -0.1241
     19  CA       -13.1760  -44.8010  517.4150 C.3   140  TYR140      0.1605
     20  C        -11.9600  -43.9030  517.4970 C.2   140  TYR140      0.2264
     21  O        -11.2440  -43.6760  516.5000 O.2   140  TYR140     -0.2867
     22  CB       -12.8540  -46.1670  518.0960 C.3   140  TYR140      0.0534
     23  CG       -11.4780  -46.6060  517.7910 C.ar  140  TYR140     -0.0201
     24  CD1      -11.1250  -47.0790  516.5210 C.ar  140  TYR140     -0.0009
     25  CD2      -10.4900  -46.4980  518.7220 C.ar  140  TYR140     -0.0009
     26  CE1       -9.8020  -47.4340  516.2070 C.ar  140  TYR140      0.0417
     27  CE2       -9.2140  -46.8810  518.4280 C.ar  140  TYR140      0.0417
     28  CZ        -8.8610  -47.2930  517.1630 C.ar  140  TYR140      0.1957
     29  OH        -7.5670  -47.6350  516.9880 O.3   140  TYR140     -0.2866
     30  N         -1.2900  -44.3680  523.3240 N.3   269  GLN269     -0.1245
     31  CA        -0.7900  -45.3130  522.3820 C.3   269  GLN269      0.1566
     32  C          0.6830  -45.5440  522.4480 C.2   269  GLN269      0.2260
     33  O          1.4620  -44.6430  522.2920 O.2   269  GLN269     -0.2867
     34  CB        -1.2350  -45.0430  520.9310 C.3   269  GLN269      0.0367
     35  CG        -0.7540  -43.8990  520.1440 C.3   269  GLN269      0.0905
     36  CD        -1.3480  -43.9330  518.6940 C.2   269  GLN269      0.2608
     37  OE1       -2.4140  -44.4980  518.4260 O.2   269  GLN269     -0.2717
     38  NE2       -0.6260  -43.3670  517.7660 N.am  269  GLN269     -0.0878
     39  N          1.8140  -47.1840  502.0060 N.3   339  SER339     -0.1217
     40  CA         1.9640  -47.9580  503.2300 C.3   339  SER339      0.1889
     41  C          1.0790  -49.2200  503.2120 C.2   339  SER339      0.2288
     42  O          0.1690  -49.3800  502.3820 O.2   339  SER339     -0.2866
     43  CB         1.6620  -47.0960  504.4780 C.3   339  SER339      0.2089
     44  OG         0.3020  -46.6650  504.5430 O.3   339  SER339     -0.2183
     45  N         -0.8670  -51.4970  506.4820 N.3   341  THR341     -0.1218
     46  CA        -1.1770  -51.6900  507.8680 C.3   341  THR341      0.1862
     47  C         -1.9290  -52.9810  508.0060 C.2   341  THR341      0.2287
     48  O         -2.8360  -53.2720  507.1550 O.2   341  THR341     -0.2866
     49  CB        -1.9820  -50.5350  508.3670 C.3   341  THR341      0.1770
     50  OG1       -1.1840  -49.3480  508.3220 O.3   341  THR341     -0.2211
     51  CG2       -2.4150  -50.7910  509.8040 C.3   341  THR341      0.0375
     52  N          1.9690  -50.4380  516.8060 N.3   374  TRP374     -0.1298
     53  CA         1.2320  -49.5200  517.7130 C.3   374  TRP374      0.1291
     54  C          0.2440  -50.2510  518.5160 C.3   374  TRP374      0.2013
     55  O         -0.5730  -51.0870  517.9530 O.3   374  TRP374     -0.2188
     56  CB         0.5200  -48.3940  516.9320 C.3   374  TRP374      0.0497
     57  CG         1.3670  -47.4280  516.1170 C.ar  374  TRP374     -0.0001
     58  CD1        2.6560  -47.4720  515.8730 C.ar  374  TRP374      0.0946
     59  CD2        0.8570  -46.3100  515.3670 C.ar  374  TRP374      0.0152
     60  NE1        3.0430  -46.4600  515.0310 N.ar  374  TRP374     -0.2442
     61  CE2        1.9440  -45.7150  514.7190 C.ar  374  TRP374      0.0810
     62  CE3       -0.4150  -45.7470  515.2300 C.ar  374  TRP374      0.0012
     63  CZ2        1.8260  -44.5680  513.9270 C.ar  374  TRP374      0.0191
     64  CZ3       -0.5430  -44.6070  514.4600 C.ar  374  TRP374      0.0001
     65  CH2        0.5650  -44.0490  513.7890 C.ar  374  TRP374      0.0015
     66  N         -2.8040  -49.4900  520.8610 N.3   376  ILE376     -0.1245
     67  CA        -3.7360  -48.3840  520.9090 C.3   376  ILE376      0.1561
     68  C         -4.7400  -48.6400  521.9640 C.2   376  ILE376      0.2260
     69  O         -5.4680  -49.6060  521.8350 O.2   376  ILE376     -0.2867
     70  CB        -4.4650  -48.1900  519.5290 C.3   376  ILE376      0.0252
     71  CG1       -3.4210  -47.8590  518.4450 C.3   376  ILE376      0.0019
     72  CG2       -5.4430  -47.0060  519.6220 C.3   376  ILE376      0.0019
     73  CD1       -3.9700  -48.1540  517.0710 C.3   376  ILE376      0.0001
     74  N         -1.7270  -52.3600  515.6860 N.3   402  ASN402     -0.1240
     75  CA        -1.4580  -52.1650  514.2950 C.3   402  ASN402      0.1653
     76  C         -0.0390  -52.5470  514.0020 C.2   402  ASN402      0.2266
     77  O          0.8540  -52.1770  514.7470 O.2   402  ASN402     -0.2867
     78  CB        -1.7350  -50.7430  513.8220 C.3   402  ASN402      0.1155
     79  CG        -3.2430  -50.4760  513.6960 C.2   402  ASN402      0.2627
     80  OD1       -4.0560  -51.3200  514.0110 O.2   402  ASN402     -0.2716
     81  ND2       -3.5950  -49.3190  513.2850 N.am  402  ASN402     -0.0877
     82  N          2.5840  -51.8830  511.0110 N.3   404  ILE404     -0.1245
     83  CA         2.6320  -50.8410  509.9970 C.3   404  ILE404      0.1561
     84  C          3.9730  -50.8700  509.2810 C.2   404  ILE404      0.2260
     85  O          5.0200  -51.0820  509.8920 O.2   404  ILE404     -0.2867
     86  CB         2.3880  -49.4240  510.6070 C.3   404  ILE404      0.0252
     87  CG1        1.1390  -49.3990  511.4870 C.3   404  ILE404      0.0019
     88  CG2        2.3640  -48.3390  509.5110 C.3   404  ILE404      0.0019
     89  CD1        0.9740  -48.1240  512.2810 C.3   404  ILE404      0.0001
     90  N         -9.6880  -50.9180  509.4300 N.3   448  TYR448     -0.1241
     91  CA        -8.2920  -51.2130  509.0360 C.3   448  TYR448      0.1605
     92  C         -8.2830  -52.5000  508.1400 C.2   448  TYR448      0.2264
     93  O         -7.7200  -53.5450  508.5170 O.2   448  TYR448     -0.2867
     94  CB        -7.4540  -51.4760  510.2880 C.3   448  TYR448      0.0534
     95  CG        -7.3880  -50.4300  511.3250 C.ar  448  TYR448     -0.0201
     96  CD1       -7.6010  -49.1020  511.0470 C.ar  448  TYR448     -0.0009
     97  CD2       -7.0820  -50.7840  512.6530 C.ar  448  TYR448     -0.0009
     98  CE1       -7.5060  -48.1310  512.0320 C.ar  448  TYR448      0.0417
     99  CE2       -6.9210  -49.8160  513.6400 C.ar  448  TYR448      0.0417
    100  CZ        -7.1770  -48.5000  513.3560 C.ar  448  TYR448      0.1957
    101  OH        -7.0400  -47.5660  514.3910 O.3   448  TYR448     -0.2866
@<TRIPOS>BOND
     1    39    40    1
     2    42    41    2
     3     4     3    2
     4     3     2    1
     5    41    40    1
     6    40    43    1
     7     1     2    1
     8     2     5    1
     9    43    44    1
    10     5     6    1
    11     6     7   ar
    12     6     8   ar
    13    45    46    1
    14     7     9   ar
    15    48    47    2
    16     8    10   ar
    17     9    11   ar
    18    46    47    1
    19    46    49    1
    20    92    93    2
    21    92    91    1
    22    50    49    1
    23    49    51    1
    24    10    11   ar
    25    91    90    1
    26    91    94    1
    27    84    85    2
    28    84    83    1
    29    88    86    1
    30    83    86    1
    31    83    82    1
    32    94    95    1
    33    86    87    1
    34    15    14    2
    35    16    17    1
    36    16    13    1
    37    96    95   ar
    38    96    98   ar
    39    14    13    1
    40    95    97   ar
    41    87    89    1
    42    13    12    1
    43    98   100   ar
    44    97    99   ar
    45    81    79   am
    46   100    99   ar
    47   100   101    1
    48    79    78    1
    49    79    80    2
    50    65    63   ar
    51    65    64   ar
    52    78    75    1
    53    63    61   ar
    54    76    75    1
    55    76    77    2
    56    75    74    1
    57    64    62   ar
    58    61    60   ar
    59    61    59   ar
    60    60    58   ar
    61    62    59   ar
    62    59    57   ar
    63    58    57   ar
    64    18    19    1
    65    57    56    1
    66    26    24   ar
    67    26    28   ar
    68    21    20    2
    69    24    23   ar
    70    52    53    1
    71    56    53    1
    72    29    28    1
    73    73    71    1
    74    28    27   ar
    75    19    20    1
    76    19    22    1
    77    53    54    1
    78    38    36   am
    79    23    22    1
    80    23    25   ar
    81    55    54    1
    82    37    36    2
    83    27    25   ar
    84    71    70    1
    85    36    35    1
    86    70    72    1
    87    70    67    1
    88    35    34    1
    89    66    67    1
    90    67    68    1
    91    34    31    1
    92    69    68    2
    93    33    32    2
    94    31    32    1
    95    31    30    1
