@<TRIPOS>MOLECULE
tmp/5awvB04.pdb
 109 105 0 0 0
SMALL
GASTEIGER

@<TRIPOS>ATOM
      1  N         12.4100  -41.7670  511.9300 N.3   276  VAL276     -0.1245
      2  CA        12.5760  -41.3770  510.5520 C.3   276  VAL276      0.1561
      3  C         12.7730  -39.8520  510.5700 C.2   276  VAL276      0.2260
      4  O         11.8720  -39.1380  511.0220 O.2   276  VAL276     -0.2867
      5  CB        11.3160  -41.7440  509.7190 C.3   276  VAL276      0.0252
      6  CG1       11.1990  -40.9640  508.3840 C.3   276  VAL276      0.0019
      7  CG2       11.3030  -43.2550  509.4880 C.3   276  VAL276      0.0019
      8  N          9.6400  -36.9890  510.0350 N.3   279  MET279     -0.1245
      9  CA         8.3000  -37.4520  510.4140 C.3   279  MET279      0.1570
     10  C          8.1450  -37.5020  511.9670 C.2   279  MET279      0.2261
     11  O          8.6500  -38.3970  512.6600 O.2   279  MET279     -0.2867
     12  CB         8.0630  -38.7910  509.6670 C.3   279  MET279      0.0387
     13  CG         6.8580  -39.6370  510.0650 C.3   279  MET279      0.0595
     14  SD         7.1010  -41.4140  509.6960 S.3   279  MET279     -0.1393
     15  CE         5.6760  -42.1100  510.5730 C.3   279  MET279      0.0692
     16  N          5.7750  -38.2710  513.9840 N.3   281  GLU281     -0.1245
     17  CA         4.9940  -39.3710  514.5560 C.3   281  GLU281      0.1567
     18  C          5.7710  -40.7080  514.5170 C.2   281  GLU281      0.2260
     19  O          5.2760  -41.7420  514.9870 O.2   281  GLU281     -0.2867
     20  CB         3.6300  -39.4980  513.8470 C.3   281  GLU281      0.0388
     21  CG         2.4060  -39.4870  514.7740 C.3   281  GLU281      0.1160
     22  CD         2.0010  -38.1320  515.3710 C.2   281  GLU281      0.3649
     23  OE1        2.3240  -37.0700  514.8090 O.co2 281  GLU281     -0.2457
     24  OE2        1.3190  -38.1190  516.4150 O.co2 281  GLU281     -0.2457
     25  N          2.6680  -41.1620  501.5230 N.3   337  PRO337     -0.2116
     26  CA         3.5000  -42.2200  500.9720 C.3   337  PRO337      0.1372
     27  C          2.7290  -43.5400  501.0130 C.2   337  PRO337      0.2244
     28  O          1.7330  -43.6300  501.7110 O.2   337  PRO337     -0.2868
     29  CB         4.6910  -42.2540  501.9310 C.3   337  PRO337      0.0268
     30  CG         4.0980  -41.8510  503.2350 C.3   337  PRO337      0.0207
     31  CD         3.1100  -40.7840  502.8790 C.3   337  PRO337      0.0892
     32  N          1.8140  -47.1840  502.0060 N.3   339  SER339     -0.1217
     33  CA         1.9640  -47.9580  503.2300 C.3   339  SER339      0.1889
     34  C          1.0790  -49.2200  503.2120 C.2   339  SER339      0.2288
     35  O          0.1690  -49.3800  502.3820 O.2   339  SER339     -0.2866
     36  CB         1.6620  -47.0960  504.4780 C.3   339  SER339      0.2089
     37  OG         0.3020  -46.6650  504.5430 O.3   339  SER339     -0.2183
     38  N         -0.8670  -51.4970  506.4820 N.3   341  THR341     -0.1218
     39  CA        -1.1770  -51.6900  507.8680 C.3   341  THR341      0.1862
     40  C         -1.9290  -52.9810  508.0060 C.2   341  THR341      0.2287
     41  O         -2.8360  -53.2720  507.1550 O.2   341  THR341     -0.2866
     42  CB        -1.9820  -50.5350  508.3670 C.3   341  THR341      0.1770
     43  OG1       -1.1840  -49.3480  508.3220 O.3   341  THR341     -0.2211
     44  CG2       -2.4150  -50.7910  509.8040 C.3   341  THR341      0.0375
     45  N         12.1490  -48.3810  505.2820 N.3   369  ASP369     -0.1225
     46  CA        11.9400  -46.9490  505.6490 C.3   369  ASP369      0.1805
     47  C         11.2390  -46.6810  506.9450 C.2   369  ASP369      0.2597
     48  O         11.7660  -45.9660  507.7570 O.2   369  ASP369     -0.2718
     49  CB        11.2310  -46.2190  504.5340 C.3   369  ASP369      0.1424
     50  CG        11.9290  -46.3610  503.2530 C.2   369  ASP369      0.3668
     51  OD1       13.1100  -46.7620  503.3180 O.co2 369  ASP369     -0.2456
     52  OD2       11.3320  -46.1300  502.1750 O.co2 369  ASP369     -0.2456
     53  N         10.0130  -47.2050  507.1340 N.am  370  TYR370     -0.1976
     54  CA         9.2450  -47.0580  508.3660 C.3   370  TYR370      0.1639
     55  C          8.5730  -48.4440  508.6090 C.2   370  TYR370      0.2290
     56  O          8.0090  -49.0250  507.6700 O.2   370  TYR370     -0.2864
     57  CB         8.1730  -45.9740  508.2900 C.3   370  TYR370      0.0560
     58  CG         7.4210  -45.8250  509.6160 C.ar  370  TYR370     -0.0198
     59  CD1        8.0710  -45.4380  510.7740 C.ar  370  TYR370     -0.0009
     60  CD2        6.0640  -46.1670  509.7410 C.ar  370  TYR370     -0.0009
     61  CE1        7.4120  -45.3850  511.9920 C.ar  370  TYR370      0.0417
     62  CE2        5.3980  -46.0250  510.9470 C.ar  370  TYR370      0.0417
     63  CZ         6.0720  -45.6390  512.0640 C.ar  370  TYR370      0.1957
     64  OH         5.4450  -45.5240  513.2960 O.3   370  TYR370     -0.2866
     65  N          1.9690  -50.4380  516.8060 N.3   374  TRP374     -0.1298
     66  CA         1.2320  -49.5200  517.7130 C.3   374  TRP374      0.1291
     67  C          0.2440  -50.2510  518.5160 C.3   374  TRP374      0.2013
     68  O         -0.5730  -51.0870  517.9530 O.3   374  TRP374     -0.2188
     69  CB         0.5200  -48.3940  516.9320 C.3   374  TRP374      0.0497
     70  CG         1.3670  -47.4280  516.1170 C.ar  374  TRP374     -0.0001
     71  CD1        2.6560  -47.4720  515.8730 C.ar  374  TRP374      0.0946
     72  CD2        0.8570  -46.3100  515.3670 C.ar  374  TRP374      0.0152
     73  NE1        3.0430  -46.4600  515.0310 N.ar  374  TRP374     -0.2442
     74  CE2        1.9440  -45.7150  514.7190 C.ar  374  TRP374      0.0810
     75  CE3       -0.4150  -45.7470  515.2300 C.ar  374  TRP374      0.0012
     76  CZ2        1.8260  -44.5680  513.9270 C.ar  374  TRP374      0.0191
     77  CZ3       -0.5430  -44.6070  514.4600 C.ar  374  TRP374      0.0001
     78  CH2        0.5650  -44.0490  513.7890 C.ar  374  TRP374      0.0015
     79  N          2.5840  -51.8830  511.0110 N.3   404  ILE404     -0.1245
     80  CA         2.6320  -50.8410  509.9970 C.3   404  ILE404      0.1561
     81  C          3.9730  -50.8700  509.2810 C.2   404  ILE404      0.2260
     82  O          5.0200  -51.0820  509.8920 O.2   404  ILE404     -0.2867
     83  CB         2.3880  -49.4240  510.6070 C.3   404  ILE404      0.0252
     84  CG1        1.1390  -49.3990  511.4870 C.3   404  ILE404      0.0019
     85  CG2        2.3640  -48.3390  509.5110 C.3   404  ILE404      0.0019
     86  CD1        0.9740  -48.1240  512.2810 C.3   404  ILE404      0.0001
     87  N          5.7830  -48.4430  505.7880 N.3   406  GLY406     -0.1210
     88  CA         5.6100  -47.3970  504.8030 C.3   406  GLY406      0.1956
     89  C          6.9230  -47.3050  504.0470 C.2   406  GLY406      0.2612
     90  O          7.9480  -47.5380  504.6330 O.2   406  GLY406     -0.2717
     91  N          6.8700  -46.9540  502.7560 N.am  407  TRP407     -0.1962
     92  CA         8.0170  -46.8740  501.8570 C.3   407  TRP407      0.1771
     93  C          7.9050  -45.6500  500.9660 C.2   407  TRP407      0.2619
     94  O          6.8190  -45.2530  500.5860 O.2   407  TRP407     -0.2715
     95  CB         8.1940  -48.1260  501.0200 C.3   407  TRP407      0.0590
     96  CG         7.0360  -48.5680  500.2090 C.ar  407  TRP407      0.0006
     97  CD1        6.8730  -48.4040  498.8820 C.ar  407  TRP407      0.0946
     98  CD2        5.9260  -49.3460  500.6520 C.ar  407  TRP407      0.0152
     99  NE1        5.6980  -48.9650  498.4720 N.ar  407  TRP407     -0.2442
    100  CE2        5.1080  -49.5630  499.5440 C.ar  407  TRP407      0.0810
    101  CE3        5.5020  -49.8010  501.8890 C.ar  407  TRP407      0.0012
    102  CZ2        3.8950  -50.1920  499.6420 C.ar  407  TRP407      0.0191
    103  CZ3        4.3230  -50.4960  501.9710 C.ar  407  TRP407      0.0001
    104  CH2        3.5460  -50.7030  500.8890 C.ar  407  TRP407      0.0015
    105  N          9.0610  -45.0850  500.6020 N.am  408  ALA408     -0.1977
    106  CA         9.1630  -43.8340  499.7990 C.3   408  ALA408      0.1597
    107  C          9.2240  -44.1030  498.3240 C.2   408  ALA408      0.2287
    108  O          8.6800  -43.3700  497.5450 O.2   408  ALA408     -0.2864
    109  CB        10.4210  -43.0530  500.1960 C.3   408  ALA408      0.0319
@<TRIPOS>BOND
     1   108   107    2
     2   107   106    1
     3    99    97   ar
     4    99   100   ar
     5    97    96   ar
     6   100   102   ar
     7   100    98   ar
     8   102   104   ar
     9   106   109    1
    10   106   105    1
    11    96    98   ar
    12    96    95    1
    13    94    93    2
    14   105    93   am
    15    98   101   ar
    16   104   103   ar
    17    93    92    1
    18    26    27    1
    19    26    25    1
    20    26    29    1
    21    27    28    2
    22    95    92    1
    23    25    31    1
    24    92    91    1
    25   101   103   ar
    26    29    30    1
    27    32    33    1
    28    52    50   ar
    29    35    34    2
    30    91    89   am
    31    31    30    1
    32    34    33    1
    33    33    36    1
    34    50    51   ar
    35    50    49    1
    36    89    90    2
    37    89    88    1
    38    36    37    1
    39    49    46    1
    40    88    87    1
    41    45    46    1
    42    46    47    1
    43    38    39    1
    44    47    53   am
    45    47    48    2
    46    53    54    1
    47    41    40    2
    48    56    55    2
    49    39    40    1
    50    39    42    1
    51    57    54    1
    52    57    58    1
    53    43    42    1
    54    54    55    1
    55    42    44    1
    56     6     5    1
    57    81    82    2
    58    81    80    1
    59     7     5    1
    60    85    83    1
    61    58    60   ar
    62    58    59   ar
    63    12    13    1
    64    12     9    1
    65    14    13    1
    66    14    15    1
    67     5     2    1
    68    60    62   ar
    69    80    83    1
    70    80    79    1
    71     8     9    1
    72     9    10    1
    73     2     3    1
    74     2     1    1
    75     3     4    2
    76    83    84    1
    77    59    61   ar
    78    62    63   ar
    79    84    86    1
    80    10    11    2
    81    61    63   ar
    82    63    64    1
    83    78    76   ar
    84    78    77   ar
    85    20    17    1
    86    20    21    1
    87    76    74   ar
    88    16    17    1
    89    77    75   ar
    90    18    17    1
    91    18    19    2
    92    74    73   ar
    93    74    72   ar
    94    21    22    1
    95    23    22   ar
    96    73    71   ar
    97    75    72   ar
    98    72    70   ar
    99    22    24   ar
   100    71    70   ar
   101    70    69    1
   102    65    66    1
   103    69    66    1
   104    66    67    1
   105    68    67    1
