@<TRIPOS>MOLECULE
tmp/5awvB06.pdb
 68 66 0 0 0
SMALL
GASTEIGER

@<TRIPOS>ATOM
      1  N         -5.6070  -41.2250  500.1070 N.3    25  ALA25      -0.1245
      2  CA        -4.5170  -41.0080  501.0520 C.3    25  ALA25       0.1562
      3  C         -3.2890  -41.8940  500.8080 C.2    25  ALA25       0.2260
      4  O         -2.1460  -41.4590  500.9880 O.2    25  ALA25      -0.2867
      5  CB        -4.9860  -41.2100  502.4720 C.3    25  ALA25       0.0290
      6  N         -9.4560  -42.2110  502.7660 N.3    66  HIS66      -0.1241
      7  CA        -8.4920  -42.8180  503.6270 C.3    66  HIS66       0.1621
      8  C         -8.4540  -44.3510  503.6410 C.2    66  HIS66       0.2264
      9  O         -7.7430  -44.8860  504.4710 O.2    66  HIS66      -0.2867
     10  CB        -8.6880  -42.3010  505.0460 C.3    66  HIS66       0.0745
     11  CG        -7.8300  -41.1300  505.3260 C.ar   66  HIS66       0.0817
     12  ND1       -6.5450  -41.2450  505.8840 N.ar   66  HIS66      -0.2268
     13  CD2       -7.9900  -39.8570  504.8930 C.ar   66  HIS66       0.1154
     14  CE1       -6.0230  -40.0040  505.8280 C.ar   66  HIS66       0.1986
     15  NE2       -6.8760  -39.1680  505.2710 N.ar   66  HIS66      -0.2212
     16  N         12.2180  -37.0760  508.6520 N.3   278  GLY278     -0.1210
     17  CA        11.1720  -36.0750  508.3150 C.3   278  GLY278      0.1956
     18  C          9.8310  -36.0790  509.0720 C.2   278  GLY278      0.2611
     19  O          8.9820  -35.2280  508.8050 O.2   278  GLY278     -0.2717
     20  N          9.6400  -36.9890  510.0350 N.am  279  MET279     -0.1979
     21  CA         8.3000  -37.4520  510.4140 C.3   279  MET279      0.1605
     22  C          8.1450  -37.5020  511.9670 C.2   279  MET279      0.2287
     23  O          8.6500  -38.3970  512.6600 O.2   279  MET279     -0.2864
     24  CB         8.0630  -38.7910  509.6670 C.3   279  MET279      0.0413
     25  CG         6.8580  -39.6370  510.0650 C.3   279  MET279      0.0598
     26  SD         7.1010  -41.4140  509.6960 S.3   279  MET279     -0.1393
     27  CE         5.6760  -42.1100  510.5730 C.3   279  MET279      0.0692
     28  N         -5.0290  -31.8440  508.3760 N.3   332  ARG332     -0.1231
     29  CA        -5.4510  -31.3250  507.0530 C.3   332  ARG332      0.1694
     30  C         -5.9330  -32.5050  506.1760 C.2   332  ARG332      0.2593
     31  O         -7.1140  -32.5820  505.8020 O.2   332  ARG332     -0.2718
     32  CB        -4.3350  -30.5590  506.2680 C.3   332  ARG332      0.0321
     33  CG        -3.4920  -29.4700  506.9630 C.3   332  ARG332      0.0489
     34  CD        -2.1820  -29.9390  507.6200 C.3   332  ARG332      0.2205
     35  NE        -1.5010  -30.9720  506.8330 N.pl3 332  ARG332     -0.0865
     36  CZ        -1.5040  -32.2820  507.0930 C.cat 332  ARG332      0.5346
     37  NH1       -2.1230  -32.7920  508.1580 N.pl3 332  ARG332      0.1354
     38  NH2       -0.8690  -33.1040  506.2750 N.pl3 332  ARG332      0.1354
     39  N         -4.9940  -33.4110  505.8700 N.am  333  GLY333     -0.1942
     40  CA        -5.1800  -34.4820  504.8940 C.3   333  GLY333      0.2014
     41  C         -4.2990  -34.2870  503.6590 C.2   333  GLY333      0.2639
     42  O         -3.6040  -33.2830  503.5190 O.2   333  GLY333     -0.2714
     43  N         -4.3180  -35.2790  502.7750 N.am  334  GLY334     -0.1939
     44  CA        -3.6170  -35.2330  501.4840 C.3   334  GLY334      0.2014
     45  C         -3.0700  -36.6010  501.0880 C.2   334  GLY334      0.2639
     46  O         -3.1890  -37.5780  501.8440 O.2   334  GLY334     -0.2714
     47  N         -2.4830  -36.6870  499.8980 N.am  335  ARG335     -0.1963
     48  CA        -1.9300  -37.9660  499.4480 C.3   335  ARG335      0.1729
     49  C         -0.5920  -38.1990  500.1420 C.2   335  ARG335      0.2617
     50  O          0.3250  -37.3910  500.0200 O.2   335  ARG335     -0.2715
     51  CB        -1.7720  -37.9630  497.9500 C.3   335  ARG335      0.0348
     52  CG        -1.4760  -39.3070  497.3800 C.3   335  ARG335      0.0492
     53  CD        -1.6420  -39.1550  495.8730 C.3   335  ARG335      0.2205
     54  NE        -1.5300  -40.3910  495.1380 N.pl3 335  ARG335     -0.0865
     55  CZ        -2.4300  -41.3420  495.0940 C.cat 335  ARG335      0.5346
     56  NH1       -3.5320  -41.2560  495.7470 N.pl3 335  ARG335      0.1354
     57  NH2       -2.1790  -42.4320  494.3970 N.pl3 335  ARG335      0.1354
     58  N         -0.4980  -39.3090  500.8540 N.am  336  GLY336     -0.1941
     59  CA         0.7040  -39.7000  501.5820 C.3   336  GLY336      0.1998
     60  C          1.5780  -40.7100  500.8570 C.2   336  GLY336      0.2480
     61  O          1.2800  -41.0840  499.7140 O.2   336  GLY336     -0.2729
     62  N          2.6680  -41.1620  501.5230 N.am  337  PRO337     -0.2726
     63  CA         3.5000  -42.2200  500.9720 C.3   337  PRO337      0.1402
     64  C          2.7290  -43.5400  501.0130 C.2   337  PRO337      0.2269
     65  O          1.7330  -43.6300  501.7110 O.2   337  PRO337     -0.2865
     66  CB         4.6910  -42.2540  501.9310 C.3   337  PRO337      0.0296
     67  CG         4.0980  -41.8510  503.2350 C.3   337  PRO337      0.0237
     68  CD         3.1100  -40.7840  502.8790 C.3   337  PRO337      0.0939
@<TRIPOS>BOND
     1    57    55    1
     2    55    54    2
     3    55    56    1
     4    54    53    1
     5    53    52    1
     6    52    51    1
     7    51    48    1
     8    48    47    1
     9    48    49    1
    10    61    60    2
    11    47    45   am
    12    50    49    2
    13     1     2    1
    14    49    58   am
    15     3     4    2
    16     3     2    1
    17    58    59    1
    18    60    62   am
    19    60    59    1
    20    63    64    1
    21    63    62    1
    22    63    66    1
    23    64    65    2
    24     2     5    1
    25    45    44    1
    26    45    46    2
    27    44    43    1
    28    62    68    1
    29    66    67    1
    30     6     7    1
    31    43    41   am
    32    68    67    1
    33    42    41    2
    34     7     8    1
    35     7    10    1
    36     8     9    2
    37    41    40    1
    38    13    15   ar
    39    13    11   ar
    40    40    39    1
    41    10    11    1
    42    15    14   ar
    43    11    12   ar
    44    31    30    2
    45    14    12   ar
    46    39    30   am
    47    30    29    1
    48    32    33    1
    49    32    29    1
    50    38    36    1
    51    35    36    2
    52    35    34    1
    53    33    34    1
    54    29    28    1
    55    36    37    1
    56    17    16    1
    57    17    18    1
    58    19    18    2
    59    18    20   am
    60    24    25    1
    61    24    21    1
    62    26    25    1
    63    26    27    1
    64    20    21    1
    65    21    22    1
    66    22    23    2
