@<TRIPOS>MOLECULE
tmp/5awwA03.pdb
 111 106 0 0 0
SMALL
GASTEIGER

@<TRIPOS>ATOM
      1  N         36.9700   -0.0220   47.7160 N.3    20  PHE20      -0.1241
      2  CA        35.6760   -0.6570   47.5170 C.3    20  PHE20       0.1605
      3  C         34.7500    0.2600   46.7270 C.2    20  PHE20       0.2264
      4  O         34.1130   -0.1740   45.7650 O.2    20  PHE20      -0.2867
      5  CB        35.0290   -1.0290   48.8490 C.3    20  PHE20       0.0534
      6  CG        33.6900   -1.6880   48.6950 C.ar   20  PHE20      -0.0203
      7  CD1       33.6000   -3.0270   48.3530 C.ar   20  PHE20      -0.0042
      8  CD2       32.5210   -0.9670   48.8750 C.ar   20  PHE20      -0.0042
      9  CE1       32.3710   -3.6360   48.2010 C.ar   20  PHE20      -0.0003
     10  CE2       31.2870   -1.5730   48.7250 C.ar   20  PHE20      -0.0003
     11  CZ        31.2120   -2.9080   48.3870 C.ar   20  PHE20      -0.0000
     12  N         35.7030    0.3390   43.1970 N.3    23  LEU23      -0.1231
     13  CA        35.3440   -0.9270   42.5660 C.3    23  LEU23       0.1693
     14  C         33.8700   -0.9350   42.1650 C.2    23  LEU23       0.2591
     15  O         33.5180   -1.3210   41.0440 O.2    23  LEU23      -0.2718
     16  CB        35.6410   -2.1010   43.5010 C.3    23  LEU23       0.0284
     17  CG        35.3920   -3.4870   42.8990 C.3    23  LEU23       0.0019
     18  CD1       36.2790   -3.7000   41.6820 C.3    23  LEU23       0.0001
     19  CD2       35.6070   -4.5930   43.9240 C.3    23  LEU23       0.0001
     20  N         33.0130   -0.5040   43.0860 N.am   24  VAL24      -0.1980
     21  CA        31.5830   -0.4500   42.8170 C.3    24  VAL24       0.1595
     22  C         31.2700    0.5390   41.6960 C.2    24  VAL24       0.2287
     23  O         30.4820    0.2390   40.7980 O.2    24  VAL24      -0.2864
     24  CB        30.7810   -0.0630   44.0730 C.3    24  VAL24       0.0276
     25  CG1       29.2900   -0.1260   43.7810 C.3    24  VAL24       0.0022
     26  CG2       31.1270   -0.9870   45.2240 C.3    24  VAL24       0.0022
     27  N         32.0520   -0.9380   38.5350 N.3    27  ALA27      -0.1245
     28  CA        31.0050   -1.8740   38.1330 C.3    27  ALA27       0.1562
     29  C         29.8150   -1.1400   37.5240 C.2    27  ALA27       0.2260
     30  O         29.1940   -1.6230   36.5820 O.2    27  ALA27      -0.2867
     31  CB        30.5580   -2.7140   39.3180 C.3    27  ALA27       0.0290
     32  N         30.8830    0.2670   34.0990 N.3    30  LEU30      -0.1231
     33  CA        30.8930   -0.8850   33.2070 C.3    30  LEU30       0.1693
     34  C         29.4680   -1.2600   32.8290 C.2    30  LEU30       0.2592
     35  O         29.1850   -1.6140   31.6850 O.2    30  LEU30      -0.2718
     36  CB        31.5960   -2.0750   33.8620 C.3    30  LEU30       0.0284
     37  CG        31.6150   -3.3720   33.0490 C.3    30  LEU30       0.0019
     38  CD1       32.3420   -3.1650   31.7280 C.3    30  LEU30       0.0001
     39  CD2       32.2500   -4.5000   33.8460 C.3    30  LEU30       0.0001
     40  N         28.5720   -1.1640   33.8060 N.am   31  GLY31      -0.1957
     41  CA        27.1740   -1.4880   33.6080 C.3    31  GLY31       0.1869
     42  C         26.5220   -0.5400   32.6300 C.2    31  GLY31       0.2309
     43  O         25.4920   -0.8550   32.0360 O.2    31  GLY31      -0.2863
     44  N         26.2540   -2.0020   28.9890 N.3    34  ILE34      -0.1245
     45  CA        25.4120   -3.1630   28.7300 C.3    34  ILE34       0.1561
     46  C         24.0100   -2.7100   28.3330 C.2    34  ILE34       0.2260
     47  O         23.2160   -2.3110   29.1840 O.2    34  ILE34      -0.2867
     48  CB        25.3460   -4.0890   29.9540 C.3    34  ILE34       0.0252
     49  CG1       26.7590   -4.5060   30.3560 C.3    34  ILE34       0.0019
     50  CG2       24.4910   -5.3150   29.6580 C.3    34  ILE34       0.0019
     51  CD1       26.8330   -5.2030   31.6780 C.3    34  ILE34       0.0001
     52  N         21.3800   -1.1550   31.3920 N.3    72  ILE72      -0.1231
     53  CA        20.5160   -1.8840   32.3140 C.3    72  ILE72       0.1692
     54  C         19.9560   -0.9530   33.3890 C.2    72  ILE72       0.2592
     55  O         18.8320   -1.1430   33.8550 O.2    72  ILE72      -0.2718
     56  CB        21.2580   -3.0570   32.9770 C.3    72  ILE72       0.0266
     57  CG1       22.6120   -2.5930   33.5180 C.3    72  ILE72       0.0019
     58  CG2       21.4400   -4.1940   31.9840 C.3    72  ILE72       0.0020
     59  CD1       23.4940   -3.7170   34.0100 C.3    72  ILE72       0.0001
     60  N         20.7410    0.0480   33.7820 N.am   73  PHE73      -0.1976
     61  CA        20.2310    1.1200   34.6290 C.3    73  PHE73       0.1639
     62  C         19.9570    2.3410   33.7680 C.2    73  PHE73       0.2290
     63  O         20.6530    3.3460   33.8880 O.2    73  PHE73      -0.2864
     64  CB        21.2140    1.4990   35.7420 C.3    73  PHE73       0.0560
     65  CG        22.2370    0.4470   36.0550 C.ar   73  PHE73      -0.0200
     66  CD1       21.9320   -0.6060   36.9000 C.ar   73  PHE73      -0.0042
     67  CD2       23.5210    0.5360   35.5370 C.ar   73  PHE73      -0.0042
     68  CE1       22.8790   -1.5680   37.2060 C.ar   73  PHE73      -0.0003
     69  CE2       24.4720   -0.4210   35.8380 C.ar   73  PHE73      -0.0003
     70  CZ        24.1490   -1.4760   36.6760 C.ar   73  PHE73      -0.0000
     71  N         19.6780   -4.0300   41.1640 N.3   167  LEU167     -0.1245
     72  CA        21.1220   -4.1740   41.3130 C.3   167  LEU167      0.1561
     73  C         21.7890   -2.8430   41.6690 C.2   167  LEU167      0.2260
     74  O         22.6810   -2.8000   42.5110 O.2   167  LEU167     -0.2867
     75  CB        21.7410   -4.7470   40.0330 C.3   167  LEU167      0.0270
     76  CG        23.2230   -5.1380   40.0720 C.3   167  LEU167      0.0019
     77  CD1       23.4850   -6.1920   41.1380 C.3   167  LEU167      0.0001
     78  CD2       23.6880   -5.6330   38.7100 C.3   167  LEU167      0.0001
     79  N         21.0380   -1.7650   45.2250 N.3   170  TRP170     -0.1227
     80  CA        21.8900   -2.6230   46.0360 C.3   170  TRP170      0.1737
     81  C         23.3180   -2.0760   46.0920 C.2   170  TRP170      0.2595
     82  O         23.8950   -1.9370   47.1710 O.2   170  TRP170     -0.2718
     83  CB        21.8860   -4.0520   45.4870 C.3   170  TRP170      0.0564
     84  CG        22.7130   -5.0120   46.2860 C.ar  170  TRP170      0.0003
     85  CD1       22.3030   -5.7550   47.3560 C.ar  170  TRP170      0.0946
     86  CD2       24.0930   -5.3380   46.0770 C.ar  170  TRP170      0.0152
     87  NE1       23.3420   -6.5200   47.8270 N.ar  170  TRP170     -0.2442
     88  CE2       24.4510   -6.2830   47.0590 C.ar  170  TRP170      0.0810
     89  CE3       25.0580   -4.9220   45.1570 C.ar  170  TRP170      0.0012
     90  CZ2       25.7330   -6.8190   47.1450 C.ar  170  TRP170      0.0191
     91  CZ3       26.3320   -5.4540   45.2450 C.ar  170  TRP170      0.0001
     92  CH2       26.6580   -6.3920   46.2320 C.ar  170  TRP170      0.0015
     93  N         23.8730   -1.7540   44.9260 N.am  171  MET171     -0.1979
     94  CA        25.2350   -1.2330   44.8260 C.3   171  MET171      0.1605
     95  C         25.4090    0.0620   45.6120 C.2   171  MET171      0.2287
     96  O         26.4260    0.2640   46.2810 O.2   171  MET171     -0.2864
     97  CB        25.6100   -1.0030   43.3610 C.3   171  MET171      0.0413
     98  CG        25.7660   -2.2780   42.5500 C.3   171  MET171      0.0598
     99  SD        25.8580   -1.9580   40.7800 S.3   171  MET171     -0.1393
    100  CE        27.2050   -0.7770   40.7300 C.3   171  MET171      0.0692
    101  N         25.4670   -0.6800   49.2660 N.3   174  ARG174     -0.1245
    102  CA        26.7400   -1.2980   49.6180 C.3   174  ARG174      0.1563
    103  C         27.8720   -0.2770   49.6320 C.2   174  ARG174      0.2260
    104  O         28.8450   -0.4470   50.3570 O.2   174  ARG174     -0.2867
    105  CB        27.0770   -2.4410   48.6600 C.3   174  ARG174      0.0307
    106  CG        26.1200   -3.6130   48.7530 C.3   174  ARG174      0.0489
    107  CD        25.9740   -4.1080   50.1830 C.3   174  ARG174      0.2205
    108  NE        24.6250   -4.6090   50.4270 N.pl3 174  ARG174     -0.0865
    109  CZ        23.6680   -3.9190   51.0390 C.cat 174  ARG174      0.5346
    110  NH1       23.9150   -2.7000   51.4870 N.pl3 174  ARG174      0.1354
    111  NH2       22.4670   -4.4520   51.2110 N.pl3 174  ARG174      0.1354
@<TRIPOS>BOND
     1    46    45    1
     2    46    47    2
     3    45    44    1
     4    45    48    1
     5    50    48    1
     6    48    49    1
     7    49    51    1
     8    52    53    1
     9    35    34    2
    10    38    37    1
    11    58    56    1
    12    43    42    2
    13    53    56    1
    14    53    54    1
    15    42    41    1
    16    34    33    1
    17    34    40   am
    18    56    57    1
    19    37    39    1
    20    37    36    1
    21    33    36    1
    22    33    32    1
    23    54    60   am
    24    54    55    2
    25    57    59    1
    26    41    40    1
    27    62    63    2
    28    62    61    1
    29    60    61    1
    30    61    64    1
    31    67    69   ar
    32    67    65   ar
    33    64    65    1
    34    69    70   ar
    35    65    66   ar
    36    30    29    2
    37    70    68   ar
    38    66    68   ar
    39    29    28    1
    40    28    27    1
    41    28    31    1
    42    78    76    1
    43    75    76    1
    44    75    72    1
    45    76    77    1
    46   100    99    1
    47    99    98    1
    48    23    22    2
    49    15    14    2
    50    71    72    1
    51    72    73    1
    52    73    74    2
    53    18    17    1
    54    22    21    1
    55    14    13    1
    56    14    20   am
    57    98    97    1
    58    13    12    1
    59    13    16    1
    60    21    20    1
    61    21    24    1
    62    17    16    1
    63    17    19    1
    64    97    94    1
    65    25    24    1
    66    24    26    1
    67    94    93    1
    68    94    95    1
    69    93    81   am
    70    89    91   ar
    71    89    86   ar
    72    79    80    1
    73    91    92   ar
    74    83    80    1
    75    83    84    1
    76    95    96    2
    77     4     3    2
    78    80    81    1
    79    86    84   ar
    80    86    88   ar
    81    81    82    2
    82    92    90   ar
    83    84    85   ar
    84     3     2    1
    85    88    90   ar
    86    88    87   ar
    87    85    87   ar
    88     2     1    1
    89     2     5    1
    90     9     7   ar
    91     9    11   ar
    92     7     6   ar
    93    11    10   ar
    94   105   106    1
    95   105   102    1
    96     6     5    1
    97     6     8   ar
    98    10     8   ar
    99   106   107    1
   100   101   102    1
   101   102   103    1
   102   103   104    2
   103   107   108    1
   104   108   109    2
   105   109   111    1
   106   109   110    1
