@<TRIPOS>MOLECULE
tmp/5awwA02.pdb
 117 113 0 0 0
SMALL
GASTEIGER

@<TRIPOS>ATOM
      1  N          9.0680   23.7270   28.6700 N.3   303  PHE303     -0.1241
      2  CA         8.8250   24.7760   29.6520 C.3   303  PHE303      0.1605
      3  C          9.7120   24.5940   30.8860 C.2   303  PHE303      0.2264
      4  O         10.1420   25.5730   31.5000 O.2   303  PHE303     -0.2867
      5  CB         7.3480   24.7960   30.0560 C.3   303  PHE303      0.0534
      6  CG         6.9970   25.8840   31.0340 C.ar  303  PHE303     -0.0203
      7  CD1        6.7040   27.1630   30.5910 C.ar  303  PHE303     -0.0042
      8  CD2        6.9510   25.6260   32.3940 C.ar  303  PHE303     -0.0042
      9  CE1        6.3800   28.1630   31.4860 C.ar  303  PHE303     -0.0003
     10  CE2        6.6280   26.6210   33.2930 C.ar  303  PHE303     -0.0003
     11  CZ         6.3420   27.8910   32.8390 C.ar  303  PHE303     -0.0000
     12  N         17.8080   24.7060   30.6450 N.3   307  THR307     -0.1203
     13  CA        18.6290   25.5330   29.7670 C.3   307  THR307      0.1994
     14  C         17.8600   26.7800   29.3390 C.2   307  THR307      0.2618
     15  O         18.4370   27.8440   29.1210 O.2   307  THR307     -0.2717
     16  CB        19.0740   24.7510   28.5160 C.3   307  THR307      0.1784
     17  OG1       19.6450   23.5000   28.9140 O.3   307  THR307     -0.2211
     18  CG2       20.1010   25.5410   27.7190 C.3   307  THR307      0.0376
     19  N         16.5460   26.6310   29.2200 N.am  308  ARG308     -0.1965
     20  CA        15.6720   27.7320   28.8500 C.3   308  ARG308      0.1714
     21  C         15.3420   28.5840   30.0730 C.2   308  ARG308      0.2458
     22  O         15.3520   28.0810   31.1970 O.2   308  ARG308     -0.2730
     23  CB        14.3960   27.1920   28.1980 C.3   308  ARG308      0.0347
     24  CG        14.6510   26.4810   26.8810 C.3   308  ARG308      0.0492
     25  CD        15.3300   27.4130   25.8910 C.3   308  ARG308      0.2205
     26  NE        15.7250   26.7300   24.6620 N.pl3 308  ARG308     -0.0865
     27  CZ        16.9330   26.2210   24.4470 C.cat 308  ARG308      0.5346
     28  NH1       17.8710   26.3160   25.3800 N.pl3 308  ARG308      0.1354
     29  NH2       17.2070   25.6180   23.2980 N.pl3 308  ARG308      0.1354
     30  N         15.0700   29.8830   29.8580 N.am  309  PRO309     -0.2716
     31  CA        14.7640   30.8410   30.9300 C.3   309  PRO309      0.1536
     32  C         13.6960   30.3700   31.9180 C.2   309  PRO309      0.2599
     33  O         13.9370   30.4210   33.1240 O.2   309  PRO309     -0.2715
     34  CB        14.2780   32.0690   30.1590 C.3   309  PRO309      0.0310
     35  CG        15.0390   32.0110   28.8860 C.3   309  PRO309      0.0237
     36  CD        15.1610   30.5500   28.5450 C.3   309  PRO309      0.0939
     37  N         12.5450   29.9260   31.4220 N.am  310  SER310     -0.1950
     38  CA        11.4630   29.4690   32.2920 C.3   310  SER310      0.1924
     39  C         11.9110   28.3150   33.1840 C.2   310  SER310      0.2314
     40  O         11.8080   28.3910   34.4120 O.2   310  SER310     -0.2863
     41  CB        10.2460   29.0470   31.4640 C.3   310  SER310      0.2116
     42  OG        10.5800   28.0240   30.5430 O.3   310  SER310     -0.2180
     43  N         14.8930   27.3270   33.8630 N.3   312  LEU312     -0.1231
     44  CA        16.0060   27.7180   34.7220 C.3   312  LEU312      0.1693
     45  C         15.4970   28.4600   35.9520 C.2   312  LEU312      0.2592
     46  O         15.9770   28.2440   37.0630 O.2   312  LEU312     -0.2718
     47  CB        17.0050   28.5840   33.9550 C.3   312  LEU312      0.0284
     48  CG        18.1800   29.1510   34.7590 C.3   312  LEU312      0.0019
     49  CD1       18.9900   28.0380   35.4040 C.3   312  LEU312      0.0001
     50  CD2       19.0670   30.0210   33.8800 C.3   312  LEU312      0.0001
     51  N         14.5200   29.3340   35.7430 N.am  313  PHE313     -0.1962
     52  CA        13.8990   30.0590   36.8410 C.3   313  PHE313      0.1771
     53  C         13.2380   29.0820   37.8070 C.2   313  PHE313      0.2619
     54  O         13.4590   29.1520   39.0240 O.2   313  PHE313     -0.2715
     55  CB        12.8760   31.0680   36.3120 C.3   313  PHE313      0.0574
     56  CG        12.1600   31.8260   37.3920 C.ar  313  PHE313     -0.0200
     57  CD1       12.8520   32.6900   38.2240 C.ar  313  PHE313     -0.0042
     58  CD2       10.7960   31.6770   37.5740 C.ar  313  PHE313     -0.0042
     59  CE1       12.1980   33.3900   39.2210 C.ar  313  PHE313     -0.0003
     60  CE2       10.1350   32.3750   38.5660 C.ar  313  PHE313     -0.0003
     61  CZ        10.8360   33.2320   39.3920 C.ar  313  PHE313     -0.0000
     62  N         12.4400   28.1690   37.2540 N.am  314  ILE314     -0.1977
     63  CA        11.7910   27.1280   38.0450 C.3   314  ILE314      0.1596
     64  C         12.8180   26.3280   38.8470 C.2   314  ILE314      0.2287
     65  O         12.6190   26.0610   40.0330 O.2   314  ILE314     -0.2864
     66  CB        10.9760   26.1670   37.1550 C.3   314  ILE314      0.0276
     67  CG1        9.8590   26.9230   36.4380 C.3   314  ILE314      0.0022
     68  CG2       10.3800   25.0390   37.9830 C.3   314  ILE314      0.0022
     69  CD1        8.8820   27.5870   37.3790 C.3   314  ILE314      0.0001
     70  N         15.8340   27.2750   39.8030 N.3   316  VAL316     -0.1231
     71  CA        16.3580   28.1440   40.8520 C.3   316  VAL316      0.1692
     72  C         15.4090   28.1840   42.0480 C.2   316  VAL316      0.2591
     73  O         15.8340   28.0310   43.2020 O.2   316  VAL316     -0.2718
     74  CB        16.5940   29.5840   40.3320 C.3   316  VAL316      0.0266
     75  CG1       16.8410   30.5450   41.4910 C.3   316  VAL316      0.0020
     76  CG2       17.7560   29.6150   39.3530 C.3   316  VAL316      0.0020
     77  N         14.1230   28.3800   41.7630 N.am  317  LEU317     -0.1980
     78  CA        13.1090   28.3970   42.8090 C.3   317  LEU317      0.1596
     79  C         13.0960   27.0890   43.5850 C.2   317  LEU317      0.2287
     80  O         13.0270   27.0940   44.8120 O.2   317  LEU317     -0.2864
     81  CB        11.7230   28.6590   42.2220 C.3   317  LEU317      0.0297
     82  CG        11.4850   30.0320   41.5970 C.3   317  LEU317      0.0022
     83  CD1       10.0100   30.2040   41.2800 C.3   317  LEU317      0.0001
     84  CD2       11.9760   31.1400   42.5170 C.3   317  LEU317      0.0001
     85  N         21.8770   29.6580   39.1540 N.3   380  LEU380     -0.1245
     86  CA        21.5610   30.5900   38.0710 C.3   380  LEU380      0.1561
     87  C         22.7440   30.9800   37.1770 C.2   380  LEU380      0.2260
     88  O         22.6920   30.8040   35.9600 O.2   380  LEU380     -0.2867
     89  CB        20.9430   31.8610   38.6580 C.3   380  LEU380      0.0270
     90  CG        20.6870   33.0170   37.6890 C.3   380  LEU380      0.0019
     91  CD1       19.6520   32.6280   36.6450 C.3   380  LEU380      0.0001
     92  CD2       20.2540   34.2630   38.4470 C.3   380  LEU380      0.0001
     93  N         24.5780   29.1070   33.7680 N.3   383  GLN383     -0.1231
     94  CA        23.8640   29.0990   32.4950 C.3   383  GLN383      0.1698
     95  C         24.1230   30.3870   31.7210 C.2   383  GLN383      0.2592
     96  O         24.3440   30.3650   30.5080 O.2   383  GLN383     -0.2718
     97  CB        22.3640   28.9170   32.7130 C.3   383  GLN383      0.0381
     98  CG        21.5960   28.7040   31.4240 C.3   383  GLN383      0.0905
     99  CD        22.0680   27.4750   30.6720 C.2   383  GLN383      0.2608
    100  OE1       22.0180   26.3610   31.1940 O.2   383  GLN383     -0.2717
    101  NE2       22.5380   27.6720   29.4460 N.am  383  GLN383     -0.0878
    102  N         24.0960   31.5070   32.4330 N.am  384  ILE384     -0.1980
    103  CA        24.4120   32.7970   31.8390 C.3   384  ILE384      0.1595
    104  C         25.8430   32.7990   31.3070 C.2   384  ILE384      0.2287
    105  O         26.0900   33.2390   30.1860 O.2   384  ILE384     -0.2864
    106  CB        24.2250   33.9460   32.8520 C.3   384  ILE384      0.0276
    107  CG1       22.7560   34.0360   33.2770 C.3   384  ILE384      0.0022
    108  CG2       24.6910   35.2680   32.2570 C.3   384  ILE384      0.0022
    109  CD1       22.4670   35.1490   34.2590 C.3   384  ILE384      0.0001
    110  N         25.9950   30.9150   28.1640 N.3   387  ASN387     -0.1240
    111  CA        25.3530   31.6760   27.0970 C.3   387  ASN387      0.1653
    112  C         26.2470   32.7910   26.5610 C.2   387  ASN387      0.2266
    113  O         26.2230   33.0970   25.3690 O.2   387  ASN387     -0.2867
    114  CB        24.0290   32.2660   27.5840 C.3   387  ASN387      0.1155
    115  CG        22.9780   31.2060   27.8480 C.2   387  ASN387      0.2627
    116  OD1       23.0160   30.1210   27.2710 O.2   387  ASN387     -0.2716
    117  ND2       22.0300   31.5190   28.7240 N.am  387  ASN387     -0.0877
@<TRIPOS>BOND
     1    29    27    1
     2    27    26    2
     3    27    28    1
     4    26    25    1
     5   113   112    2
     6    25    24    1
     7   112   111    1
     8    24    23    1
     9   111   114    1
    10   111   110    1
    11   116   115    2
    12   114   115    1
    13    18    16    1
    14   115   117   am
    15    23    20    1
    16    16    17    1
    17    16    13    1
    18    36    35    1
    19    36    30    1
    20     1     2    1
    21    20    19    1
    22    20    21    1
    23    35    34    1
    24    15    14    2
    25    19    14   am
    26    14    13    1
    27   101    99   am
    28     2     5    1
    29     2     3    1
    30    13    12    1
    31    30    21   am
    32    30    31    1
    33     5     6    1
    34    21    22    2
    35    34    31    1
    36   105   104    2
    37    96    95    2
    38    42    41    1
    39     7     6   ar
    40     7     9   ar
    41    99   100    2
    42    99    98    1
    43     3     4    2
    44    31    32    1
    45     6     8   ar
    46   104   103    1
    47    37    32   am
    48    37    38    1
    49    98    97    1
    50    41    38    1
    51     9    11   ar
    52    95   102   am
    53    95    94    1
    54   103   102    1
    55   103   106    1
    56    32    33    2
    57   108   106    1
    58    38    39    1
    59     8    10   ar
    60    94    97    1
    61    94    93    1
    62    11    10   ar
    63   106   107    1
    64    39    40    2
    65   107   109    1
    66    43    44    1
    67    50    48    1
    68    47    44    1
    69    47    48    1
    70    44    45    1
    71    48    49    1
    72    51    45   am
    73    51    52    1
    74    45    46    2
    75    88    87    2
    76    55    52    1
    77    55    56    1
    78    67    66    1
    79    67    69    1
    80    91    90    1
    81    52    53    1
    82    66    68    1
    83    66    63    1
    84    87    86    1
    85    62    53   am
    86    62    63    1
    87    56    58   ar
    88    56    57   ar
    89    58    60   ar
    90    90    92    1
    91    90    89    1
    92    53    54    2
    93    63    64    1
    94    86    89    1
    95    86    85    1
    96    57    59   ar
    97    60    61   ar
    98    64    65    2
    99    59    61   ar
   100    76    74    1
   101    70    71    1
   102    74    71    1
   103    74    75    1
   104    71    72    1
   105    83    82    1
   106    82    81    1
   107    82    84    1
   108    77    72   am
   109    77    78    1
   110    72    73    2
   111    81    78    1
   112    78    79    1
   113    79    80    2
