@<TRIPOS>MOLECULE
tmp/5awwA01.pdb
 88 83 0 0 0
SMALL
GASTEIGER

@<TRIPOS>ATOM
      1  N         33.4630   28.7110   50.7170 N.3   233  ALA233     -0.1231
      2  CA        33.4230   29.8260   51.6550 C.3   233  ALA233      0.1694
      3  C         32.0980   29.8720   52.4000 C.2   233  ALA233      0.2591
      4  O         32.0710   29.9680   53.6260 O.2   233  ALA233     -0.2718
      5  CB        33.6630   31.1380   50.9250 C.3   233  ALA233      0.0304
      6  N         31.0020   29.7960   51.6530 N.am  234  VAL234     -0.1980
      7  CA        29.6680   29.8660   52.2440 C.3   234  VAL234      0.1595
      8  C         29.4000   28.6640   53.1510 C.2   234  VAL234      0.2287
      9  O         28.7600   28.7940   54.1960 O.2   234  VAL234     -0.2864
     10  CB        28.5840   29.9630   51.1500 C.3   234  VAL234      0.0276
     11  CG1       27.1920   29.8090   51.7420 C.3   234  VAL234      0.0022
     12  CG2       28.7070   31.2900   50.4170 C.3   234  VAL234      0.0022
     13  N         24.9300   28.5990   57.5100 N.3   266  LEU266     -0.1245
     14  CA        23.9550   29.2250   56.6260 C.3   266  LEU266      0.1561
     15  C         23.0650   28.1570   56.0010 C.2   266  LEU266      0.2260
     16  O         21.8650   28.3610   55.8120 O.2   266  LEU266     -0.2867
     17  CB        24.6550   30.0430   55.5390 C.3   266  LEU266      0.0270
     18  CG        25.4250   31.2680   56.0370 C.3   266  LEU266      0.0019
     19  CD1       26.1770   31.9470   54.9020 C.3   266  LEU266      0.0001
     20  CD2       24.4770   32.2440   56.7090 C.3   266  LEU266      0.0001
     21  N         15.8340   27.2750   39.8030 N.3   316  VAL316     -0.1245
     22  CA        16.3580   28.1440   40.8520 C.3   316  VAL316      0.1561
     23  C         15.4090   28.1840   42.0480 C.2   316  VAL316      0.2260
     24  O         15.8340   28.0310   43.2020 O.2   316  VAL316     -0.2867
     25  CB        16.5940   29.5840   40.3320 C.3   316  VAL316      0.0252
     26  CG1       16.8410   30.5450   41.4910 C.3   316  VAL316      0.0019
     27  CG2       17.7560   29.6150   39.3530 C.3   316  VAL316      0.0019
     28  N         16.2640   26.8850   45.8680 N.3   320  ILE320     -0.1245
     29  CA        16.1520   27.7800   47.0240 C.3   320  ILE320      0.1561
     30  C         15.1220   27.2740   48.0360 C.2   320  ILE320      0.2260
     31  O         15.3970   27.1950   49.2360 O.2   320  ILE320     -0.2867
     32  CB        15.7680   29.2150   46.6070 C.3   320  ILE320      0.0252
     33  CG1       16.8460   29.8210   45.7090 C.3   320  ILE320      0.0019
     34  CG2       15.5630   30.0930   47.8320 C.3   320  ILE320      0.0019
     35  CD1       16.5240   31.2250   45.2350 C.3   320  ILE320      0.0001
     36  N         19.7240   33.3320   53.3600 N.3   370  TRP370     -0.1241
     37  CA        20.8570   33.7620   52.5550 C.3   370  TRP370      0.1605
     38  C         21.6120   32.5820   51.9520 C.2   370  TRP370      0.2264
     39  O         22.0920   32.6650   50.8240 O.2   370  TRP370     -0.2867
     40  CB        21.7920   34.6340   53.3920 C.3   370  TRP370      0.0550
     41  CG        21.1060   35.8650   53.8780 C.ar  370  TRP370      0.0003
     42  CD1       20.6580   36.1100   55.1430 C.ar  370  TRP370      0.0946
     43  CD2       20.7550   37.0130   53.0970 C.ar  370  TRP370      0.0152
     44  NE1       20.0620   37.3480   55.2010 N.ar  370  TRP370     -0.2442
     45  CE2       20.1090   37.9220   53.9580 C.ar  370  TRP370      0.0810
     46  CE3       20.9310   37.3640   51.7550 C.ar  370  TRP370      0.0012
     47  CZ2       19.6390   39.1590   53.5210 C.ar  370  TRP370      0.0191
     48  CZ3       20.4640   38.5920   51.3230 C.ar  370  TRP370      0.0001
     49  CH2       19.8260   39.4740   52.2040 C.ar  370  TRP370      0.0015
     50  N         19.4370   31.4170   49.1040 N.3   373  LEU373     -0.1231
     51  CA        19.6000   32.3520   47.9970 C.3   373  LEU373      0.1693
     52  C         20.9400   32.1610   47.2990 C.2   373  LEU373      0.2592
     53  O         21.0400   32.3120   46.0820 O.2   373  LEU373     -0.2718
     54  CB        19.4670   33.7960   48.4860 C.3   373  LEU373      0.0284
     55  CG        18.0720   34.2610   48.9120 C.3   373  LEU373      0.0019
     56  CD1       18.1100   35.6980   49.4100 C.3   373  LEU373      0.0001
     57  CD2       17.0760   34.1120   47.7720 C.3   373  LEU373      0.0001
     58  N         21.9700   31.8270   48.0700 N.am  374  PHE374     -0.1976
     59  CA        23.2910   31.6200   47.4970 C.3   374  PHE374      0.1639
     60  C         23.2960   30.3860   46.6090 C.2   374  PHE374      0.2290
     61  O         23.8310   30.4130   45.4950 O.2   374  PHE374     -0.2864
     62  CB        24.3590   31.4820   48.5800 C.3   374  PHE374      0.0560
     63  CG        25.7260   31.1910   48.0310 C.ar  374  PHE374     -0.0200
     64  CD1       26.4930   32.2040   47.4810 C.ar  374  PHE374     -0.0042
     65  CD2       26.2350   29.9040   48.0430 C.ar  374  PHE374     -0.0042
     66  CE1       27.7460   31.9400   46.9630 C.ar  374  PHE374     -0.0003
     67  CE2       27.4850   29.6330   47.5270 C.ar  374  PHE374     -0.0003
     68  CZ        28.2430   30.6530   46.9850 C.ar  374  PHE374     -0.0000
     69  N         20.8020   29.2520   45.1300 N.3   376  GLY376     -0.1210
     70  CA        20.0450   29.6710   43.9610 C.3   376  GLY376      0.1956
     71  C         20.8850   30.4600   42.9660 C.2   376  GLY376      0.2611
     72  O         20.7010   30.3510   41.7490 O.2   376  GLY376     -0.2717
     73  N         21.8070   31.2650   43.4870 N.am  377  LEU377     -0.1979
     74  CA        22.7200   32.0370   42.6500 C.3   377  LEU377      0.1596
     75  C         23.6480   31.1000   41.8900 C.2   377  LEU377      0.2287
     76  O         23.8970   31.2800   40.6940 O.2   377  LEU377     -0.2864
     77  CB        23.5330   33.0200   43.4960 C.3   377  LEU377      0.0297
     78  CG        24.5360   33.9030   42.7480 C.3   377  LEU377      0.0022
     79  CD1       23.8170   34.9040   41.8570 C.3   377  LEU377      0.0001
     80  CD2       25.4670   34.6140   43.7200 C.3   377  LEU377      0.0001
     81  N         21.8770   29.6580   39.1540 N.3   380  LEU380     -0.1245
     82  CA        21.5610   30.5900   38.0710 C.3   380  LEU380      0.1561
     83  C         22.7440   30.9800   37.1770 C.2   380  LEU380      0.2260
     84  O         22.6920   30.8040   35.9600 O.2   380  LEU380     -0.2867
     85  CB        20.9430   31.8610   38.6580 C.3   380  LEU380      0.0270
     86  CG        20.6870   33.0170   37.6890 C.3   380  LEU380      0.0019
     87  CD1       19.6520   32.6280   36.6450 C.3   380  LEU380      0.0001
     88  CD2       20.2540   34.2630   38.4470 C.3   380  LEU380      0.0001
@<TRIPOS>BOND
     1    84    83    2
     2    87    86    1
     3    83    82    1
     4    86    88    1
     5    86    85    1
     6    82    85    1
     7    82    81    1
     8    27    25    1
     9    21    22    1
    10    25    22    1
    11    25    26    1
    12    76    75    2
    13    22    23    1
    14    72    71    2
    15    79    78    1
    16    75    74    1
    17    23    24    2
    18    74    73    1
    19    74    77    1
    20    78    77    1
    21    78    80    1
    22    71    73   am
    23    71    70    1
    24    70    69    1
    25    35    33    1
    26    61    60    2
    27    33    32    1
    28    28    29    1
    29    53    52    2
    30    32    29    1
    31    32    34    1
    32    60    59    1
    33    66    68   ar
    34    66    64   ar
    35    68    67   ar
    36    29    30    1
    37    52    51    1
    38    52    58   am
    39    64    63   ar
    40    59    58    1
    41    59    62    1
    42    67    65   ar
    43    57    55    1
    44    51    54    1
    45    51    50    1
    46    63    65   ar
    47    63    62    1
    48    30    31    2
    49    54    55    1
    50    55    56    1
    51    12    10    1
    52     1     2    1
    53    39    38    2
    54     5     2    1
    55    10    11    1
    56    10     7    1
    57    48    46   ar
    58    48    49   ar
    59     6     7    1
    60     6     3   am
    61     2     3    1
    62    46    43   ar
    63    38    37    1
    64    49    47   ar
    65     7     8    1
    66     3     4    2
    67    37    36    1
    68    37    40    1
    69    43    41   ar
    70    43    45   ar
    71     8     9    2
    72    40    41    1
    73    47    45   ar
    74    41    42   ar
    75    45    44   ar
    76    19    18    1
    77    42    44   ar
    78    17    18    1
    79    17    14    1
    80    16    15    2
    81    15    14    1
    82    18    20    1
    83    14    13    1
