@<TRIPOS>MOLECULE
tmp/5ax0A04.pdb
 90 85 0 0 0
SMALL
GASTEIGER

@<TRIPOS>ATOM
      1  N         -1.6970   61.3860   42.0110 N.3   137  TRP137     -0.1241
      2  CA        -0.7920   60.4410   42.6510 C.3   137  TRP137      0.1605
      3  C         -1.4550   59.1100   42.9670 C.2   137  TRP137      0.2264
      4  O         -0.7510   58.1060   43.1050 O.2   137  TRP137     -0.2867
      5  CB        -0.2050   61.0680   43.9140 C.3   137  TRP137      0.0550
      6  CG         0.6020   62.2590   43.5770 C.ar  137  TRP137      0.0003
      7  CD1        0.2840   63.5710   43.8100 C.ar  137  TRP137      0.0946
      8  CD2        1.8470   62.2670   42.8680 C.ar  137  TRP137      0.0152
      9  NE1        1.2750   64.3920   43.3130 N.ar  137  TRP137     -0.2442
     10  CE2        2.2480   63.6120   42.7390 C.ar  137  TRP137      0.0810
     11  CE3        2.6770   61.2610   42.3610 C.ar  137  TRP137      0.0012
     12  CZ2        3.4380   63.9790   42.1030 C.ar  137  TRP137      0.0191
     13  CZ3        3.8550   61.6290   41.7310 C.ar  137  TRP137      0.0001
     14  CH2        4.2220   62.9710   41.6100 C.ar  137  TRP137      0.0015
     15  N         -0.8120   57.3440   39.8510 N.3   140  PHE140     -0.1241
     16  CA         0.6120   57.0220   39.7940 C.3   140  PHE140      0.1605
     17  C          0.9370   55.8100   40.6520 C.2   140  PHE140      0.2264
     18  O          1.6290   54.8870   40.2040 O.2   140  PHE140     -0.2867
     19  CB         1.4540   58.2190   40.2400 C.3   140  PHE140      0.0534
     20  CG         2.9520   57.9460   40.2340 C.ar  140  PHE140     -0.0203
     21  CD1        3.6470   57.8460   39.0390 C.ar  140  PHE140     -0.0042
     22  CD2        3.6540   57.8230   41.4210 C.ar  140  PHE140     -0.0042
     23  CE1        5.0150   57.6150   39.0330 C.ar  140  PHE140     -0.0003
     24  CE2        5.0230   57.5830   41.4220 C.ar  140  PHE140     -0.0003
     25  CZ         5.7070   57.4810   40.2170 C.ar  140  PHE140     -0.0000
     26  N          2.3180   52.1060   39.5590 N.3   144  CYS144     -0.1235
     27  CA         3.5420   51.5040   40.0820 C.3   144  CYS144      0.1677
     28  C          3.2830   50.1030   40.6110 C.2   144  CYS144      0.2270
     29  O          4.1290   49.2120   40.4730 O.2   144  CYS144     -0.2867
     30  CB         4.1370   52.3760   41.1850 C.3   144  CYS144      0.0956
     31  SG         4.9050   53.9080   40.6090 S.3   144  CYS144     -0.0801
     32  N          3.3030   47.8160   37.7320 N.3   147  LEU147     -0.1231
     33  CA         4.6600   47.4420   37.3330 C.3   147  LEU147      0.1693
     34  C          5.1980   46.3220   38.2190 C.2   147  LEU147      0.2591
     35  O          5.8410   45.3840   37.7310 O.2   147  LEU147     -0.2718
     36  CB         5.5850   48.6680   37.3790 C.3   147  LEU147      0.0284
     37  CG         7.0410   48.4170   36.9560 C.3   147  LEU147      0.0019
     38  CD1        7.1000   47.7710   35.5630 C.3   147  LEU147      0.0001
     39  CD2        7.8370   49.7410   36.9830 C.3   147  LEU147      0.0001
     40  N          4.9200   46.3840   39.5270 N.am  148  ALA148     -0.1980
     41  CA         5.3630   45.3130   40.4080 C.3   148  ALA148      0.1597
     42  C          4.6740   44.0040   40.0560 C.2   148  ALA148      0.2287
     43  O          5.3070   42.9420   40.0560 O.2   148  ALA148     -0.2864
     44  CB         5.1010   45.6890   41.8640 C.3   148  ALA148      0.0319
     45  N         11.8460   50.6300   35.6150 N.3   185  VAL185     -0.1245
     46  CA        11.6450   51.3610   36.8740 C.3   185  VAL185      0.1561
     47  C         12.0220   52.8370   36.7280 C.2   185  VAL185      0.2260
     48  O         11.4870   53.6910   37.4550 O.2   185  VAL185     -0.2867
     49  CB        12.4250   50.6740   38.0190 C.3   185  VAL185      0.0252
     50  CG1       12.4470   51.5370   39.3010 C.3   185  VAL185      0.0019
     51  CG2       11.7660   49.3500   38.3410 C.3   185  VAL185      0.0019
     52  N          8.7720   55.5300   35.7230 N.3   188  PRO188     -0.2102
     53  CA         7.9690   56.2320   36.7490 C.3   188  PRO188      0.1504
     54  C          8.7560   57.2310   37.5720 C.2   188  PRO188      0.2575
     55  O          8.1520   58.1770   38.0900 O.2   188  PRO188     -0.2718
     56  CB         7.4100   55.0940   37.6220 C.3   188  PRO188      0.0282
     57  CG         8.3300   53.9050   37.3380 C.3   188  PRO188      0.0208
     58  CD         8.7130   54.0610   35.9030 C.3   188  PRO188      0.0893
     59  N         10.0770   57.0810   37.7180 N.am  189  ILE189     -0.1980
     60  CA        10.8330   58.1330   38.3930 C.3   189  ILE189      0.1595
     61  C         10.7930   59.4090   37.5650 C.2   189  ILE189      0.2287
     62  O         10.5340   60.4990   38.0830 O.2   189  ILE189     -0.2864
     63  CB        12.2830   57.6960   38.6740 C.3   189  ILE189      0.0276
     64  CG1       12.2910   56.4110   39.5060 C.3   189  ILE189      0.0022
     65  CG2       13.0390   58.8170   39.4190 C.3   189  ILE189      0.0022
     66  CD1       13.6960   55.8400   39.7540 C.3   189  ILE189      0.0001
     67  N          7.2860   60.8350   37.8060 N.3   192  GLY192     -0.1210
     68  CA         7.0290   61.4800   39.0850 C.3   192  GLY192      0.1956
     69  C          7.7030   62.8350   39.1950 C.2   192  GLY192      0.2611
     70  O          7.1470   63.7740   39.7640 O.2   192  GLY192     -0.2717
     71  N          8.9000   62.9650   38.6210 N.am  193  LEU193     -0.1979
     72  CA         9.6350   64.2210   38.6810 C.3   193  LEU193      0.1596
     73  C          9.1020   65.2520   37.6910 C.2   193  LEU193      0.2287
     74  O          9.2270   66.4550   37.9320 O.2   193  LEU193     -0.2864
     75  CB        11.1180   63.9700   38.4010 C.3   193  LEU193      0.0297
     76  CG        11.8910   63.1510   39.4280 C.3   193  LEU193      0.0022
     77  CD1       13.2500   62.7920   38.8560 C.3   193  LEU193      0.0001
     78  CD2       12.0410   63.9700   40.6960 C.3   193  LEU193      0.0001
     79  N          5.2990   65.7340   39.3820 N.3   197  GLY197     -0.1225
     80  CA         5.7450   66.7210   40.3460 C.3   197  GLY197      0.1811
     81  C          6.1260   68.0960   39.8290 C.2   197  GLY197      0.2280
     82  O          6.2620   69.0250   40.6280 O.2   197  GLY197     -0.2866
     83  N          8.9860   69.0330   38.7930 N.3   199  ILE199     -0.1245
     84  CA        10.2850   69.2760   39.4090 C.3   199  ILE199      0.1561
     85  C         11.3320   69.4190   38.3070 C.2   199  ILE199      0.2260
     86  O         12.3150   70.1540   38.4620 O.2   199  ILE199     -0.2867
     87  CB        10.6390   68.1290   40.3780 C.3   199  ILE199      0.0252
     88  CG1        9.6520   68.1070   41.5480 C.3   199  ILE199      0.0019
     89  CG2       12.0640   68.2520   40.8820 C.3   199  ILE199      0.0019
     90  CD1        9.8550   66.9320   42.4920 C.3   199  ILE199      0.0001
@<TRIPOS>BOND
     1    38    37    1
     2    45    46    1
     3    52    58    1
     4    52    53    1
     5    58    57    1
     6    47    46    1
     7    47    48    2
     8    53    54    1
     9    53    56    1
    10    46    49    1
    11    37    39    1
    12    37    36    1
    13    33    36    1
    14    33    32    1
    15    33    34    1
    16    57    56    1
    17    61    62    2
    18    61    60    1
    19    54    59   am
    20    54    55    2
    21    73    74    2
    22    73    72    1
    23    59    60    1
    24    35    34    2
    25    67    68    1
    26    49    51    1
    27    49    50    1
    28    34    40   am
    29    85    86    2
    30    85    84    1
    31    60    63    1
    32    75    72    1
    33    75    76    1
    34    71    72    1
    35    71    69   am
    36    63    65    1
    37    63    64    1
    38    83    84    1
    39    77    76    1
    40    23    21   ar
    41    23    25   ar
    42    21    20   ar
    43    68    69    1
    44    69    70    2
    45    79    80    1
    46    84    87    1
    47    76    78    1
    48    64    66    1
    49    40    41    1
    50    26    27    1
    51    16    15    1
    52    16    19    1
    53    16    17    1
    54    81    80    1
    55    81    82    2
    56    43    42    2
    57    42    41    1
    58    27    28    1
    59    27    30    1
    60    18    17    2
    61    25    24   ar
    62    20    19    1
    63    20    22   ar
    64    87    89    1
    65    87    88    1
    66    41    44    1
    67    29    28    2
    68    31    30    1
    69    22    24   ar
    70    88    90    1
    71    14    13   ar
    72    14    12   ar
    73    13    11   ar
    74     1     2    1
    75    12    10   ar
    76    11     8   ar
    77     2     3    1
    78     2     5    1
    79    10     8   ar
    80    10     9   ar
    81     8     6   ar
    82     3     4    2
    83     9     7   ar
    84     6     7   ar
    85     6     5    1
