@<TRIPOS>MOLECULE
tmp/5ax0A03.pdb
 112 105 0 0 0
SMALL
GASTEIGER

@<TRIPOS>ATOM
      1  N          1.4970   51.7140   24.9860 N.3    90  VAL90      -0.1231
      2  CA         0.4390   50.7140   25.1490 C.3    90  VAL90       0.1692
      3  C          0.5850   49.5940   24.1210 C.2    90  VAL90       0.2592
      4  O          0.1560   48.4660   24.3800 O.2    90  VAL90      -0.2718
      5  CB        -0.9600   51.3730   25.1030 C.3    90  VAL90       0.0266
      6  CG1       -1.3900   51.6990   23.6800 C.3    90  VAL90       0.0020
      7  CG2       -2.0000   50.4820   25.8080 C.3    90  VAL90       0.0020
      8  N          1.2300   49.8620   22.9790 N.am   91  PHE91      -0.1976
      9  CA         1.5090   48.7970   22.0200 C.3    91  PHE91       0.1639
     10  C          2.8980   48.1880   22.1920 C.2    91  PHE91       0.2290
     11  O          3.0540   46.9700   22.0420 O.2    91  PHE91      -0.2864
     12  CB         1.3520   49.3240   20.5900 C.3    91  PHE91       0.0560
     13  CG        -0.0500   49.7330   20.2620 C.ar   91  PHE91      -0.0200
     14  CD1       -1.0160   48.7820   19.9890 C.ar   91  PHE91      -0.0042
     15  CD2       -0.4100   51.0660   20.2550 C.ar   91  PHE91      -0.0042
     16  CE1       -2.3130   49.1560   19.6950 C.ar   91  PHE91      -0.0003
     17  CE2       -1.7050   51.4470   19.9560 C.ar   91  PHE91      -0.0003
     18  CZ        -2.6560   50.4940   19.6810 C.ar   91  PHE91      -0.0000
     19  N          3.7210   45.7260   25.7140 N.3    94  PRO94      -0.2102
     20  CA         3.3400   44.3030   25.6100 C.3    94  PRO94       0.1504
     21  C          4.2270   43.5210   24.6580 C.2    94  PRO94       0.2575
     22  O          4.5150   42.3440   24.9060 O.2    94  PRO94      -0.2718
     23  CB         1.8870   44.3580   25.1190 C.3    94  PRO94       0.0282
     24  CG         1.3790   45.6920   25.6230 C.3    94  PRO94       0.0208
     25  CD         2.5690   46.6170   25.4540 C.3    94  PRO94       0.0893
     26  N          4.6620   44.1480   23.5630 N.am   95  LEU95      -0.1980
     27  CA         5.5510   43.4560   22.6330 C.3    95  LEU95       0.1596
     28  C          6.9300   43.2230   23.2450 C.2    95  LEU95       0.2287
     29  O          7.5500   42.1870   23.0000 O.2    95  LEU95      -0.2864
     30  CB         5.6860   44.2590   21.3360 C.3    95  LEU95       0.0297
     31  CG         4.4240   44.2950   20.4870 C.3    95  LEU95       0.0022
     32  CD1        4.6030   45.2970   19.3590 C.3    95  LEU95       0.0001
     33  CD2        4.1350   42.9160   19.9200 C.3    95  LEU95       0.0001
     34  N          6.5390   40.3110   25.3270 N.3    98  LEU98      -0.1245
     35  CA         6.3890   39.1350   24.4700 C.3    98  LEU98       0.1561
     36  C          7.7410   38.5860   24.0210 C.2    98  LEU98       0.2260
     37  O          7.9070   37.3670   23.8980 O.2    98  LEU98      -0.2867
     38  CB         5.5100   39.4820   23.2680 C.3    98  LEU98       0.0270
     39  CG         5.2430   38.3500   22.2730 C.3    98  LEU98       0.0019
     40  CD1        4.5080   37.2160   22.9650 C.3    98  LEU98       0.0001
     41  CD2        4.4300   38.8680   21.0970 C.3    98  LEU98       0.0001
     42  N          8.4520   36.3990   26.8360 N.3   101  VAL101     -0.1231
     43  CA         7.4300   35.3610   27.0080 C.3   101  VAL101      0.1692
     44  C          7.6300   34.2350   26.0010 C.2   101  VAL101      0.2591
     45  O          7.4000   33.0550   26.3170 O.2   101  VAL101     -0.2718
     46  CB         6.0210   35.9830   26.8930 C.3   101  VAL101      0.0266
     47  CG1        4.9560   34.8850   26.7500 C.3   101  VAL101      0.0020
     48  CG2        5.7140   36.8400   28.1210 C.3   101  VAL101      0.0020
     49  N          8.1020   34.5680   24.7910 N.am  102  LEU102     -0.1980
     50  CA         8.3270   33.5690   23.7500 C.3   102  LEU102      0.1596
     51  C          9.4370   32.5920   24.1150 C.2   102  LEU102      0.2287
     52  O          9.5420   31.5320   23.4870 O.2   102  LEU102     -0.2864
     53  CB         8.6500   34.2640   22.4190 C.3   102  LEU102      0.0297
     54  CG         7.4800   34.9880   21.7450 C.3   102  LEU102      0.0022
     55  CD1        7.9490   35.8670   20.5720 C.3   102  LEU102      0.0001
     56  CD2        6.4120   33.9950   21.2880 C.3   102  LEU102      0.0001
     57  N          9.5370   31.1620   27.0470 N.3   104  THR104     -0.1203
     58  CA         8.9790   30.4240   28.1720 C.3   104  THR104      0.1994
     59  C          7.8130   29.5670   27.7170 C.2   104  THR104      0.2618
     60  O          7.3790   29.6250   26.5670 O.2   104  THR104     -0.2717
     61  CB         8.4660   31.3550   29.2710 C.3   104  THR104      0.1784
     62  OG1        7.2100   31.9190   28.8550 O.3   104  THR104     -0.2211
     63  CG2        9.4500   32.4650   29.5340 C.3   104  THR104      0.0376
     64  N          7.2890   28.7960   28.6700 N.am  105  ASN105     -0.1960
     65  CA         6.0470   28.0500   28.5160 C.3   105  ASN105      0.1819
     66  C          4.9620   28.6030   29.4350 C.2   105  ASN105      0.2621
     67  O          4.2090   27.8480   30.0480 O.2   105  ASN105     -0.2715
     68  CB         6.2610   26.5610   28.7840 C.3   105  ASN105      0.1195
     69  CG         6.9670   25.8530   27.6400 C.2   105  ASN105      0.2630
     70  OD1        6.8590   26.2520   26.4760 O.2   105  ASN105     -0.2716
     71  ND2        7.6860   24.7850   27.9650 N.am  105  ASN105     -0.0877
     72  N          4.8840   29.9310   29.5510 N.am  106  MET106     -0.1977
     73  CA         3.8160   30.5490   30.3340 C.3   106  MET106      0.1605
     74  C          2.4560   30.1570   29.7750 C.2   106  MET106      0.2287
     75  O          2.2340   30.2830   28.5640 O.2   106  MET106     -0.2864
     76  CB         3.9000   32.0700   30.3030 C.3   106  MET106      0.0413
     77  CG         4.8720   32.7170   31.2240 C.3   106  MET106      0.0598
     78  SD         4.5060   34.4840   31.1310 S.3   106  MET106     -0.1393
     79  CE         5.9760   35.1520   31.9080 C.3   106  MET106      0.0692
     80  N         -0.0610   34.8850   30.9250 N.3   111  ILE111     -0.1245
     81  CA         0.2350   35.9430   29.9620 C.3   111  ILE111      0.1561
     82  C         -0.8510   37.0100   30.0120 C.2   111  ILE111      0.2260
     83  O         -0.5660   38.2090   29.9420 O.2   111  ILE111     -0.2867
     84  CB         0.3940   35.3520   28.5470 C.3   111  ILE111      0.0252
     85  CG1        1.5250   34.3270   28.5410 C.3   111  ILE111      0.0019
     86  CG2        0.6780   36.4630   27.5400 C.3   111  ILE111      0.0019
     87  CD1        1.6020   33.4840   27.2650 C.3   111  ILE111      0.0001
     88  N          0.0380   40.9090   30.8080 N.3   115  MET115     -0.1245
     89  CA        -0.2240   41.9120   29.7850 C.3   115  MET115      0.1570
     90  C         -1.2990   42.8930   30.2330 C.2   115  MET115      0.2261
     91  O         -1.2180   44.0890   29.9270 O.2   115  MET115     -0.2867
     92  CB        -0.6190   41.2240   28.4810 C.3   115  MET115      0.0387
     93  CG         0.4600   40.3100   27.9780 C.3   115  MET115      0.0595
     94  SD         1.8300   41.2690   27.3200 S.3   115  MET115     -0.1393
     95  CE         2.9620   39.9460   26.9000 C.3   115  MET115      0.0692
     96  N         -0.8800   46.9810   30.4270 N.3   119  ILE119     -0.1245
     97  CA        -1.7500   47.9570   29.7800 C.3   119  ILE119      0.1561
     98  C         -2.3730   48.8950   30.8090 C.2   119  ILE119      0.2260
     99  O         -2.4680   50.1090   30.5810 O.2   119  ILE119     -0.2867
    100  CB        -2.8150   47.2320   28.9420 C.3   119  ILE119      0.0252
    101  CG1       -2.1380   46.5090   27.7750 C.3   119  ILE119      0.0019
    102  CG2       -3.8750   48.2120   28.4560 C.3   119  ILE119      0.0019
    103  CD1       -3.0220   45.4850   27.0960 C.3   119  ILE119      0.0001
    104  N         10.8190   26.6040   28.9790 N.3   165  LYS165     -0.1245
    105  CA        11.0240   25.7560   27.8070 C.3   165  LYS165      0.1561
    106  C         12.2350   24.8510   28.0010 C.2   165  LYS165      0.2260
    107  O         12.1430   23.6260   27.8690 O.2   165  LYS165     -0.2867
    108  CB        11.2090   26.6140   26.5510 C.3   165  LYS165      0.0271
    109  CG         9.9650   27.3240   26.0570 C.3   165  LYS165      0.0035
    110  CD        10.1890   27.8600   24.6440 C.3   165  LYS165      0.0206
    111  CE         8.8880   28.3060   24.0000 C.3   165  LYS165      0.1093
    112  NZ         7.9060   27.1900   23.9130 N.3   165  LYS165     -0.1314
@<TRIPOS>BOND
     1    32    31    1
     2    18    16   ar
     3    18    17   ar
     4    16    14   ar
     5    33    31    1
     6    17    15   ar
     7    14    13   ar
     8    15    13   ar
     9    13    12    1
    10    31    30    1
    11    55    54    1
    12    12     9    1
    13    41    39    1
    14    56    54    1
    15    30    27    1
    16    54    53    1
    17     9    10    1
    18     9     8    1
    19    11    10    2
    20    39    40    1
    21    39    38    1
    22    53    50    1
    23    27    28    1
    24    27    26    1
    25     8     3   am
    26    29    28    2
    27    38    35    1
    28    52    51    2
    29    26    21   am
    30     6     5    1
    31    50    51    1
    32    50    49    1
    33    37    36    2
    34   112   111    1
    35   111   110    1
    36    36    35    1
    37     3     4    2
    38     3     2    1
    39    35    34    1
    40   110   109    1
    41    21    22    2
    42    21    20    1
    43    49    44   am
    44     1     2    1
    45     5     2    1
    46     5     7    1
    47    23    20    1
    48    23    24    1
    49    25    24    1
    50    25    19    1
    51    20    19    1
    52    44    45    2
    53    44    43    1
    54   109   108    1
    55    70    69    2
    56   108   105    1
    57    60    59    2
    58    47    46    1
    59    42    43    1
    60    46    43    1
    61    46    48    1
    62    95    94    1
    63    57    58    1
    64   103   101    1
    65    87    85    1
    66    94    93    1
    67    86    84    1
    68    69    71   am
    69    69    68    1
    70    59    58    1
    71    59    64   am
    72   101   100    1
    73   105   106    1
    74   105   104    1
    75   107   106    2
    76    93    92    1
    77    58    61    1
    78   102   100    1
    79    92    89    1
    80    65    64    1
    81    65    68    1
    82    65    66    1
    83    85    84    1
    84    84    81    1
    85    75    74    2
    86    62    61    1
    87   100    97    1
    88    61    63    1
    89    66    72   am
    90    66    67    2
    91    72    73    1
    92    74    73    1
    93    97    96    1
    94    97    98    1
    95    89    90    1
    96    89    88    1
    97    91    90    2
    98    83    82    2
    99    81    82    1
   100    81    80    1
   101    76    73    1
   102    76    77    1
   103    99    98    2
   104    78    77    1
   105    78    79    1
