@<TRIPOS>MOLECULE
tmp/5ax1A01.pdb
 109 103 0 0 0
SMALL
GASTEIGER

@<TRIPOS>ATOM
      1  N          6.8910   51.3250   15.4650 N.3    53  ILE53      -0.1245
      2  CA         5.9350   52.0770   16.2770 C.3    53  ILE53       0.1561
      3  C          6.6350   53.2250   17.0110 C.2    53  ILE53       0.2260
      4  O          6.1340   54.3570   17.0400 O.2    53  ILE53      -0.2867
      5  CB         5.2170   51.1570   17.2930 C.3    53  ILE53       0.0252
      6  CG1        4.2870   50.1920   16.5550 C.3    53  ILE53       0.0019
      7  CG2        4.4190   51.9820   18.3130 C.3    53  ILE53       0.0019
      8  CD1        3.9120   48.9570   17.3760 C.3    53  ILE53       0.0001
      9  N          7.4990   56.0310   14.6040 N.3    56  THR56      -0.1203
     10  CA         6.2770   56.7540   14.2650 C.3    56  THR56       0.1994
     11  C          5.8930   57.7530   15.3700 C.2    56  THR56       0.2617
     12  O          5.5450   58.9010   15.0990 O.2    56  THR56      -0.2717
     13  CB         5.1200   55.7780   14.0310 C.3    56  THR56       0.1784
     14  OG1        5.4670   54.8740   12.9630 O.3    56  THR56      -0.2211
     15  CG2        3.8520   56.5310   13.6610 C.3    56  THR56       0.0376
     16  N          5.9700   57.3010   16.6130 N.am   57  ALA57      -0.1979
     17  CA         5.6590   58.1490   17.7640 C.3    57  ALA57       0.1597
     18  C          6.6300   59.3230   17.9040 C.2    57  ALA57       0.2287
     19  O          6.2230   60.4490   18.2240 O.2    57  ALA57      -0.2864
     20  CB         5.6580   57.3120   19.0380 C.3    57  ALA57       0.0319
     21  N          5.9310   61.9550   15.3310 N.3    60  ALA60      -0.1231
     22  CA         4.7730   62.7430   15.7400 C.3    60  ALA60       0.1694
     23  C          5.1480   63.7820   16.7970 C.2    60  ALA60       0.2591
     24  O          4.7530   64.9490   16.7070 O.2    60  ALA60      -0.2718
     25  CB         3.6670   61.8250   16.2650 C.3    60  ALA60       0.0304
     26  N          5.9120   63.3580   17.7950 N.am   61  MET61      -0.1979
     27  CA         6.3380   64.2700   18.8500 C.3    61  MET61       0.1605
     28  C          7.2470   65.3920   18.3290 C.2    61  MET61       0.2287
     29  O          7.1300   66.5470   18.7550 O.2    61  MET61      -0.2864
     30  CB         7.0290   63.4820   19.9610 C.3    61  MET61       0.0413
     31  CG         6.0290   62.6460   20.7720 C.3    61  MET61       0.0598
     32  SD         6.7030   61.7920   22.2070 S.3    61  MET61      -0.1393
     33  CE         7.7560   60.5580   21.4300 C.3    61  MET61       0.0692
     34  N          5.1160   67.9060   16.1100 N.3    64  ASN64      -0.1240
     35  CA         4.0420   68.6170   16.8120 C.3    64  ASN64       0.1653
     36  C          4.4220   69.2550   18.1530 C.2    64  ASN64       0.2266
     37  O          3.6870   70.1030   18.6570 O.2    64  ASN64      -0.2867
     38  CB         2.8670   67.6650   17.0600 C.3    64  ASN64       0.1155
     39  CG         2.1880   67.2280   15.7820 C.2    64  ASN64       0.2627
     40  OD1        1.8610   68.0490   14.9240 O.2    64  ASN64      -0.2716
     41  ND2        1.9890   65.9210   15.6370 N.am   64  ASN64      -0.0877
     42  N          4.1860   72.9700   19.0840 N.3    67  ASP67      -0.1239
     43  CA         2.8740   73.6050   19.2230 C.3    67  ASP67       0.1674
     44  C          2.5960   74.0090   20.6790 C.2    67  ASP67       0.2266
     45  O          1.7570   74.8780   20.9300 O.2    67  ASP67      -0.2867
     46  CB         1.7620   72.6810   18.7270 C.3    67  ASP67       0.1410
     47  CG         1.7990   72.4640   17.2210 C.2    67  ASP67       0.3668
     48  OD1        2.6060   73.1230   16.5290 O.co2  67  ASP67      -0.2456
     49  OD2        1.0050   71.6310   16.7320 O.co2  67  ASP67      -0.2456
     50  N          1.1210   72.4120   23.0540 N.3    69  LYS69      -0.1231
     51  CA        -0.2310   72.0000   23.4060 C.3    69  LYS69       0.1678
     52  C         -0.2490   70.4800   23.3010 C.2    69  LYS69       0.2434
     53  O          0.5510   69.9130   22.5670 O.2    69  LYS69      -0.2733
     54  CB        -1.2820   72.6120   22.4630 C.3    69  LYS69       0.0284
     55  CG        -1.4060   74.1320   22.4880 C.3    69  LYS69       0.0035
     56  CD        -2.0620   74.6170   23.7880 C.3    69  LYS69       0.0206
     57  CE        -2.8760   75.8820   23.5320 C.3    69  LYS69       0.1093
     58  NZ        -3.5450   76.4120   24.7530 N.3    69  LYS69      -0.1314
     59  N         -1.1370   69.8050   24.0430 N.am   70  PRO70      -0.2729
     60  CA        -2.0460   70.3360   25.0630 C.3    70  PRO70       0.1401
     61  C         -1.3030   70.6160   26.3590 C.2    70  PRO70       0.2269
     62  O         -0.1250   70.2910   26.4530 O.2    70  PRO70      -0.2865
     63  CB        -3.0500   69.1980   25.2560 C.3    70  PRO70       0.0296
     64  CG        -2.2460   67.9790   25.0100 C.3    70  PRO70       0.0237
     65  CD        -1.3020   68.3480   23.8770 C.3    70  PRO70       0.0939
     66  N          1.5720   63.3760   25.0790 N.3    83  TYR83      -0.1227
     67  CA         0.8480   62.1220   25.3100 C.3    83  TYR83       0.1736
     68  C          1.0940   61.0500   24.2410 C.2    83  TYR83       0.2595
     69  O          0.6650   59.9080   24.4010 O.2    83  TYR83      -0.2718
     70  CB        -0.6540   62.3970   25.4250 C.3    83  TYR83       0.0548
     71  CG        -1.2790   62.9490   24.1650 C.ar   83  TYR83      -0.0200
     72  CD1       -1.3750   64.3220   23.9520 C.ar   83  TYR83      -0.0009
     73  CD2       -1.7770   62.0950   23.1840 C.ar   83  TYR83      -0.0009
     74  CE1       -1.9470   64.8270   22.7950 C.ar   83  TYR83       0.0417
     75  CE2       -2.3450   62.5890   22.0310 C.ar   83  TYR83       0.0417
     76  CZ        -2.4320   63.9520   21.8390 C.ar   83  TYR83       0.1957
     77  OH        -3.0020   64.4320   20.6830 O.3    83  TYR83      -0.2866
     78  N          1.7750   61.4040   23.1530 N.am   84  ALA84      -0.1980
     79  CA         2.0530   60.4130   22.1090 C.3    84  ALA84       0.1597
     80  C          2.8660   59.2480   22.6530 C.2    84  ALA84       0.2287
     81  O          2.6880   58.1020   22.2270 O.2    84  ALA84      -0.2864
     82  CB         2.7780   61.0570   20.9340 C.3    84  ALA84       0.0319
     83  N          0.7740   56.3310   23.7140 N.3    87  ILE87      -0.1231
     84  CA         0.2020   55.5730   22.6060 C.3    87  ILE87       0.1692
     85  C          1.2510   54.5930   22.0620 C.2    87  ILE87       0.2592
     86  O          0.9400   53.4400   21.7620 O.2    87  ILE87      -0.2718
     87  CB        -0.3130   56.5070   21.4940 C.3    87  ILE87       0.0266
     88  CG1       -1.2930   57.5250   22.0900 C.3    87  ILE87       0.0019
     89  CG2       -0.9930   55.7060   20.4050 C.3    87  ILE87       0.0020
     90  CD1       -1.7720   58.5880   21.1100 C.3    87  ILE87       0.0001
     91  N          2.4910   55.0620   21.9480 N.am   88  ASP88      -0.1974
     92  CA         3.6480   54.1970   21.7090 C.3    88  ASP88       0.1709
     93  C          3.6340   53.0300   22.7130 C.2    88  ASP88       0.2293
     94  O          3.5410   51.8600   22.3330 O.2    88  ASP88      -0.2864
     95  CB         4.9320   55.0470   21.8200 C.3    88  ASP88       0.1436
     96  CG         6.2390   54.2430   21.7370 C.2    88  ASP88       0.3671
     97  OD1        6.3120   53.0620   22.1460 O.co2  88  ASP88      -0.2456
     98  OD2        7.2440   54.8510   21.2970 O.co2  88  ASP88      -0.2456
     99  N          1.2930   49.8410   22.8770 N.3    91  PHE91      -0.1241
    100  CA         1.5820   48.7890   21.9100 C.3    91  PHE91       0.1605
    101  C          2.9720   48.1750   22.0880 C.2    91  PHE91       0.2264
    102  O          3.1380   46.9670   21.9240 O.2    91  PHE91      -0.2867
    103  CB         1.4360   49.3220   20.4800 C.3    91  PHE91       0.0534
    104  CG         0.0410   49.7340   20.1410 C.ar   91  PHE91      -0.0203
    105  CD1       -0.9330   48.7820   19.9030 C.ar   91  PHE91      -0.0042
    106  CD2       -0.3060   51.0750   20.0760 C.ar   91  PHE91      -0.0042
    107  CE1       -2.2320   49.1570   19.5970 C.ar   91  PHE91      -0.0003
    108  CE2       -1.5970   51.4550   19.7730 C.ar   91  PHE91      -0.0003
    109  CZ        -2.5620   50.4970   19.5320 C.ar   91  PHE91      -0.0000
@<TRIPOS>BOND
     1    14    13    1
     2    15    13    1
     3    13    10    1
     4    10     9    1
     5    10    11    1
     6    40    39    2
     7    12    11    2
     8    21    22    1
     9    11    16   am
    10     1     2    1
    11    41    39   am
    12    22    25    1
    13    22    23    1
    14    39    38    1
    15    34    35    1
    16     2     3    1
    17     2     5    1
    18    48    47   ar
    19     6     5    1
    20     6     8    1
    21    16    17    1
    22    24    23    2
    23    49    47   ar
    24    23    26   am
    25    35    38    1
    26    35    36    1
    27     3     4    2
    28    47    46    1
    29     5     7    1
    30    17    18    1
    31    17    20    1
    32    26    27    1
    33    18    19    2
    34    36    37    2
    35    28    29    2
    36    28    27    1
    37    46    43    1
    38    27    30    1
    39    42    43    1
    40    43    44    1
    41   109   107   ar
    42   109   108   ar
    43   107   105   ar
    44   108   106   ar
    45   105   104   ar
    46    30    31    1
    47   106   104   ar
    48   104   103    1
    49    89    87    1
    50   103   100    1
    51    44    45    2
    52    77    76    1
    53    31    32    1
    54    82    79    1
    55    90    88    1
    56    98    96   ar
    57    33    32    1
    58    87    88    1
    59    87    84    1
    60    92    95    1
    61    92    91    1
    62    92    93    1
    63    96    95    1
    64    96    97   ar
    65    86    85    2
    66    76    75   ar
    67    76    74   ar
    68   100   101    1
    69   100    99    1
    70   102   101    2
    71    91    85   am
    72    75    73   ar
    73    85    84    1
    74    79    80    1
    75    79    78    1
    76    81    80    2
    77    94    93    2
    78    54    55    1
    79    54    51    1
    80    55    56    1
    81    53    52    2
    82    84    83    1
    83    74    72   ar
    84    50    51    1
    85    78    68   am
    86    73    71   ar
    87    52    51    1
    88    52    59   am
    89    57    56    1
    90    57    58    1
    91    65    59    1
    92    65    64    1
    93    72    71   ar
    94    59    60    1
    95    71    70    1
    96    68    69    2
    97    68    67    1
    98    64    63    1
    99    60    63    1
   100    60    61    1
   101    66    67    1
   102    67    70    1
   103    61    62    2
