@<TRIPOS>MOLECULE
tmp/5ax1A00.pdb
 177 174 0 0 0
SMALL
GASTEIGER

@<TRIPOS>ATOM
      1  N          2.5610   57.6580   25.3640 N.3    86  TYR86      -0.1241
      2  CA         1.6980   56.6130   25.9460 C.3    86  TYR86       0.1605
      3  C          1.0550   55.7400   24.8710 C.2    86  TYR86       0.2264
      4  O          0.8140   54.5450   25.0880 O.2    86  TYR86      -0.2867
      5  CB         0.6000   57.2290   26.8270 C.3    86  TYR86       0.0534
      6  CG         1.1420   58.0700   27.9540 C.ar   86  TYR86      -0.0201
      7  CD1        1.2130   59.4540   27.8370 C.ar   86  TYR86      -0.0009
      8  CD2        1.6020   57.4840   29.1330 C.ar   86  TYR86      -0.0009
      9  CE1        1.7190   60.2310   28.8540 C.ar   86  TYR86       0.0417
     10  CE2        2.1150   58.2590   30.1620 C.ar   86  TYR86       0.0417
     11  CZ         2.1740   59.6320   30.0110 C.ar   86  TYR86       0.1957
     12  OH         2.6740   60.4170   31.0190 O.3    86  TYR86      -0.2866
     13  N          3.6980   53.3620   23.9950 N.3    89  TRP89      -0.1241
     14  CA         3.9170   52.3540   25.0410 C.3    89  TRP89       0.1605
     15  C          2.8170   51.2990   25.1380 C.2    89  TRP89       0.2264
     16  O          3.0970   50.1440   25.4800 O.2    89  TRP89      -0.2867
     17  CB         4.0700   53.0280   26.4100 C.3    89  TRP89       0.0550
     18  CG         5.1880   54.0310   26.5170 C.ar   89  TRP89       0.0003
     19  CD1        6.2180   54.2380   25.6310 C.ar   89  TRP89       0.0946
     20  CD2        5.3790   54.9700   27.5780 C.ar   89  TRP89       0.0152
     21  NE1        7.0320   55.2460   26.0830 N.ar   89  TRP89      -0.2442
     22  CE2        6.5430   55.7090   27.2790 C.ar   89  TRP89       0.0810
     23  CE3        4.6840   55.2480   28.7610 C.ar   89  TRP89       0.0012
     24  CZ2        7.0240   56.7150   28.1160 C.ar   89  TRP89       0.0191
     25  CZ3        5.1560   56.2610   29.5900 C.ar   89  TRP89       0.0001
     26  CH2        6.3180   56.9740   29.2670 C.ar   89  TRP89       0.0015
     27  N          3.9750   48.9860   22.4140 N.3    92  THR92      -0.1203
     28  CA         5.3310   48.4480   22.4170 C.3    92  THR92       0.1994
     29  C          5.6800   47.6900   23.6970 C.2    92  THR92       0.2618
     30  O          6.4280   46.7120   23.6400 O.2    92  THR92      -0.2717
     31  CB         6.3910   49.5490   22.1710 C.3    92  THR92       0.1784
     32  OG1        6.2840   50.5760   23.1620 O.3    92  THR92      -0.2211
     33  CG2        6.2220   50.1550   20.7780 C.3    92  THR92       0.0376
     34  N          5.1630   48.1090   24.8520 N.am   93  THR93      -0.1952
     35  CA         5.5610   47.4100   26.0730 C.3    93  THR93       0.1897
     36  C          5.0130   45.9620   26.1040 C.2    93  THR93       0.2313
     37  O          5.7250   45.0630   26.5470 O.2    93  THR93      -0.2863
     38  CB         5.1920   48.2170   27.3900 C.3    93  THR93       0.1794
     39  OG1        3.8030   48.5560   27.4440 O.3    93  THR93      -0.2208
     40  CG2        5.9980   49.5060   27.4440 C.3    93  THR93       0.0378
     41  N          7.5030   44.1470   23.9530 N.3    96  LEU96      -0.1245
     42  CA         8.7930   43.9780   24.6280 C.3    96  LEU96       0.1561
     43  C          8.7340   42.8060   25.6010 C.2    96  LEU96       0.2260
     44  O          9.6930   42.0360   25.7120 O.2    96  LEU96      -0.2867
     45  CB         9.2090   45.2710   25.3490 C.3    96  LEU96       0.0270
     46  CG         9.6580   46.4020   24.4010 C.3    96  LEU96       0.0019
     47  CD1        9.6420   47.7600   25.1110 C.3    96  LEU96       0.0001
     48  CD2       11.0470   46.1250   23.8470 C.3    96  LEU96       0.0001
     49  N         -1.0480   49.7520   33.4750 N.3   121  MET121     -0.1230
     50  CA         0.0310   50.6440   33.8900 C.3   121  MET121      0.1702
     51  C          0.1100   51.8750   32.9750 C.2   121  MET121      0.2592
     52  O          0.1880   53.0170   33.4290 O.2   121  MET121     -0.2718
     53  CB         1.3570   49.8750   33.8800 C.3   121  MET121      0.0401
     54  CG         2.5990   50.6950   34.1740 C.3   121  MET121      0.0596
     55  SD         4.0950   49.6850   34.0840 S.3   121  MET121     -0.1393
     56  CE         4.3050   49.5170   32.2990 C.3   121  MET121      0.0692
     57  N          0.0730   51.6320   31.6730 N.am  122  ILE122     -0.1980
     58  CA         0.1570   52.7310   30.7250 C.3   122  ILE122      0.1595
     59  C         -1.0900   53.6120   30.8210 C.2   122  ILE122      0.2287
     60  O         -0.9990   54.8410   30.7700 O.2   122  ILE122     -0.2864
     61  CB         0.3290   52.2050   29.2840 C.3   122  ILE122      0.0276
     62  CG1        1.5280   51.2540   29.2190 C.3   122  ILE122      0.0022
     63  CG2        0.5040   53.3690   28.3100 C.3   122  ILE122      0.0022
     64  CD1        2.8400   51.8900   29.6740 C.3   122  ILE122      0.0001
     65  N         -3.0560   54.1440   33.4520 N.3   124  PHE124     -0.1227
     66  CA        -2.9880   54.9900   34.6390 C.3   124  PHE124      0.1736
     67  C         -2.0000   56.1370   34.4390 C.2   124  PHE124      0.2596
     68  O         -2.1990   57.2430   34.9520 O.2   124  PHE124     -0.2718
     69  CB        -2.6060   54.1630   35.8650 C.3   124  PHE124      0.0547
     70  CG        -3.7240   53.3060   36.3860 C.ar  124  PHE124     -0.0202
     71  CD1       -4.8460   53.8840   36.9560 C.ar  124  PHE124     -0.0042
     72  CD2       -3.6390   51.9260   36.3370 C.ar  124  PHE124     -0.0042
     73  CE1       -5.8770   53.0990   37.4490 C.ar  124  PHE124     -0.0003
     74  CE2       -4.6670   51.1370   36.8160 C.ar  124  PHE124     -0.0003
     75  CZ        -5.7860   51.7220   37.3720 C.ar  124  PHE124     -0.0000
     76  N         -0.9330   55.8740   33.6930 N.am  125  GLY125     -0.1957
     77  CA         0.0310   56.9130   33.3660 C.3   125  GLY125      0.1869
     78  C         -0.5490   58.0890   32.5890 C.2   125  GLY125      0.2309
     79  O         -0.3230   59.2500   32.9500 O.2   125  GLY125     -0.2863
     80  N         -0.8010   57.2140   39.7260 N.3   140  PHE140     -0.1241
     81  CA         0.6220   56.9130   39.6950 C.3   140  PHE140      0.1605
     82  C          0.9420   55.6810   40.5260 C.2   140  PHE140      0.2264
     83  O          1.6200   54.7630   40.0600 O.2   140  PHE140     -0.2867
     84  CB         1.4340   58.1020   40.2140 C.3   140  PHE140      0.0534
     85  CG         2.9170   57.8670   40.2110 C.ar  140  PHE140     -0.0203
     86  CD1        3.6160   57.7940   39.0060 C.ar  140  PHE140     -0.0042
     87  CD2        3.6170   57.7190   41.4000 C.ar  140  PHE140     -0.0042
     88  CE1        4.9800   57.5930   38.9840 C.ar  140  PHE140     -0.0003
     89  CE2        4.9920   57.5110   41.3890 C.ar  140  PHE140     -0.0003
     90  CZ         5.6750   57.4400   40.1710 C.ar  140  PHE140     -0.0000
     91  N         -0.3740   52.5010   39.0800 N.3   143  GLY143     -0.1210
     92  CA         0.4550   52.1290   37.9490 C.3   143  GLY143      0.1956
     93  C          1.7570   51.4730   38.3770 C.2   143  GLY143      0.2612
     94  O          2.2060   50.4990   37.7630 O.2   143  GLY143     -0.2717
     95  N          2.3700   52.0040   39.4320 N.am  144  CYS144     -0.1970
     96  CA         3.5840   51.4090   39.9930 C.3   144  CYS144      0.1712
     97  C          3.3590   49.9930   40.5170 C.2   144  CYS144      0.2296
     98  O          4.2240   49.1280   40.3570 O.2   144  CYS144     -0.2864
     99  CB         4.1430   52.2800   41.1180 C.3   144  CYS144      0.0983
    100  SG         4.8540   53.8520   40.5470 S.3   144  CYS144     -0.0798
    101  N          3.3210   47.7250   37.6080 N.3   147  LEU147     -0.1245
    102  CA         4.6840   47.3830   37.1770 C.3   147  LEU147      0.1561
    103  C          5.2390   46.2450   38.0480 C.2   147  LEU147      0.2260
    104  O          5.8990   45.3220   37.5530 O.2   147  LEU147     -0.2867
    105  CB         5.6040   48.6110   37.2420 C.3   147  LEU147      0.0270
    106  CG         7.0790   48.4340   36.8680 C.3   147  LEU147      0.0019
    107  CD1        7.2230   47.7420   35.5110 C.3   147  LEU147      0.0001
    108  CD2        7.8100   49.8020   36.8630 C.3   147  LEU147      0.0001
    109  N         12.8830   49.8130   33.0880 N.3   184  TRP184     -0.1241
    110  CA        11.4710   50.1770   33.1910 C.3   184  TRP184      0.1605
    111  C         11.1540   50.9120   34.4880 C.2   184  TRP184      0.2264
    112  O         10.2690   51.7540   34.5040 O.2   184  TRP184     -0.2867
    113  CB        10.5710   48.9410   33.0700 C.3   184  TRP184      0.0550
    114  CG        10.4530   48.4100   31.6270 C.ar  184  TRP184      0.0003
    115  CD1       11.3900   48.4810   30.6420 C.ar  184  TRP184      0.0946
    116  CD2        9.3120   47.7550   31.0530 C.ar  184  TRP184      0.0152
    117  NE1       10.9150   47.8920   29.4850 N.ar  184  TRP184     -0.2442
    118  CE2        9.6430   47.4280   29.7210 C.ar  184  TRP184      0.0810
    119  CE3        8.0540   47.3780   31.5550 C.ar  184  TRP184      0.0012
    120  CZ2        8.7440   46.7820   28.8590 C.ar  184  TRP184      0.0191
    121  CZ3        7.1600   46.7300   30.7030 C.ar  184  TRP184      0.0001
    122  CH2        7.5190   46.4240   29.3730 C.ar  184  TRP184      0.0015
    123  N         11.3230   54.7830   34.2960 N.3   187  TYR187     -0.1228
    124  CA        10.2430   55.5650   33.6710 C.3   187  TYR187      0.1721
    125  C          9.3200   56.2500   34.6960 C.2   187  TYR187      0.2437
    126  O          9.0740   57.4530   34.5510 O.2   187  TYR187     -0.2733
    127  CB         9.4090   54.7110   32.7110 C.3   187  TYR187      0.0547
    128  CG        10.0970   54.4100   31.3930 C.ar  187  TYR187     -0.0200
    129  CD1       11.0230   53.3760   31.2900 C.ar  187  TYR187     -0.0009
    130  CD2        9.8240   55.1640   30.2510 C.ar  187  TYR187     -0.0009
    131  CE1       11.6620   53.0910   30.0720 C.ar  187  TYR187      0.0417
    132  CE2       10.4620   54.8870   29.0360 C.ar  187  TYR187      0.0417
    133  CZ        11.3730   53.8420   28.9610 C.ar  187  TYR187      0.1957
    134  OH        11.9970   53.5600   27.7590 O.3   187  TYR187     -0.2866
    135  N          8.8110   55.5140   35.7180 N.am  188  PRO188     -0.2729
    136  CA         7.9940   56.2180   36.7290 C.3   188  PRO188      0.1401
    137  C          8.7580   57.2690   37.5410 C.2   188  PRO188      0.2269
    138  O          8.1500   58.2280   38.0280 O.2   188  PRO188     -0.2865
    139  CB         7.4960   55.0830   37.6530 C.3   188  PRO188      0.0296
    140  CG         8.4120   53.9090   37.3730 C.3   188  PRO188      0.0237
    141  CD         8.7770   54.0490   35.9210 C.3   188  PRO188      0.0939
    142  N          8.5860   60.2420   35.2840 N.3   191  TRP191     -0.1241
    143  CA         7.2010   60.7280   35.2990 C.3   191  TRP191      0.1605
    144  C          6.9050   61.4720   36.6080 C.2   191  TRP191      0.2264
    145  O          6.3200   62.5560   36.6080 O.2   191  TRP191     -0.2867
    146  CB         6.2300   59.5520   35.1240 C.3   191  TRP191      0.0550
    147  CG         4.7620   59.9110   34.8830 C.ar  191  TRP191      0.0003
    148  CD1        4.1070   59.8800   33.6820 C.ar  191  TRP191      0.0946
    149  CD2        3.7830   60.3190   35.8580 C.ar  191  TRP191      0.0152
    150  NE1        2.7900   60.2360   33.8480 N.ar  191  TRP191     -0.2442
    151  CE2        2.5660   60.5170   35.1710 C.ar  191  TRP191      0.0810
    152  CE3        3.8150   60.5350   37.2430 C.ar  191  TRP191      0.0012
    153  CZ2        1.3980   60.9230   35.8170 C.ar  191  TRP191      0.0191
    154  CZ3        2.6570   60.9400   37.8830 C.ar  191  TRP191      0.0001
    155  CH2        1.4610   61.1260   37.1730 C.ar  191  TRP191      0.0015
    156  N         14.4650   54.9840   26.0250 N.3   213  ASP213     -0.1239
    157  CA        13.8160   54.3160   24.8990 C.3   213  ASP213      0.1674
    158  C         14.8500   53.6360   24.0010 C.2   213  ASP213      0.2266
    159  O         14.6040   52.5440   23.4890 O.2   213  ASP213     -0.2867
    160  CB        12.9780   55.3010   24.0580 C.3   213  ASP213      0.1410
    161  CG        11.6180   55.6400   24.6910 C.2   213  ASP213      0.3668
    162  OD1       11.1630   54.9430   25.6330 O.co2 213  ASP213     -0.2456
    163  OD2       10.9830   56.6170   24.2170 O.co2 213  ASP213     -0.2456
    164  N         15.9390   50.6220   25.8930 N.3   216  ALA216     -0.1231
    165  CA        14.8710   49.6520   26.1330 C.3   216  ALA216      0.1694
    166  C         14.3010   49.0440   24.8600 C.2   216  ALA216      0.2591
    167  O         13.5800   48.0460   24.9380 O.2   216  ALA216     -0.2718
    168  CB        13.7410   50.2910   26.9370 C.3   216  ALA216      0.0304
    169  N         14.5910   49.6430   23.7020 N.am  217  LYS217     -0.1980
    170  CA        14.0280   49.1240   22.4550 C.3   217  LYS217      0.1596
    171  C         15.1330   48.6010   21.5070 C.2   217  LYS217      0.2287
    172  O         15.3600   47.3840   21.4950 O.2   217  LYS217     -0.2864
    173  CB        13.1120   50.1740   21.7930 C.3   217  LYS217      0.0298
    174  CG        11.8170   50.4340   22.5700 C.3   217  LYS217      0.0038
    175  CD        10.8820   51.3740   21.8280 C.3   217  LYS217      0.0206
    176  CE         9.5150   51.4450   22.4990 C.3   217  LYS217      0.1093
    177  NZ         9.5500   52.1670   23.8120 N.3   217  LYS217     -0.1314
@<TRIPOS>BOND
     1    33    31    1
     2   172   171    2
     3   171   170    1
     4   173   170    1
     5   173   174    1
     6   175   176    1
     7   175   174    1
     8    31    28    1
     9    31    32    1
    10    27    28    1
    11    28    29    1
    12   170   169    1
    13   176   177    1
    14   159   158    2
    15    30    29    2
    16    29    34   am
    17   169   166   am
    18    48    46    1
    19    41    42    1
    20    13    14    1
    21   158   157    1
    22   160   161    1
    23   160   157    1
    24   163   161   ar
    25    46    47    1
    26    46    45    1
    27    42    45    1
    28    42    43    1
    29   161   162   ar
    30    34    35    1
    31   166   167    2
    32   166   165    1
    33     3     4    2
    34     3     2    1
    35   157   156    1
    36    14    15    1
    37    14    17    1
    38    15    16    2
    39     1     2    1
    40    43    44    2
    41    19    21   ar
    42    19    18   ar
    43   164   165    1
    44     2     5    1
    45    35    36    1
    46    35    38    1
    47    21    22   ar
    48    36    37    2
    49   165   168    1
    50    17    18    1
    51    18    20   ar
    52     5     6    1
    53    22    20   ar
    54    22    24   ar
    55    38    40    1
    56    38    39    1
    57    20    23   ar
    58   134   133    1
    59     7     6   ar
    60     7     9   ar
    61     6     8   ar
    62    24    26   ar
    63    63    61    1
    64    23    25   ar
    65     9    11   ar
    66   120   122   ar
    67   120   118   ar
    68   133   132   ar
    69   133   131   ar
    70   132   130   ar
    71     8    10   ar
    72    62    61    1
    73    62    64    1
    74    26    25   ar
    75    61    58    1
    76   122   121   ar
    77   117   118   ar
    78   117   115   ar
    79   118   116   ar
    80    11    10   ar
    81    11    12    1
    82   131   129   ar
    83   130   128   ar
    84   115   114   ar
    85   121   119   ar
    86    58    59    1
    87    58    57    1
    88    60    59    2
    89   116   119   ar
    90   116   114   ar
    91   129   128   ar
    92   128   127    1
    93   114   113    1
    94    57    51   am
    95    56    55    1
    96    78    79    2
    97    78    77    1
    98   127   124    1
    99    51    52    2
   100    51    50    1
   101   113   110    1
   102   109   110    1
   103   110   111    1
   104    77    76    1
   105    65    66    1
   106    49    50    1
   107   124   123    1
   108   124   125    1
   109   148   150   ar
   110   148   147   ar
   111    76    67   am
   112   150   151   ar
   113    53    50    1
   114    53    54    1
   115    55    54    1
   116    67    66    1
   117    67    68    2
   118   111   112    2
   119   126   125    2
   120    66    69    1
   121   125   135   am
   122   147   146    1
   123   147   149   ar
   124   146   143    1
   125   151   153   ar
   126   151   149   ar
   127   142   143    1
   128   143   144    1
   129   107   106    1
   130   135   141    1
   131   135   136    1
   132   153   155   ar
   133   149   152   ar
   134    69    70    1
   135   141   140    1
   136    72    70   ar
   137    72    74   ar
   138    70    71   ar
   139   145   144    2
   140   136   137    1
   141   136   139    1
   142    74    75   ar
   143   108   106    1
   144   106   105    1
   145    71    73   ar
   146   155   154   ar
   147   102   105    1
   148   102   101    1
   149   102   103    1
   150   152   154   ar
   151    75    73   ar
   152   140   139    1
   153   137   138    2
   154   104   103    2
   155    94    93    2
   156    92    93    1
   157    92    91    1
   158    93    95   am
   159    88    86   ar
   160    88    90   ar
   161    86    85   ar
   162    95    96    1
   163    81    80    1
   164    81    84    1
   165    81    82    1
   166    96    97    1
   167    96    99    1
   168    83    82    2
   169    90    89   ar
   170    85    84    1
   171    85    87   ar
   172    98    97    2
   173   100    99    1
   174    89    87   ar
