@<TRIPOS>MOLECULE
tmp/5ax1A06.pdb
 103 96 0 0 0
SMALL
GASTEIGER

@<TRIPOS>ATOM
      1  N         -1.7460   61.2330   41.9800 N.3   137  TRP137     -0.1241
      2  CA        -0.8100   60.3100   42.6150 C.3   137  TRP137      0.1605
      3  C         -1.4550   58.9620   42.9180 C.2   137  TRP137      0.2264
      4  O         -0.7650   57.9560   43.0990 O.2   137  TRP137     -0.2867
      5  CB        -0.2320   60.9580   43.8790 C.3   137  TRP137      0.0550
      6  CG         0.5850   62.1630   43.5310 C.ar  137  TRP137      0.0003
      7  CD1        0.2760   63.4700   43.7860 C.ar  137  TRP137      0.0946
      8  CD2        1.8250   62.1780   42.8010 C.ar  137  TRP137      0.0152
      9  NE1        1.2590   64.2990   43.2760 N.ar  137  TRP137     -0.2442
     10  CE2        2.2200   63.5270   42.6720 C.ar  137  TRP137      0.0810
     11  CE3        2.6480   61.1810   42.2630 C.ar  137  TRP137      0.0012
     12  CZ2        3.4020   63.9010   42.0320 C.ar  137  TRP137      0.0191
     13  CZ3        3.8190   61.5560   41.6280 C.ar  137  TRP137      0.0001
     14  CH2        4.1810   62.9050   41.5070 C.ar  137  TRP137      0.0015
     15  N         -0.8010   57.2140   39.7260 N.3   140  PHE140     -0.1241
     16  CA         0.6220   56.9130   39.6950 C.3   140  PHE140      0.1605
     17  C          0.9420   55.6810   40.5260 C.2   140  PHE140      0.2264
     18  O          1.6200   54.7630   40.0600 O.2   140  PHE140     -0.2867
     19  CB         1.4340   58.1020   40.2140 C.3   140  PHE140      0.0534
     20  CG         2.9170   57.8670   40.2110 C.ar  140  PHE140     -0.0203
     21  CD1        3.6160   57.7940   39.0060 C.ar  140  PHE140     -0.0042
     22  CD2        3.6170   57.7190   41.4000 C.ar  140  PHE140     -0.0042
     23  CE1        4.9800   57.5930   38.9840 C.ar  140  PHE140     -0.0003
     24  CE2        4.9920   57.5110   41.3890 C.ar  140  PHE140     -0.0003
     25  CZ         5.6750   57.4400   40.1710 C.ar  140  PHE140     -0.0000
     26  N          2.3700   52.0040   39.4320 N.3   144  CYS144     -0.1235
     27  CA         3.5840   51.4090   39.9930 C.3   144  CYS144      0.1677
     28  C          3.3590   49.9930   40.5170 C.2   144  CYS144      0.2270
     29  O          4.2240   49.1280   40.3570 O.2   144  CYS144     -0.2867
     30  CB         4.1430   52.2800   41.1180 C.3   144  CYS144      0.0956
     31  SG         4.8540   53.8520   40.5470 S.3   144  CYS144     -0.0801
     32  N          3.3210   47.7250   37.6080 N.3   147  LEU147     -0.1231
     33  CA         4.6840   47.3830   37.1770 C.3   147  LEU147      0.1693
     34  C          5.2390   46.2450   38.0480 C.2   147  LEU147      0.2591
     35  O          5.8990   45.3220   37.5530 O.2   147  LEU147     -0.2718
     36  CB         5.6040   48.6110   37.2420 C.3   147  LEU147      0.0284
     37  CG         7.0790   48.4340   36.8680 C.3   147  LEU147      0.0019
     38  CD1        7.2230   47.7420   35.5110 C.3   147  LEU147      0.0001
     39  CD2        7.8100   49.8020   36.8630 C.3   147  LEU147      0.0001
     40  N          4.9630   46.3050   39.3490 N.am  148  ALA148     -0.1980
     41  CA         5.4010   45.2450   40.2450 C.3   148  ALA148      0.1597
     42  C          4.7190   43.9270   39.8670 C.2   148  ALA148      0.2287
     43  O          5.3590   42.8730   39.8540 O.2   148  ALA148     -0.2864
     44  CB         5.1080   45.6120   41.7200 C.3   148  ALA148      0.0319
     45  N          6.1290   42.5220   36.5650 N.3   151  ALA151     -0.1245
     46  CA         7.4950   42.0590   36.8370 C.3   151  ALA151      0.1562
     47  C          7.4940   40.7200   37.5720 C.2   151  ALA151      0.2260
     48  O          8.2530   39.8110   37.2290 O.2   151  ALA151     -0.2867
     49  CB         8.2730   43.0980   37.6400 C.3   151  ALA151      0.0290
     50  N         13.8080   45.2120   33.6490 N.3   181  ILE181     -0.1245
     51  CA        13.1910   45.7430   34.8650 C.3   181  ILE181      0.1561
     52  C         13.9130   46.9940   35.3640 C.2   181  ILE181      0.2260
     53  O         13.2700   47.9740   35.7800 O.2   181  ILE181     -0.2867
     54  CB        13.1600   44.6800   35.9710 C.3   181  ILE181      0.0252
     55  CG1       12.1790   43.5700   35.5810 C.3   181  ILE181      0.0019
     56  CG2       12.7510   45.3080   37.3100 C.3   181  ILE181      0.0019
     57  CD1       12.2050   42.3650   36.5130 C.3   181  ILE181      0.0001
     58  N         11.8680   50.6010   35.5660 N.3   185  VAL185     -0.1245
     59  CA        11.6440   51.3000   36.8410 C.3   185  VAL185      0.1561
     60  C         12.0330   52.7850   36.7380 C.2   185  VAL185      0.2260
     61  O         11.5120   53.6380   37.4810 O.2   185  VAL185     -0.2867
     62  CB        12.4250   50.6290   38.0030 C.3   185  VAL185      0.0252
     63  CG1       12.4630   51.5250   39.2550 C.3   185  VAL185      0.0019
     64  CG2       11.7980   49.2860   38.3450 C.3   185  VAL185      0.0019
     65  N          8.8110   55.5140   35.7180 N.3   188  PRO188     -0.2102
     66  CA         7.9940   56.2180   36.7290 C.3   188  PRO188      0.1504
     67  C          8.7580   57.2690   37.5410 C.2   188  PRO188      0.2575
     68  O          8.1500   58.2280   38.0280 O.2   188  PRO188     -0.2718
     69  CB         7.4960   55.0830   37.6530 C.3   188  PRO188      0.0282
     70  CG         8.4120   53.9090   37.3730 C.3   188  PRO188      0.0208
     71  CD         8.7770   54.0490   35.9210 C.3   188  PRO188      0.0893
     72  N         10.0660   57.0980   37.7020 N.am  189  ILE189     -0.1980
     73  CA        10.8510   58.1190   38.3750 C.3   189  ILE189      0.1595
     74  C         10.8250   59.4050   37.5510 C.2   189  ILE189      0.2287
     75  O         10.5740   60.4830   38.0790 O.2   189  ILE189     -0.2864
     76  CB        12.3040   57.6750   38.6130 C.3   189  ILE189      0.0276
     77  CG1       12.3310   56.3780   39.4360 C.3   189  ILE189      0.0022
     78  CG2       13.0780   58.7970   39.3170 C.3   189  ILE189      0.0022
     79  CD1       13.7330   55.8390   39.7300 C.3   189  ILE189      0.0001
     80  N          7.3120   60.8800   37.7260 N.3   192  GLY192     -0.1210
     81  CA         7.0830   61.5000   39.0220 C.3   192  GLY192      0.1956
     82  C          7.7190   62.8750   39.1410 C.2   192  GLY192      0.2611
     83  O          7.1380   63.7930   39.7220 O.2   192  GLY192     -0.2717
     84  N          8.9180   63.0190   38.5840 N.am  193  LEU193     -0.1979
     85  CA         9.6390   64.2820   38.6490 C.3   193  LEU193      0.1596
     86  C          9.0720   65.3060   37.6620 C.2   193  LEU193      0.2287
     87  O          9.1290   66.5100   37.9100 O.2   193  LEU193     -0.2864
     88  CB        11.1320   64.0610   38.3830 C.3   193  LEU193      0.0297
     89  CG        11.8850   63.2110   39.4120 C.3   193  LEU193      0.0022
     90  CD1       13.2510   62.7730   38.8830 C.3   193  LEU193      0.0001
     91  CD2       12.0350   63.9630   40.7310 C.3   193  LEU193      0.0001
     92  N          5.2520   65.7630   39.3470 N.3   197  GLY197     -0.1225
     93  CA         5.6580   66.7630   40.3240 C.3   197  GLY197      0.1811
     94  C          6.0280   68.1540   39.8200 C.2   197  GLY197      0.2280
     95  O          6.1300   69.0760   40.6170 O.2   197  GLY197     -0.2866
     96  N          8.8920   69.0490   38.7560 N.3   199  ILE199     -0.1245
     97  CA        10.2060   69.2750   39.3520 C.3   199  ILE199      0.1561
     98  C         11.2900   69.3980   38.2680 C.2   199  ILE199      0.2260
     99  O         12.2980   70.0840   38.4430 O.2   199  ILE199     -0.2867
    100  CB        10.5550   68.1200   40.3240 C.3   199  ILE199      0.0252
    101  CG1        9.4910   68.0400   41.4150 C.3   199  ILE199      0.0019
    102  CG2       11.9350   68.2880   40.9130 C.3   199  ILE199      0.0019
    103  CD1        9.2580   69.3560   42.1080 C.3   199  ILE199      0.0001
@<TRIPOS>BOND
     1    50    51    1
     2    51    52    1
     3    51    54    1
     4    52    53    2
     5    38    37    1
     6    58    59    1
     7    55    54    1
     8    55    57    1
     9    65    71    1
    10    65    66    1
    11    71    70    1
    12    54    56    1
    13    45    46    1
    14    66    67    1
    15    66    69    1
    16    60    59    1
    17    60    61    2
    18    46    47    1
    19    46    49    1
    20    59    62    1
    21    39    37    1
    22    37    36    1
    23    33    36    1
    24    33    32    1
    25    33    34    1
    26    48    47    2
    27    70    69    1
    28    67    72   am
    29    67    68    2
    30    74    75    2
    31    74    73    1
    32    35    34    2
    33    86    87    2
    34    86    85    1
    35    72    73    1
    36    80    81    1
    37    62    64    1
    38    62    63    1
    39    34    40   am
    40    98    99    2
    41    98    97    1
    42    73    76    1
    43    88    85    1
    44    88    89    1
    45    84    85    1
    46    84    82   am
    47    76    78    1
    48    76    77    1
    49    96    97    1
    50    90    89    1
    51    23    21   ar
    52    23    25   ar
    53    21    20   ar
    54    81    82    1
    55    82    83    2
    56    92    93    1
    57    40    41    1
    58    97   100    1
    59    89    91    1
    60    26    27    1
    61    77    79    1
    62    16    15    1
    63    16    19    1
    64    16    17    1
    65    94    93    1
    66    94    95    2
    67    43    42    2
    68    42    41    1
    69    27    28    1
    70    27    30    1
    71    18    17    2
    72    25    24   ar
    73    20    19    1
    74    20    22   ar
    75    41    44    1
    76   100   102    1
    77   100   101    1
    78    29    28    2
    79    31    30    1
    80    24    22   ar
    81   101   103    1
    82    14    13   ar
    83    14    12   ar
    84    13    11   ar
    85     1     2    1
    86    12    10   ar
    87    11     8   ar
    88     2     3    1
    89     2     5    1
    90    10     8   ar
    91    10     9   ar
    92     8     6   ar
    93     3     4    2
    94     9     7   ar
    95     6     7   ar
    96     6     5    1
