@<TRIPOS>MOLECULE
tmp/5ax1A02.pdb
 110 101 0 0 0
SMALL
GASTEIGER

@<TRIPOS>ATOM
      1  N         10.8360   75.3940   33.0630 N.3     4  ASN4       -0.1240
      2  CA        10.8280   75.0210   31.6430 C.3     4  ASN4        0.1653
      3  C          9.6610   74.1100   31.2560 C.2     4  ASN4        0.2266
      4  O          9.8770   72.9820   30.7940 O.2     4  ASN4       -0.2867
      5  CB        12.1590   74.3480   31.3060 C.3     4  ASN4        0.1155
      6  CG        13.3490   75.2080   31.7000 C.2     4  ASN4        0.2627
      7  OD1       13.4300   76.3710   31.3200 O.2     4  ASN4       -0.2716
      8  ND2       14.2610   74.6470   32.4850 N.am    4  ASN4       -0.0877
      9  N         15.3960   72.3090   21.9090 N.3    10  LEU10      -0.1245
     10  CA        16.2140   71.2670   22.5480 C.3    10  LEU10       0.1561
     11  C         15.5000   69.9100   22.5710 C.2    10  LEU10       0.2260
     12  O         16.0700   68.8820   22.1780 O.2    10  LEU10      -0.2867
     13  CB        16.5910   71.6670   23.9770 C.3    10  LEU10       0.0270
     14  CG        17.3670   70.5930   24.7470 C.3    10  LEU10       0.0019
     15  CD1       18.7250   70.3420   24.0980 C.3    10  LEU10       0.0001
     16  CD2       17.5290   70.9670   26.2140 C.3    10  LEU10       0.0001
     17  N         17.7830   43.3990   33.1040 N.3   179  TYR179     -0.1241
     18  CA        18.0590   44.5880   32.3070 C.3   179  TYR179      0.1605
     19  C         16.7680   45.3530   32.0040 C.2   179  TYR179      0.2264
     20  O         16.7010   46.5710   32.1860 O.2   179  TYR179     -0.2867
     21  CB        18.7840   44.1810   31.0170 C.3   179  TYR179      0.0534
     22  CG        19.0380   45.3040   30.0270 C.ar  179  TYR179     -0.0201
     23  CD1       20.1490   46.1340   30.1440 C.ar  179  TYR179     -0.0009
     24  CD2       18.1840   45.5030   28.9490 C.ar  179  TYR179     -0.0009
     25  CE1       20.3810   47.1690   29.1990 C.ar  179  TYR179      0.0417
     26  CE2       18.4090   46.5150   28.0180 C.ar  179  TYR179      0.0417
     27  CZ        19.5000   47.3430   28.1520 C.ar  179  TYR179      0.1957
     28  OH        19.6880   48.3380   27.2060 O.3   179  TYR179     -0.2866
     29  N         15.2430   46.9620   35.3360 N.3   182  VAL182     -0.1231
     30  CA        16.0380   48.1150   35.7660 C.3   182  VAL182      0.1692
     31  C         15.6450   49.3410   34.9460 C.2   182  VAL182      0.2591
     32  O         15.3830   50.4170   35.4950 O.2   182  VAL182     -0.2718
     33  CB        17.5580   47.8570   35.6160 C.3   182  VAL182      0.0266
     34  CG1       18.3470   49.1720   35.6670 C.3   182  VAL182      0.0020
     35  CG2       18.0520   46.8750   36.6670 C.3   182  VAL182      0.0020
     36  N         15.5890   49.1790   33.6270 N.am  183  LEU183     -0.1980
     37  CA        15.2410   50.2990   32.7580 C.3   183  LEU183      0.1596
     38  C         13.8100   50.7610   32.9900 C.2   183  LEU183      0.2287
     39  O         13.5440   51.9610   33.0760 O.2   183  LEU183     -0.2864
     40  CB        15.4250   49.9310   31.2800 C.3   183  LEU183      0.0297
     41  CG        16.8580   49.7630   30.7770 C.3   183  LEU183      0.0022
     42  CD1       16.8700   49.3580   29.2970 C.3   183  LEU183      0.0001
     43  CD2       17.6420   51.0520   30.9860 C.3   183  LEU183      0.0001
     44  N         12.9280   53.1160   35.8110 N.3   186  ILE186     -0.1245
     45  CA        13.3290   54.5190   35.6780 C.3   186  ILE186      0.1561
     46  C         12.1850   55.3750   35.1230 C.2   186  ILE186      0.2260
     47  O         12.0810   56.5660   35.4510 O.2   186  ILE186     -0.2867
     48  CB        14.5710   54.7000   34.7760 C.3   186  ILE186      0.0252
     49  CG1       15.6830   53.7280   35.1790 C.3   186  ILE186      0.0019
     50  CG2       15.0820   56.1510   34.8380 C.3   186  ILE186      0.0019
     51  CD1       16.1290   53.8920   36.5820 C.3   186  ILE186      0.0001
     52  N         11.0690   59.2830   36.2480 N.3   190  VAL190     -0.1245
     53  CA        11.0090   60.4530   35.3750 C.3   190  VAL190      0.1561
     54  C          9.6140   61.0790   35.3790 C.2   190  VAL190      0.2260
     55  O          9.4730   62.3020   35.4640 O.2   190  VAL190     -0.2867
     56  CB        11.4080   60.0870   33.9290 C.3   190  VAL190      0.0252
     57  CG1       11.2890   61.3090   33.0190 C.3   190  VAL190      0.0019
     58  CG2       12.8260   59.5450   33.9170 C.3   190  VAL190      0.0019
     59  N         11.7700   69.5410   28.3390 N.3   203  ASP203     -0.1225
     60  CA        12.9270   69.1190   27.5180 C.3   203  ASP203      0.1805
     61  C         13.7570   68.0620   28.2420 C.2   203  ASP203      0.2597
     62  O         14.2020   67.0890   27.6350 O.2   203  ASP203     -0.2718
     63  CB        13.8300   70.3080   27.1580 C.3   203  ASP203      0.1424
     64  CG        13.1960   71.2520   26.1700 C.2   203  ASP203      0.3668
     65  OD1       12.3360   70.8120   25.3740 O.co2 203  ASP203     -0.2456
     66  OD2       13.5690   72.4480   26.1840 O.co2 203  ASP203     -0.2456
     67  N         13.9540   68.2500   29.5480 N.am  204  VAL204     -0.1980
     68  CA        14.7010   67.2730   30.3440 C.3   204  VAL204      0.1595
     69  C         14.0020   65.9050   30.3750 C.2   204  VAL204      0.2287
     70  O         14.6450   64.8640   30.2230 O.2   204  VAL204     -0.2864
     71  CB        14.9150   67.7740   31.7940 C.3   204  VAL204      0.0276
     72  CG1       15.5000   66.6740   32.6550 C.3   204  VAL204      0.0022
     73  CG2       15.8330   68.9850   31.8050 C.3   204  VAL204      0.0022
     74  N         14.5260   64.2090   26.9800 N.3   207  ILE207     -0.1231
     75  CA        15.8650   63.6550   26.8300 C.3   207  ILE207      0.1692
     76  C         16.0240   62.3790   27.6610 C.2   207  ILE207      0.2591
     77  O         16.5570   61.3780   27.1760 O.2   207  ILE207     -0.2718
     78  CB        16.9250   64.7030   27.2260 C.3   207  ILE207      0.0266
     79  CG1       16.9880   65.8030   26.1550 C.3   207  ILE207      0.0019
     80  CG2       18.2930   64.0700   27.3970 C.3   207  ILE207      0.0020
     81  CD1       17.6930   67.0820   26.6180 C.3   207  ILE207      0.0001
     82  N         15.5480   62.4050   28.9010 N.am  208  ALA208     -0.1980
     83  CA        15.6510   61.2330   29.7750 C.3   208  ALA208      0.1597
     84  C         14.9490   60.0160   29.1750 C.2   208  ALA208      0.2287
     85  O         15.4970   58.9140   29.1540 O.2   208  ALA208     -0.2864
     86  CB        15.0750   61.5430   31.1580 C.3   208  ALA208      0.0319
     87  N         16.7440   58.6080   26.0390 N.3   211  ILE211     -0.1231
     88  CA        17.8390   57.7190   26.4070 C.3   211  ILE211      0.1692
     89  C         17.2910   56.3420   26.8230 C.2   211  ILE211      0.2591
     90  O         17.7500   55.2970   26.3340 O.2   211  ILE211     -0.2718
     91  CB        18.6890   58.3350   27.5420 C.3   211  ILE211      0.0266
     92  CG1       19.4530   59.5680   27.0220 C.3   211  ILE211      0.0019
     93  CG2       19.6780   57.3190   28.1080 C.3   211  ILE211      0.0020
     94  CD1       19.9870   60.4570   28.1450 C.3   211  ILE211      0.0001
     95  N         16.3020   56.3420   27.7080 N.am  212  LEU212     -0.1980
     96  CA        15.6730   55.0900   28.1410 C.3   212  LEU212      0.1596
     97  C         15.1230   54.2960   26.9580 C.2   212  LEU212      0.2287
     98  O         15.3050   53.0800   26.8950 O.2   212  LEU212     -0.2864
     99  CB        14.5550   55.3640   29.1430 C.3   212  LEU212      0.0297
    100  CG        15.0180   55.8510   30.5230 C.3   212  LEU212      0.0022
    101  CD1       13.8330   56.3660   31.3460 C.3   212  LEU212      0.0001
    102  CD2       15.7310   54.7190   31.2750 C.3   212  LEU212      0.0001
    103  N         17.7780   52.5070   24.9760 N.3   215  LEU215     -0.1245
    104  CA        18.2540   51.3530   25.7430 C.3   215  LEU215      0.1561
    105  C         17.2080   50.2360   25.7800 C.2   215  LEU215      0.2260
    106  O         17.5460   49.0470   25.6710 O.2   215  LEU215     -0.2867
    107  CB        18.6330   51.7870   27.1770 C.3   215  LEU215      0.0270
    108  CG        19.8250   52.7470   27.2690 C.3   215  LEU215      0.0019
    109  CD1       19.9730   53.3100   28.6860 C.3   215  LEU215      0.0001
    110  CD2       21.1300   52.0740   26.8270 C.3   215  LEU215      0.0001
@<TRIPOS>BOND
     1     9    10    1
     2    12    11    2
     3    10    11    1
     4    10    13    1
     5    13    14    1
     6    15    14    1
     7    14    16    1
     8   103   104    1
     9    65    64   ar
    10   106   105    2
    11   104   105    1
    12   104   107    1
    13    87    88    1
    14    79    81    1
    15    79    78    1
    16    64    66   ar
    17    64    63    1
    18    90    89    2
    19    88    89    1
    20    88    91    1
    21    89    95   am
    22   110   108    1
    23    75    74    1
    24    75    78    1
    25    75    76    1
    26    98    97    2
    27    97    96    1
    28    92    91    1
    29    92    94    1
    30    63    60    1
    31    77    76    2
    32   107   108    1
    33    28    27    1
    34    78    80    1
    35   108   109    1
    36    60    61    1
    37    60    59    1
    38    91    93    1
    39    62    61    2
    40    76    82   am
    41    95    96    1
    42    26    27   ar
    43    26    24   ar
    44    96    99    1
    45    27    25   ar
    46    61    67   am
    47    82    83    1
    48    24    22   ar
    49    99   100    1
    50    85    84    2
    51    84    83    1
    52    25    23   ar
    53    42    41    1
    54    67    68    1
    55    83    86    1
    56    22    23   ar
    57    22    21    1
    58    70    69    2
    59    68    69    1
    60    68    71    1
    61   100   102    1
    62   100   101    1
    63    41    43    1
    64    41    40    1
    65     4     3    2
    66    21    18    1
    67     3     2    1
    68    40    37    1
    69     5     2    1
    70     5     6    1
    71     7     6    2
    72     2     1    1
    73     6     8   am
    74    71    73    1
    75    71    72    1
    76    19    20    2
    77    19    18    1
    78    18    17    1
    79    37    38    1
    80    37    36    1
    81    38    39    2
    82    57    56    1
    83    36    31   am
    84    58    56    1
    85    56    53    1
    86    48    50    1
    87    48    49    1
    88    48    45    1
    89    31    32    2
    90    31    30    1
    91    46    47    2
    92    46    45    1
    93    49    51    1
    94    29    30    1
    95    53    54    1
    96    53    52    1
    97    54    55    2
    98    33    34    1
    99    33    30    1
   100    33    35    1
   101    45    44    1
