@<TRIPOS>MOLECULE
tmp/5ax3A00.pdb
 132 119 0 0 0
SMALL
GASTEIGER

@<TRIPOS>ATOM
      1  N         20.2210    1.3130  -14.8850 N.3    22  ILE22      -0.1245
      2  CA        20.1410    0.4180  -16.0360 C.3    22  ILE22       0.1561
      3  C         19.1940    0.9770  -17.0920 C.2    22  ILE22       0.2260
      4  O         19.5490    1.0860  -18.2680 O.2    22  ILE22      -0.2867
      5  CB        19.6680   -0.9890  -15.6290 C.3    22  ILE22       0.0252
      6  CG1       20.6250   -1.6000  -14.6030 C.3    22  ILE22       0.0019
      7  CG2       19.5630   -1.8860  -16.8480 C.3    22  ILE22       0.0019
      8  CD1       20.2380   -2.9970  -14.1640 C.3    22  ILE22       0.0001
      9  N         15.1180    0.3970  -17.8780 N.3    24  GLU24      -0.1245
     10  CA        13.7710   -0.1170  -17.6710 C.3    24  GLU24       0.1567
     11  C         13.6140   -1.4730  -18.3420 C.2    24  GLU24       0.2260
     12  O         13.8530   -2.5100  -17.7260 O.2    24  GLU24      -0.2867
     13  CB        12.7340    0.8670  -18.2140 C.3    24  GLU24       0.0388
     14  CG        11.4580    0.9600  -17.4010 C.3    24  GLU24       0.1160
     15  CD        10.9230    2.3750  -17.3590 C.2    24  GLU24       0.3649
     16  OE1        9.7010    2.5500  -17.1740 O.co2  24  GLU24      -0.2457
     17  OE2       11.7310    3.3160  -17.5110 O.co2  24  GLU24      -0.2457
     18  N         14.6520    0.8560  -13.0480 N.3    28  VAL28      -0.1245
     19  CA        15.4560   -0.3260  -12.7590 C.3    28  VAL28       0.1561
     20  C         16.9160    0.0600  -12.5650 C.2    28  VAL28       0.2260
     21  O         17.5030    0.7470  -13.4020 O.2    28  VAL28      -0.2867
     22  CB        15.3450   -1.3770  -13.8820 C.3    28  VAL28       0.0252
     23  CG1       16.3320   -2.5130  -13.6530 C.3    28  VAL28       0.0019
     24  CG2       13.9250   -1.9090  -13.9730 C.3    28  VAL28       0.0019
     25  N         20.0020   -6.6410   -8.8900 N.3    41  ALA41      -0.1245
     26  CA        19.1630   -5.7260   -9.6530 C.3    41  ALA41       0.1562
     27  C         17.9460   -5.3040   -8.8440 C.2    41  ALA41       0.2260
     28  O         17.1410   -6.1410   -8.4330 O.2    41  ALA41      -0.2867
     29  CB        18.7290   -6.3670  -10.9560 C.3    41  ALA41       0.0290
     30  N         14.4920   -2.9020   -8.7720 N.3    43  LYS43      -0.1245
     31  CA        13.5610   -2.1130   -9.5640 C.3    43  LYS43       0.1561
     32  C         12.5670   -1.3760   -8.6730 C.2    43  LYS43       0.2260
     33  O         11.8680   -1.9770   -7.8530 O.2    43  LYS43      -0.2867
     34  CB        12.8280   -2.9950  -10.5820 C.3    43  LYS43       0.0271
     35  CG        12.0310   -4.1480   -9.9960 C.3    43  LYS43       0.0035
     36  CD        11.3770   -4.9670  -11.0990 C.3    43  LYS43       0.0206
     37  CE        10.6380   -4.0720  -12.0810 C.3    43  LYS43       0.1093
     38  NZ         9.6720   -3.1680  -11.3980 N.3    43  LYS43      -0.1314
     39  N          2.6170  -10.3170   -9.8850 N.3    60  GLU60      -0.1245
     40  CA         4.0150  -10.6610  -10.1130 C.3    60  GLU60       0.1567
     41  C          4.7150  -11.0160   -8.8040 C.2    60  GLU60       0.2260
     42  O          5.4960  -11.9660   -8.7510 O.2    60  GLU60      -0.2867
     43  CB         4.7520   -9.5120  -10.8050 C.3    60  GLU60       0.0388
     44  CG         6.0440   -9.9380  -11.4900 C.3    60  GLU60       0.1160
     45  CD         7.0820   -8.8340  -11.5310 C.2    60  GLU60       0.3649
     46  OE1        6.9450   -7.8570  -10.7640 O.co2  60  GLU60      -0.2457
     47  OE2        8.0370   -8.9450  -12.3280 O.co2  60  GLU60      -0.2457
     48  N         13.1150  -16.0130  -13.1420 N.3    73  ILE73      -0.1245
     49  CA        13.6900  -14.9930  -12.2720 C.3    73  ILE73       0.1561
     50  C         13.0540  -15.0740  -10.8840 C.2    73  ILE73       0.2260
     51  O         11.8800  -15.4220  -10.7460 O.2    73  ILE73      -0.2867
     52  CB        13.5090  -13.5730  -12.8670 C.3    73  ILE73       0.0252
     53  CG1       14.5570  -12.6070  -12.3070 C.3    73  ILE73       0.0019
     54  CG2       12.0840  -13.0560  -12.6570 C.3    73  ILE73       0.0019
     55  CD1       15.9730  -12.9160  -12.7480 C.3    73  ILE73       0.0001
     56  N         16.1450   -8.3690   -7.2270 N.3    94  GLN94      -0.1231
     57  CA        16.3590   -9.6450   -7.9020 C.3    94  GLN94       0.1698
     58  C         17.8160   -9.7630   -8.3520 C.2    94  GLN94       0.2592
     59  O         18.5090   -8.7520   -8.4840 O.2    94  GLN94      -0.2718
     60  CB        15.4040   -9.7780   -9.0910 C.3    94  GLN94       0.0381
     61  CG        13.9580   -9.4320   -8.7480 C.3    94  GLN94       0.0905
     62  CD        13.0380   -9.4850   -9.9510 C.2    94  GLN94       0.2608
     63  OE1       12.9050  -10.5200  -10.6010 O.2    94  GLN94      -0.2717
     64  NE2       12.4050   -8.3610  -10.2580 N.am   94  GLN94      -0.0878
     65  N         18.2800  -10.9910   -8.5820 N.am   95  ASP95      -0.1960
     66  CA        19.6770  -11.2080   -8.9590 C.3    95  ASP95       0.1840
     67  C         19.9850  -10.5750  -10.3130 C.2    95  ASP95       0.2622
     68  O         19.1140  -10.4780  -11.1790 O.2    95  ASP95      -0.2715
     69  CB        20.0220  -12.7040   -8.9750 C.3    95  ASP95       0.1450
     70  CG        18.9580  -13.5510   -9.6460 C.2    95  ASP95       0.3671
     71  OD1       18.2720  -13.0480  -10.5560 O.co2  95  ASP95      -0.2456
     72  OD2       18.8110  -14.7310   -9.2660 O.co2  95  ASP95      -0.2456
     73  N         21.2290  -10.1360  -10.4810 N.am   96  LEU96      -0.1963
     74  CA        21.6270   -9.3760  -11.6610 C.3    96  LEU96       0.1728
     75  C         21.8690  -10.2770  -12.8710 C.2    96  LEU96       0.2616
     76  O         22.3560  -11.3980  -12.7410 O.2    96  LEU96      -0.2715
     77  CB        22.8830   -8.5550  -11.3530 C.3    96  LEU96       0.0311
     78  CG        23.2600   -7.4310  -12.3210 C.3    96  LEU96       0.0022
     79  CD1       22.1550   -6.3900  -12.3960 C.3    96  LEU96       0.0001
     80  CD2       24.5750   -6.7870  -11.9080 C.3    96  LEU96       0.0001
     81  N         21.5130   -9.7730  -14.0470 N.am   97  MET97      -0.1977
     82  CA        21.7400  -10.4810  -15.3000 C.3    97  MET97       0.1605
     83  C         22.5500   -9.6080  -16.2520 C.2    97  MET97       0.2287
     84  O         22.5260   -8.3800  -16.1520 O.2    97  MET97      -0.2864
     85  CB        20.4130  -10.8880  -15.9420 C.3    97  MET97       0.0413
     86  CG        19.6310  -11.9030  -15.1280 C.3    97  MET97       0.0598
     87  SD        20.5270  -13.4560  -14.9390 S.3    97  MET97      -0.1393
     88  CE        19.8570  -14.0310  -13.3810 C.3    97  MET97       0.0692
     89  N         22.4110   -9.5280  -19.7400 N.3    99  THR99      -0.1203
     90  CA        21.6330   -8.9920  -20.8540 C.3    99  THR99       0.1994
     91  C         20.3230   -9.7450  -21.0510 C.2    99  THR99       0.2617
     92  O         20.0210  -10.6860  -20.3190 O.2    99  THR99      -0.2717
     93  CB        22.4270   -9.0450  -22.1720 C.3    99  THR99       0.1784
     94  OG1       21.6240   -8.5310  -23.2410 O.3    99  THR99      -0.2211
     95  CG2       22.8260  -10.4770  -22.4930 C.3    99  THR99       0.0376
     96  N         19.5470   -9.3210  -22.0440 N.am  100  ASP100     -0.1973
     97  CA        18.3330  -10.0330  -22.4240 C.3   100  ASP100      0.1709
     98  C         18.3970  -10.4200  -23.8990 C.2   100  ASP100      0.2293
     99  O         19.3520  -10.0750  -24.5940 O.2   100  ASP100     -0.2864
    100  CB        17.0890   -9.1890  -22.1450 C.3   100  ASP100      0.1436
    101  CG        17.0080   -7.9610  -23.0250 C.2   100  ASP100      0.3671
    102  OD1       16.5330   -8.0800  -24.1710 O.co2 100  ASP100     -0.2456
    103  OD2       17.4150   -6.8740  -22.5720 O.co2 100  ASP100     -0.2456
    104  N         18.3710   -7.5130  -26.7290 N.3   103  LYS103     -0.1245
    105  CA        19.7000   -6.9360  -26.9020 C.3   103  LYS103      0.1561
    106  C         20.6470   -7.9540  -27.5280 C.2   103  LYS103      0.2260
    107  O         21.6570   -7.5900  -28.1300 O.2   103  LYS103     -0.2867
    108  CB        20.2620   -6.4540  -25.5610 C.3   103  LYS103      0.0271
    109  CG        19.4500   -5.3590  -24.8970 C.3   103  LYS103      0.0035
    110  CD        19.9350   -5.0910  -23.4840 C.3   103  LYS103      0.0206
    111  CE        19.0360   -4.0860  -22.7820 C.3   103  LYS103      0.1093
    112  NZ        19.3860   -3.9370  -21.3420 N.3   103  LYS103     -0.1314
    113  N         12.4260   -9.2930  -24.8430 N.3   142  SER142     -0.1217
    114  CA        12.7960   -8.3360  -23.8070 C.3   142  SER142      0.1889
    115  C         12.4920   -8.8740  -22.4140 C.2   142  SER142      0.2288
    116  O         13.0030   -8.3640  -21.4180 O.2   142  SER142     -0.2866
    117  CB        12.0640   -7.0110  -24.0230 C.3   142  SER142      0.2089
    118  OG        12.2610   -6.5320  -25.3440 O.3   142  SER142     -0.2183
    119  N         15.6650  -12.5820  -19.8100 N.3   145  LEU145     -0.1245
    120  CA        16.9980  -12.2020  -19.3600 C.3   145  LEU145      0.1561
    121  C         17.9910  -13.3240  -19.6280 C.2   145  LEU145      0.2260
    122  O         17.6190  -14.4990  -19.6640 O.2   145  LEU145     -0.2867
    123  CB        16.9890  -11.8460  -17.8740 C.3   145  LEU145      0.0270
    124  CG        16.0830  -10.6820  -17.4660 C.3   145  LEU145      0.0019
    125  CD1       16.3260  -10.2980  -16.0140 C.3   145  LEU145      0.0001
    126  CD2       16.2880   -9.4890  -18.3860 C.3   145  LEU145      0.0001
    127  N         10.8030  -13.1000  -17.0810 N.3   155  CYS155     -0.1235
    128  CA        10.2500  -12.0680  -16.2090 C.3   155  CYS155      0.1677
    129  C          8.8750  -11.6110  -16.6890 C.2   155  CYS155      0.2270
    130  O          8.1960  -12.3320  -17.4190 O.2   155  CYS155     -0.2867
    131  CB        11.1950  -10.8690  -16.1340 C.3   155  CYS155      0.0956
    132  SG        12.9090  -11.3040  -15.7870 S.3   155  CYS155     -0.0801
@<TRIPOS>BOND
     1   107   106    2
     2   106   105    1
     3   105   104    1
     4   105   108    1
     5   108   109    1
     6   118   117    1
     7   109   110    1
     8   113   114    1
     9    99    98    2
    10   102   101   ar
    11   117   114    1
    12    98    97    1
    13   114   115    1
    14   110   111    1
    15    94    93    1
    16   101   103   ar
    17   101   100    1
    18   111   112    1
    19    95    93    1
    20    97   100    1
    21    97    96    1
    22   115   116    2
    23    93    90    1
    24    96    91   am
    25    91    90    1
    26    91    92    2
    27    90    89    1
    28   119   120    1
    29   122   121    2
    30   121   120    1
    31   120   123    1
    32   126   124    1
    33    11    12    2
    34    11    10    1
    35     4     3    2
    36    13    10    1
    37    13    14    1
    38     9    10    1
    39   123   124    1
    40    17    15   ar
    41   124   125    1
    42   130   129    2
    43    14    15    1
    44    15    16   ar
    45     3     2    1
    46   127   128    1
    47     7     5    1
    48   129   128    1
    49    83    84    2
    50    83    82    1
    51   128   131    1
    52   131   132    1
    53     2     5    1
    54     2     1    1
    55    85    82    1
    56    85    86    1
    57     5     6    1
    58    82    81    1
    59    86    87    1
    60    87    88    1
    61     6     8    1
    62    81    75   am
    63    24    22    1
    64    22    23    1
    65    22    19    1
    66    21    20    2
    67    48    49    1
    68    18    19    1
    69    75    76    2
    70    75    74    1
    71    52    54    1
    72    52    53    1
    73    52    49    1
    74    19    20    1
    75    55    53    1
    76    79    78    1
    77    47    45   ar
    78    78    80    1
    79    78    77    1
    80    49    50    1
    81    37    38    1
    82    37    36    1
    83    74    77    1
    84    74    73    1
    85    45    44    1
    86    45    46   ar
    87    44    43    1
    88    68    67    2
    89    36    35    1
    90    29    26    1
    91    50    51    2
    92    43    40    1
    93    63    62    2
    94    34    35    1
    95    34    31    1
    96    71    70   ar
    97    73    67   am
    98    67    66    1
    99    64    62   am
   100    40    39    1
   101    40    41    1
   102    62    61    1
   103    26    25    1
   104    26    27    1
   105    70    72   ar
   106    70    69    1
   107    31    30    1
   108    31    32    1
   109    60    61    1
   110    60    57    1
   111    69    66    1
   112    66    65    1
   113    27    28    2
   114    41    42    2
   115    32    33    2
   116    65    58   am
   117    59    58    2
   118    58    57    1
   119    57    56    1
