@<TRIPOS>MOLECULE
tmp/5ax9B00.pdb
 209 195 0 0 0
SMALL
GASTEIGER

@<TRIPOS>ATOM
      1  N         -7.6370  -16.0420   11.0650 N.3    17  GLU17      -0.1231
      2  CA        -7.7010  -17.0330   12.1420 C.3    17  GLU17       0.1699
      3  C         -7.0430  -18.3740   11.7900 C.2    17  GLU17       0.2592
      4  O         -7.1170  -18.8620   10.6570 O.2    17  GLU17      -0.2718
      5  CB        -9.1560  -17.2820   12.5620 C.3    17  GLU17       0.0402
      6  CG       -10.0290  -17.9040   11.4930 C.3    17  GLU17       0.1161
      7  CD       -11.3040  -18.4890   12.0620 C.2    17  GLU17       0.3649
      8  OE1      -12.0810  -19.1020   11.2940 O.co2  17  GLU17      -0.2457
      9  OE2      -11.5230  -18.3480   13.2830 O.co2  17  GLU17      -0.2457
     10  N         -6.4040  -18.9660   12.7890 N.am   18  LEU18      -0.1966
     11  CA        -5.7530  -20.2560   12.6450 C.3    18  LEU18       0.1728
     12  C         -6.7950  -21.3460   12.4060 C.2    18  LEU18       0.2616
     13  O         -7.7530  -21.4560   13.1650 O.2    18  LEU18      -0.2715
     14  CB        -4.9320  -20.5550   13.8930 C.3    18  LEU18       0.0311
     15  CG        -3.9340  -21.6970   13.8500 C.3    18  LEU18       0.0022
     16  CD1       -2.8980  -21.4070   12.7900 C.3    18  LEU18       0.0001
     17  CD2       -3.2900  -21.8590   15.2220 C.3    18  LEU18       0.0001
     18  N         -6.6290  -22.1350   11.3450 N.am   19  VAL19      -0.1963
     19  CA        -7.6280  -23.1530   11.0230 C.3    19  VAL19       0.1730
     20  C         -7.0530  -24.5600   11.0660 C.2    19  VAL19       0.2656
     21  O         -7.7930  -25.5310   10.9500 O.2    19  VAL19      -0.2711
     22  CB        -8.2650  -22.9210    9.6350 C.3    19  VAL19       0.0290
     23  CG1       -9.0490  -21.6280    9.6260 C.3    19  VAL19       0.0023
     24  CG2       -7.1990  -22.9040    8.5540 C.3    19  VAL19       0.0023
     25  N         -5.7400  -24.6710   11.2370 N.am   20  GLY20      -0.1716
     26  CA        -5.0990  -25.9690   11.3090 C.2    20  GLY20       0.1480
     27  C         -3.5890  -25.9730   11.1580 C.2    20  GLY20       0.2820
     28  O         -2.9350  -24.9270   11.0900 O.2    20  GLY20      -0.2669
     29  N         -3.0310  -27.1780   11.1120 N.am   21  ASN21      -0.1923
     30  CA        -1.6020  -27.3630   10.9010 C.3    21  ASN21       0.1822
     31  C         -1.3350  -28.1410    9.6250 C.2    21  ASN21       0.2621
     32  O         -2.0150  -29.1200    9.3320 O.2    21  ASN21      -0.2715
     33  CB        -0.9690  -28.0900   12.0920 C.3    21  ASN21       0.1195
     34  CG        -0.8420  -27.2040   13.3150 C.2    21  ASN21       0.2630
     35  OD1        0.2570  -26.7790   13.6760 O.2    21  ASN21      -0.2716
     36  ND2       -1.9700  -26.9090   13.9540 N.am   21  ASN21      -0.0877
     37  N         -0.3500  -27.7020    8.8570 N.am   22  GLY22      -0.1954
     38  CA         0.1160  -28.4960    7.7410 C.3    22  GLY22       0.1869
     39  C          1.4480  -29.1130    8.1160 C.2    22  GLY22       0.2309
     40  O          1.9070  -28.9820    9.2510 O.2    22  GLY22      -0.2863
     41  N         -1.5700  -23.2860    9.1250 N.3    27  VAL27      -0.1245
     42  CA        -2.4690  -22.9080    8.0490 C.3    27  VAL27       0.1561
     43  C         -3.5040  -21.9340    8.5770 C.2    27  VAL27       0.2260
     44  O         -4.1690  -22.2120    9.5740 O.2    27  VAL27      -0.2867
     45  CB        -3.1710  -24.1300    7.4310 C.3    27  VAL27       0.0252
     46  CG1       -4.0660  -23.6950    6.2660 C.3    27  VAL27       0.0019
     47  CG2       -2.1350  -25.1400    6.9700 C.3    27  VAL27       0.0019
     48  N         -6.7780  -19.0330    7.8270 N.3    29  LYS29      -0.1245
     49  CA        -7.7510  -18.3580    6.9940 C.3    29  LYS29       0.1561
     50  C         -7.2210  -16.9490    6.7870 C.2    29  LYS29       0.2260
     51  O         -6.9220  -16.2430    7.7540 O.2    29  LYS29      -0.2867
     52  CB        -9.1290  -18.3450    7.6440 C.3    29  LYS29       0.0271
     53  CG       -10.1880  -17.5390    6.8990 C.3    29  LYS29       0.0035
     54  CD       -11.4820  -17.5630    7.6960 C.3    29  LYS29       0.0206
     55  CE       -12.5990  -16.7910    7.0370 C.3    29  LYS29       0.1093
     56  NZ       -13.8070  -16.8090    7.9170 N.3    29  LYS29      -0.1314
     57  N         -6.5060  -19.5660    1.8440 N.3    40  ALA40      -0.1245
     58  CA        -5.7950  -20.3020    2.8770 C.3    40  ALA40       0.1562
     59  C         -4.3190  -19.9600    2.7720 C.2    40  ALA40       0.2260
     60  O         -3.7490  -19.9140    1.6780 O.2    40  ALA40      -0.2867
     61  CB        -6.0230  -21.8100    2.7510 C.3    40  ALA40       0.0290
     62  N         -0.4720  -20.7420    4.3400 N.3    42  LYS42      -0.1245
     63  CA         0.3750  -21.6290    5.1060 C.3    42  LYS42       0.1561
     64  C          1.6580  -20.9040    5.4740 C.2    42  LYS42       0.2260
     65  O          2.4500  -20.5410    4.6030 O.2    42  LYS42      -0.2867
     66  CB         0.6730  -22.8950    4.3100 C.3    42  LYS42       0.0271
     67  CG         1.5290  -23.9180    5.0370 C.3    42  LYS42       0.0035
     68  CD         1.8520  -25.0820    4.1030 C.3    42  LYS42       0.0206
     69  CE         2.8020  -26.0720    4.7300 C.3    42  LYS42       0.1093
     70  NZ         3.2150  -27.1300    3.7630 N.3    42  LYS42      -0.1314
     71  N          8.3550  -26.9670   -2.8080 N.3    57  GLU57      -0.1245
     72  CA         6.9240  -26.9220   -2.5330 C.3    57  GLU57       0.1567
     73  C          6.2210  -25.8460   -3.3560 C.2    57  GLU57       0.2260
     74  O          5.1380  -26.0870   -3.9010 O.2    57  GLU57      -0.2867
     75  CB         6.6580  -26.6890   -1.0470 C.3    57  GLU57       0.0388
     76  CG         5.1710  -26.6770   -0.7210 C.3    57  GLU57       0.1160
     77  CD         4.8840  -26.9030    0.7480 C.2    57  GLU57       0.3649
     78  OE1        5.8480  -26.9680    1.5420 O.co2  57  GLU57      -0.2457
     79  OE2        3.6900  -27.0310    1.1020 O.co2  57  GLU57      -0.2457
     80  N          3.1010  -26.2150   -6.3090 N.3    61  LEU61      -0.1245
     81  CA         1.8300  -25.4920   -6.3120 C.3    61  LEU61       0.1561
     82  C          1.6870  -24.6430   -7.5730 C.2    61  LEU61       0.2260
     83  O          0.5950  -24.5310   -8.1240 O.2    61  LEU61      -0.2867
     84  CB         1.6910  -24.6140   -5.0630 C.3    61  LEU61       0.0270
     85  CG         0.7950  -25.1000   -3.9160 C.3    61  LEU61       0.0019
     86  CD1        0.7160  -24.0330   -2.8530 C.3    61  LEU61       0.0001
     87  CD2       -0.6170  -25.4680   -4.3670 C.3    61  LEU61       0.0001
     88  N         -6.4100  -27.6730   -4.8620 N.3    71  ALA71      -0.1245
     89  CA        -6.5490  -26.3150   -4.3380 C.3    71  ALA71       0.1562
     90  C         -5.5640  -25.4120   -5.0400 C.2    71  ALA71       0.2260
     91  O         -4.3540  -25.5760   -4.8950 O.2    71  ALA71      -0.2867
     92  CB        -6.3290  -26.2790   -2.8320 C.3    71  ALA71       0.0290
     93  N          2.5130  -19.1900    1.9960 N.3    91  LEU91      -0.1245
     94  CA         2.0560  -19.8810    0.8010 C.3    91  LEU91       0.1561
     95  C          0.5400  -19.7320    0.6860 C.2    91  LEU91       0.2260
     96  O         -0.2030  -20.1860    1.5530 O.2    91  LEU91      -0.2867
     97  CB         2.4620  -21.3530    0.8510 C.3    91  LEU91       0.0270
     98  CG         2.6370  -22.0620   -0.4870 C.3    91  LEU91       0.0019
     99  CD1        3.5440  -21.2370   -1.3950 C.3    91  LEU91       0.0001
    100  CD2        3.1980  -23.4720   -0.2760 C.3    91  LEU91       0.0001
    101  N         -3.2300  -20.0170   -1.1470 N.3    93  MET93      -0.1230
    102  CA        -4.0000  -20.8630   -2.0340 C.3    93  MET93       0.1702
    103  C         -5.4930  -20.6240   -1.8480 C.2    93  MET93       0.2592
    104  O         -5.9160  -19.9050   -0.9410 O.2    93  MET93      -0.2718
    105  CB        -3.6570  -22.3350   -1.7820 C.3    93  MET93       0.0401
    106  CG        -4.1630  -22.8630   -0.4370 C.3    93  MET93       0.0596
    107  SD        -3.2190  -24.2710    0.2070 S.3    93  MET93      -0.1393
    108  CE        -1.6140  -23.5150    0.4590 C.3    93  MET93       0.0692
    109  N         -6.2790  -21.2240   -2.7290 N.am   94  GLU94      -0.1966
    110  CA        -7.7310  -21.2290   -2.6260 C.3    94  GLU94       0.1733
    111  C         -8.2060  -21.6870   -1.2370 C.2    94  GLU94       0.2616
    112  O         -7.6460  -22.6200   -0.6510 O.2    94  GLU94      -0.2715
    113  CB        -8.2930  -22.1370   -3.7300 C.3    94  GLU94       0.0429
    114  CG        -9.7360  -22.5680   -3.5900 C.3    94  GLU94       0.1163
    115  CD       -10.1390  -23.5260   -4.6950 C.2    94  GLU94       0.3649
    116  OE1       -9.2370  -24.1440   -5.3050 O.co2  94  GLU94      -0.2457
    117  OE2      -11.3520  -23.6460   -4.9740 O.co2  94  GLU94      -0.2457
    118  N         -9.2290  -21.0240   -0.7070 N.am   95  PHE95      -0.1960
    119  CA        -9.7700  -21.3660    0.6050 C.3    95  PHE95       0.1771
    120  C        -10.9600  -22.3000    0.4680 C.2    95  PHE95       0.2620
    121  O        -11.8670  -22.0530   -0.3260 O.2    95  PHE95      -0.2715
    122  CB       -10.1860  -20.1060    1.3740 C.3    95  PHE95       0.0574
    123  CG       -10.5980  -20.3640    2.8030 C.ar   95  PHE95      -0.0200
    124  CD1       -9.6610  -20.7300    3.7590 C.ar   95  PHE95      -0.0042
    125  CD2      -11.9210  -20.2210    3.1970 C.ar   95  PHE95      -0.0042
    126  CE1      -10.0350  -20.9600    5.0710 C.ar   95  PHE95      -0.0003
    127  CE2      -12.2960  -20.4500    4.5110 C.ar   95  PHE95      -0.0003
    128  CZ       -11.3490  -20.8210    5.4470 C.ar   95  PHE95      -0.0000
    129  N        -10.9460  -23.3710    1.2530 N.am   96  CYS96      -0.1954
    130  CA       -12.0380  -24.3300    1.2700 C.3    96  CYS96       0.1843
    131  C        -12.8050  -24.1770    2.5790 C.2    96  CYS96       0.2626
    132  O        -12.3630  -24.6350    3.6350 O.2    96  CYS96      -0.2714
    133  CB       -11.5000  -25.7550    1.0890 C.3    96  CYS96       0.0997
    134  SG       -10.4950  -25.9430   -0.4110 S.3    96  CYS96      -0.0797
    135  N        -13.9550  -23.5170    2.4930 N.am   97  GLY97      -0.1940
    136  CA       -14.6700  -23.0360    3.6580 C.3    97  GLY97       0.2014
    137  C        -15.3020  -24.0690    4.5630 C.2    97  GLY97       0.2639
    138  O        -15.6490  -23.7460    5.6960 O.2    97  GLY97      -0.2714
    139  N        -15.4450  -25.3040    4.0880 N.am   98  ALA98      -0.1963
    140  CA       -16.1450  -26.3380    4.8590 C.3    98  ALA98       0.1728
    141  C        -15.2210  -27.1380    5.7740 C.2    98  ALA98       0.2617
    142  O        -15.6740  -27.7500    6.7440 O.2    98  ALA98      -0.2715
    143  CB       -16.8870  -27.2770    3.9280 C.3    98  ALA98       0.0334
    144  N        -13.9270  -27.1270    5.4790 N.am   99  GLY99      -0.1940
    145  CA       -12.9830  -27.8930    6.2750 C.3    99  GLY99       0.2014
    146  C        -12.6410  -29.2090    5.6000 C.2    99  GLY99       0.2639
    147  O        -13.0830  -29.4760    4.4800 O.2    99  GLY99      -0.2714
    148  N        -11.8540  -30.0350    6.2800 N.am  100  SER100     -0.1949
    149  CA       -11.3750  -31.2750    5.6910 C.3   100  SER100      0.1924
    150  C        -12.3890  -32.4140    5.8260 C.2   100  SER100      0.2314
    151  O        -13.4190  -32.2750    6.4810 O.2   100  SER100     -0.2863
    152  CB       -10.0460  -31.6750    6.3310 C.3   100  SER100      0.2116
    153  OG       -10.2420  -32.1010    7.6660 O.3   100  SER100     -0.2180
    154  N        -12.5990  -33.4150    9.4040 N.3   103  ASP103     -0.1239
    155  CA       -13.5400  -32.5350   10.1060 C.3   103  ASP103      0.1674
    156  C        -14.9880  -32.9880    9.9000 C.2   103  ASP103      0.2266
    157  O        -15.7760  -33.0580   10.8470 O.2   103  ASP103     -0.2867
    158  CB       -13.3800  -31.0800    9.6370 C.3   103  ASP103      0.1410
    159  CG       -12.0200  -30.4910    9.9960 C.2   103  ASP103      0.3668
    160  OD1      -11.4960  -30.8190   11.0850 O.co2 103  ASP103     -0.2456
    161  OD2      -11.4720  -29.7040    9.1920 O.co2 103  ASP103     -0.2456
    162  N        -17.8010  -34.1360   12.7130 N.3   107  ASN107     -0.1240
    163  CA       -19.0870  -33.4510   12.7930 C.3   107  ASN107      0.1653
    164  C        -20.2330  -34.2870   12.2380 C.2   107  ASN107      0.2266
    165  O        -21.3070  -33.7620   11.9420 O.2   107  ASN107     -0.2867
    166  CB       -19.0270  -32.1180   12.0460 C.3   107  ASN107      0.1155
    167  CG       -18.0820  -31.1290   12.6970 C.2   107  ASN107      0.2627
    168  OD1      -17.8450  -31.1850   13.9040 O.2   107  ASN107     -0.2716
    169  ND2      -17.5290  -30.2250   11.8990 N.am  107  ASN107     -0.0877
    170  N         -7.1510  -35.4140    6.3920 N.3   145  GLN145     -0.1231
    171  CA        -6.7820  -34.0570    6.7740 C.3   145  GLN145      0.1698
    172  C         -6.3440  -33.1930    5.5880 C.2   145  GLN145      0.2592
    173  O         -6.4190  -31.9620    5.6470 O.2   145  GLN145     -0.2718
    174  CB        -5.6690  -34.0890    7.8210 C.3   145  GLN145      0.0381
    175  CG        -6.0940  -34.6480    9.1700 C.3   145  GLN145      0.0905
    176  CD        -4.9770  -34.5940   10.2000 C.2   145  GLN145      0.2608
    177  OE1       -3.8200  -34.3180    9.8700 O.2   145  GLN145     -0.2717
    178  NE2       -5.3200  -34.8540   11.4570 N.am  145  GLN145     -0.0878
    179  N         -5.8850  -33.8360    4.5170 N.am  146  ASN146     -0.1974
    180  CA        -5.4130  -33.1090    3.3450 C.3   146  ASN146      0.1688
    181  C         -6.4100  -33.1470    2.2080 C.2   146  ASN146      0.2292
    182  O         -6.0750  -32.8130    1.0760 O.2   146  ASN146     -0.2864
    183  CB        -4.0720  -33.6670    2.8690 C.3   146  ASN146      0.1181
    184  CG        -2.9250  -33.2340    3.7430 C.2   146  ASN146      0.2629
    185  OD1       -3.0010  -32.2010    4.4150 O.2   146  ASN146     -0.2716
    186  ND2       -1.8490  -34.0130    3.7410 N.am  146  ASN146     -0.0877
    187  N         -9.8880  -31.5110    1.2410 N.3   148  LEU148     -0.1245
    188  CA       -10.7290  -30.4030    1.6900 C.3   148  LEU148      0.1561
    189  C        -11.9420  -30.1080    0.8280 C.2   148  LEU148      0.2260
    190  O        -11.9510  -30.3360   -0.3870 O.2   148  LEU148     -0.2867
    191  CB        -9.8880  -29.1340    1.8270 C.3   148  LEU148      0.0270
    192  CG        -9.2440  -29.2240    3.2110 C.3   148  LEU148      0.0019
    193  CD1       -7.8140  -29.7760    3.1760 C.3   148  LEU148      0.0001
    194  CD2       -9.3500  -27.9210    3.9650 C.3   148  LEU148      0.0001
    195  N         -4.6600  -30.8810   -0.9220 N.3   158  VAL158     -0.1231
    196  CA        -3.7560  -29.8370   -0.4420 C.3   158  VAL158      0.1692
    197  C         -2.4180  -30.3680    0.0840 C.2   158  VAL158      0.2592
    198  O         -2.2280  -31.5780    0.2620 O.2   158  VAL158     -0.2718
    199  CB        -4.4080  -28.9820    0.6820 C.3   158  VAL158      0.0266
    200  CG1       -5.7840  -28.4460    0.2500 C.3   158  VAL158      0.0020
    201  CG2       -4.5060  -29.7740    1.9760 C.3   158  VAL158      0.0020
    202  N         -1.4960  -29.4320    0.2920 N.am  159  ASP159     -0.1974
    203  CA        -0.2440  -29.6350    1.0160 C.3   159  ASP159      0.1709
    204  C          0.7370  -30.5730    0.3110 C.2   159  ASP159      0.2293
    205  O          0.7240  -31.7930    0.5140 O.2   159  ASP159     -0.2864
    206  CB        -0.5340  -30.1430    2.4300 C.3   159  ASP159      0.1436
    207  CG         0.5830  -29.8210    3.4030 C.2   159  ASP159      0.3671
    208  OD1        1.7690  -29.9660    3.0270 O.co2 159  ASP159     -0.2456
    209  OD2        0.2750  -29.4130    4.5430 O.co2 159  ASP159     -0.2456
@<TRIPOS>BOND
     1    83    82    2
     2    82    81    1
     3    81    80    1
     4    81    84    1
     5   116   115   ar
     6    84    85    1
     7    90    91    2
     8    90    89    1
     9   117   115   ar
    10    88    89    1
    11   115   114    1
    12    87    85    1
    13    89    92    1
    14    85    86    1
    15    74    73    2
    16   113   114    1
    17   113   110    1
    18    73    72    1
    19    71    72    1
    20   109   110    1
    21   109   103   am
    22   110   111    1
    23    72    75    1
    24   102   103    1
    25   102   105    1
    26   102   101    1
    27   103   104    2
    28   105   106    1
    29    99    98    1
    30   111   118   am
    31   111   112    2
    32    75    76    1
    33   195   196    1
    34    76    77    1
    35   118   119    1
    36    98   100    1
    37    98    97    1
    38   196   197    1
    39   196   199    1
    40   106   107    1
    41   134   133    1
    42   190   189    2
    43   121   120    2
    44   197   198    2
    45   197   202   am
    46   107   108    1
    47   200   199    1
    48   202   203    1
    49   204   205    2
    50   204   203    1
    51   120   119    1
    52   120   129   am
    53   119   122    1
    54   199   201    1
    55    95    94    1
    56    95    96    2
    57    77    79   ar
    58    77    78   ar
    59    94    97    1
    60    94    93    1
    61   189   188    1
    62   203   206    1
    63   182   181    2
    64   133   130    1
    65   187   188    1
    66   129   130    1
    67   130   131    1
    68   122   123    1
    69    60    59    2
    70   188   191    1
    71   191   192    1
    72    57    58    1
    73   181   180    1
    74   206   207    1
    75   135   131   am
    76   135   136    1
    77   131   132    2
    78    61    58    1
    79    59    58    1
    80   123   125   ar
    81   123   124   ar
    82   183   180    1
    83   183   184    1
    84   208   207   ar
    85   193   192    1
    86   125   127   ar
    87   192   194    1
    88   180   179    1
    89   207   209   ar
    90   136   137    1
    91   186   184   am
    92   184   185    2
    93   124   126   ar
    94    70    69    1
    95   143   140    1
    96   139   137   am
    97   139   140    1
    98    68    69    1
    99    68    67    1
   100    66    67    1
   101    66    63    1
   102    62    63    1
   103   147   146    2
   104   127   128   ar
   105   179   172   am
   106   137   138    2
   107    65    64    2
   108   140   141    1
   109   126   128   ar
   110    63    64    1
   111   144   141   am
   112   144   145    1
   113   172   173    2
   114   172   171    1
   115   146   145    1
   116   146   148   am
   117   149   150    1
   118   149   148    1
   119   149   152    1
   120   141   142    2
   121   150   151    2
   122    46    45    1
   123   152   153    1
   124   170   171    1
   125   171   174    1
   126    50    49    1
   127    50    51    2
   128    53    52    1
   129    53    54    1
   130    47    45    1
   131    49    52    1
   132    49    48    1
   133    55    54    1
   134    55    56    1
   135    45    42    1
   136    38    39    1
   137    38    37    1
   138   174   175    1
   139    42    43    1
   140    42    41    1
   141    39    40    2
   142    24    22    1
   143    43    44    2
   144    37    31   am
   145   175   176    1
   146   161   159   ar
   147    32    31    2
   148   154   155    1
   149    31    30    1
   150    23    22    1
   151    22    19    1
   152   158   159    1
   153   158   155    1
   154   177   176    2
   155   156   155    1
   156   156   157    2
   157   159   160   ar
   158   176   178   am
   159     4     3    2
   160    30    29    1
   161    30    33    1
   162    21    20    2
   163    19    20    1
   164    19    18    1
   165     1     2    1
   166    20    25    1
   167    28    27    2
   168    29    27   am
   169    27    26    1
   170    25    26    2
   171     8     7   ar
   172    18    12   am
   173     6     7    1
   174     6     5    1
   175     3     2    1
   176     3    10   am
   177   169   167   am
   178   165   164    2
   179   166   167    1
   180   166   163    1
   181     7     9   ar
   182    33    34    1
   183     2     5    1
   184   164   163    1
   185    12    11    1
   186    12    13    2
   187    11    10    1
   188    11    14    1
   189   167   168    2
   190   162   163    1
   191    16    15    1
   192    34    35    2
   193    34    36   am
   194    15    14    1
   195    15    17    1
