@<TRIPOS>MOLECULE
tmp/5ax9C00.pdb
 184 171 0 0 0
SMALL
GASTEIGER

@<TRIPOS>ATOM
      1  N        -14.4950   -7.6330  -42.7520 N.3    20  VAL20      -0.1231
      2  CA       -15.3380   -7.8190  -41.5880 C.3    20  VAL20       0.1692
      3  C        -14.8380   -6.9900  -40.4100 C.2    20  VAL20       0.2593
      4  O        -15.6230   -6.5530  -39.5660 O.2    20  VAL20      -0.2718
      5  CB       -15.4120   -9.3190  -41.2320 C.3    20  VAL20       0.0266
      6  CG1      -14.9320   -9.5880  -39.8200 C.3    20  VAL20       0.0020
      7  CG2      -16.8210   -9.8440  -41.4680 C.3    20  VAL20       0.0020
      8  N        -13.5330   -6.7450  -40.3760 N.am   21  GLY21      -0.1942
      9  CA       -12.9500   -5.9340  -39.3280 C.3    21  GLY21       0.2014
     10  C        -11.4590   -5.7490  -39.4970 C.2    21  GLY21       0.2639
     11  O        -10.8790   -6.1630  -40.5000 O.2    21  GLY21      -0.2714
     12  N        -10.8380   -5.1130  -38.5110 N.am   22  ASN22      -0.1958
     13  CA        -9.3940   -4.9360  -38.5010 C.3    22  ASN22       0.1819
     14  C         -8.7480   -5.7310  -37.3840 C.2    22  ASN22       0.2621
     15  O         -9.2850   -5.8370  -36.2810 O.2    22  ASN22      -0.2715
     16  CB        -9.0310   -3.4590  -38.3670 C.3    22  ASN22       0.1195
     17  CG        -9.2930   -2.6850  -39.6390 C.2    22  ASN22       0.2630
     18  OD1       -8.5340   -2.7910  -40.6060 O.2    22  ASN22      -0.2716
     19  ND2      -10.3750   -1.9090  -39.6520 N.am   22  ASN22      -0.0877
     20  N         -7.5950   -6.3080  -37.6830 N.am   23  GLY23      -0.1954
     21  CA        -6.8410   -7.0360  -36.6890 C.3    23  GLY23       0.1869
     22  C         -5.5640   -6.2710  -36.4440 C.2    23  GLY23       0.2309
     23  O         -5.3250   -5.2420  -37.0770 O.2    23  GLY23      -0.2863
     24  N         -9.0990   -8.3070  -41.5050 N.3    28  VAL28      -0.1245
     25  CA        -9.8170   -9.5150  -41.1530 C.3    28  VAL28       0.1561
     26  C        -11.0230   -9.7020  -42.0490 C.2    28  VAL28       0.2260
     27  O        -11.8680   -8.8080  -42.1720 O.2    28  VAL28      -0.2867
     28  CB       -10.2860   -9.4890  -39.6910 C.3    28  VAL28       0.0252
     29  CG1      -10.9510  -10.8030  -39.3330 C.3    28  VAL28       0.0019
     30  CG2       -9.1130   -9.2040  -38.7650 C.3    28  VAL28       0.0019
     31  N        -14.3010  -12.2840  -43.4570 N.3    30  LYS30      -0.1245
     32  CA       -15.1190  -13.4710  -43.5400 C.3    30  LYS30       0.1561
     33  C        -14.6340  -14.2500  -44.7580 C.2    30  LYS30       0.2260
     34  O        -14.6390  -13.7240  -45.8720 O.2    30  LYS30      -0.2867
     35  CB       -16.5890  -13.0960  -43.6680 C.3    30  LYS30       0.0271
     36  CG       -17.4970  -14.1910  -44.1960 C.3    30  LYS30       0.0035
     37  CD       -18.8850  -13.6170  -44.4070 C.3    30  LYS30       0.0206
     38  CE       -19.8740  -14.6550  -44.8800 C.3    30  LYS30       0.1093
     39  NZ       -21.2040  -14.0210  -45.0780 N.3    30  LYS30      -0.1314
     40  N        -12.6520  -17.2330  -40.4480 N.3    41  ALA41      -0.1245
     41  CA       -12.1140  -15.8800  -40.3390 C.3    41  ALA41       0.1562
     42  C        -10.6610  -15.8910  -40.7820 C.2    41  ALA41       0.2260
     43  O         -9.8660  -16.7360  -40.3470 O.2    41  ALA41      -0.2867
     44  CB       -12.2430  -15.3490  -38.9220 C.3    41  ALA41       0.0290
     45  N         -7.2590  -13.5360  -41.2540 N.3    43  LYS43      -0.1245
     46  CA        -6.4660  -12.3360  -41.0720 C.3    43  LYS43       0.1561
     47  C         -5.3810  -12.3250  -42.1330 C.2    43  LYS43       0.2260
     48  O         -4.6300  -13.2860  -42.2650 O.2    43  LYS43      -0.2867
     49  CB        -5.8550  -12.2770  -39.6720 C.3    43  LYS43       0.0271
     50  CG        -5.2630  -10.9210  -39.3300 C.3    43  LYS43       0.0035
     51  CD        -4.1190  -11.0580  -38.3520 C.3    43  LYS43       0.0206
     52  CE        -4.4580  -10.4680  -37.0010 C.3    43  LYS43       0.1093
     53  NZ        -3.3000  -10.5610  -36.0640 N.3    43  LYS43      -0.1314
     54  N          3.1520  -15.5070  -33.8910 N.3    58  GLU58      -0.1245
     55  CA         1.6940  -15.4910  -33.8570 C.3    58  GLU58       0.1567
     56  C          1.1210  -16.8070  -34.3890 C.2    58  GLU58       0.2260
     57  O          0.1300  -17.3140  -33.8670 O.2    58  GLU58      -0.2867
     58  CB         1.1490  -14.3120  -34.6630 C.3    58  GLU58       0.0388
     59  CG        -0.3670  -14.2290  -34.6700 C.3    58  GLU58       0.1160
     60  CD        -0.8740  -12.9900  -35.3780 C.2    58  GLU58       0.3649
     61  OE1       -0.0310  -12.1720  -35.8120 O.co2  58  GLU58      -0.2457
     62  OE2       -2.1110  -12.8330  -35.4950 O.co2  58  GLU58      -0.2457
     63  N        -10.7510  -18.8440  -30.1900 N.3    72  ALA72      -0.1245
     64  CA       -11.1170  -19.1550  -31.5650 C.3    72  ALA72       0.1562
     65  C        -10.0650  -20.0960  -32.1330 C.2    72  ALA72       0.2260
     66  O         -8.8730  -19.7930  -32.1050 O.2    72  ALA72      -0.2867
     67  CB       -11.2310  -17.8980  -32.3980 C.3    72  ALA72       0.0290
     68  N         -3.9030  -15.9350  -42.2700 N.3    92  LEU92      -0.1245
     69  CA        -4.0130  -16.6790  -41.0190 C.3    92  LEU92       0.1561
     70  C         -5.4810  -17.0540  -40.7910 C.2    92  LEU92       0.2260
     71  O         -6.3330  -16.1720  -40.6490 O.2    92  LEU92      -0.2867
     72  CB        -3.4610  -15.8430  -39.8610 C.3    92  LEU92       0.0270
     73  CG        -2.8830  -16.5370  -38.6290 C.3    92  LEU92       0.0019
     74  CD1       -1.9570  -17.6890  -39.0150 C.3    92  LEU92       0.0001
     75  CD2       -2.1420  -15.5090  -37.7940 C.3    92  LEU92       0.0001
     76  N         -8.8300  -18.9880  -39.0960 N.3    94  MET94      -0.1230
     77  CA        -9.3690  -19.4590  -37.8290 C.3    94  MET94       0.1702
     78  C        -10.8780  -19.6420  -37.9220 C.2    94  MET94       0.2592
     79  O        -11.5010  -19.3050  -38.9420 O.2    94  MET94      -0.2718
     80  CB        -9.0150  -18.4830  -36.7020 C.3    94  MET94       0.0401
     81  CG        -9.7110  -17.1230  -36.8180 C.3    94  MET94       0.0596
     82  SD        -8.7370  -15.7790  -36.1170 S.3    94  MET94      -0.1393
     83  CE        -7.2960  -15.8460  -37.1880 C.3    94  MET94       0.0692
     84  N        -11.4460  -20.1860  -36.8500 N.am   95  GLU95      -0.1966
     85  CA       -12.8880  -20.3820  -36.7150 C.3    95  GLU95       0.1733
     86  C        -13.6630  -19.0790  -36.9520 C.2    95  GLU95       0.2616
     87  O        -13.2440  -18.0030  -36.5060 O.2    95  GLU95      -0.2715
     88  CB       -13.1890  -20.9490  -35.3230 C.3    95  GLU95       0.0429
     89  CG       -14.6350  -20.8820  -34.8780 C.3    95  GLU95       0.1163
     90  CD       -14.8070  -21.2930  -33.4220 C.2    95  GLU95       0.3649
     91  OE1      -13.7840  -21.5090  -32.7330 O.co2  95  GLU95      -0.2457
     92  OE2      -15.9640  -21.4200  -32.9690 O.co2  95  GLU95      -0.2457
     93  N        -14.7830  -19.1670  -37.6660 N.am   96  PHE96      -0.1960
     94  CA       -15.5920  -17.9800  -37.8990 C.3    96  PHE96       0.1771
     95  C        -16.6630  -17.8560  -36.8340 C.2    96  PHE96       0.2620
     96  O        -17.4760  -18.7600  -36.6480 O.2    96  PHE96      -0.2715
     97  CB       -16.2340  -18.0020  -39.2860 C.3    96  PHE96       0.0574
     98  CG       -16.8870  -16.6960  -39.6750 C.ar   96  PHE96      -0.0200
     99  CD1      -16.1310  -15.5410  -39.8120 C.ar   96  PHE96      -0.0042
    100  CD2      -18.2530  -16.6260  -39.9130 C.ar   96  PHE96      -0.0042
    101  CE1      -16.7220  -14.3400  -40.1700 C.ar   96  PHE96      -0.0003
    102  CE2      -18.8520  -15.4300  -40.2750 C.ar   96  PHE96      -0.0003
    103  CZ       -18.0850  -14.2840  -40.4070 C.ar   96  PHE96      -0.0000
    104  N        -16.6540  -16.7250  -36.1390 N.am   97  CYS97      -0.1954
    105  CA       -17.6390  -16.4430  -35.1110 C.3    97  CYS97       0.1843
    106  C        -18.7170  -15.5430  -35.7010 C.2    97  CYS97       0.2626
    107  O        -18.4820  -14.3560  -35.9630 O.2    97  CYS97      -0.2714
    108  CB       -16.9680  -15.8050  -33.8930 C.3    97  CYS97       0.0997
    109  SG       -15.6930  -16.8770  -33.1190 S.3    97  CYS97      -0.0797
    110  N        -19.8980  -16.1210  -35.9070 N.am   98  GLY98      -0.1940
    111  CA       -20.9490  -15.4950  -36.6880 C.3    98  GLY98       0.2014
    112  C        -21.7690  -14.3860  -36.0450 C.2    98  GLY98       0.2639
    113  O        -22.6000  -13.7850  -36.7130 O.2    98  GLY98      -0.2714
    114  N        -21.5550  -14.1060  -34.7630 N.am   99  ALA99      -0.1963
    115  CA       -22.3180  -13.0480  -34.1020 C.3    99  ALA99       0.1728
    116  C        -21.5630  -11.7150  -34.0490 C.2    99  ALA99       0.2617
    117  O        -22.1550  -10.6720  -33.7690 O.2    99  ALA99      -0.2715
    118  CB       -22.7090  -13.4780  -32.7020 C.3    99  ALA99       0.0334
    119  N        -20.2610  -11.7470  -34.3170 N.am  100  GLY100     -0.1940
    120  CA       -19.4470  -10.5490  -34.2440 C.3   100  GLY100      0.2014
    121  C        -18.8040  -10.3880  -32.8810 C.2   100  GLY100      0.2639
    122  O        -18.7780  -11.3210  -32.0920 O.2   100  GLY100     -0.2714
    123  N        -18.2760   -9.2040  -32.5990 N.am  101  SER101     -0.1949
    124  CA       -17.5590   -8.9920  -31.3500 C.3   101  SER101      0.1924
    125  C        -18.4920   -8.4490  -30.2820 C.2   101  SER101      0.2314
    126  O        -19.5900   -7.9790  -30.5810 O.2   101  SER101     -0.2863
    127  CB       -16.3830   -8.0370  -31.5540 C.3   101  SER101      0.2116
    128  OG       -16.8360   -6.6940  -31.6570 O.3   101  SER101     -0.2180
    129  N        -19.4680   -5.0390  -30.9420 N.3   104  ASP104     -0.1239
    130  CA       -20.5870   -4.9790  -31.8790 C.3   104  ASP104      0.1674
    131  C        -21.9110   -5.2540  -31.1660 C.2   104  ASP104      0.2266
    132  O        -22.9370   -4.6540  -31.4870 O.2   104  ASP104     -0.2867
    133  CB       -20.3900   -5.9720  -33.0300 C.3   104  ASP104      0.1410
    134  CG       -19.1700   -5.6460  -33.8840 C.2   104  ASP104      0.3668
    135  OD1      -19.1970   -4.6180  -34.5940 O.co2 104  ASP104     -0.2456
    136  OD2      -18.1860   -6.4180  -33.8490 O.co2 104  ASP104     -0.2456
    137  N        -25.3800   -2.7000  -31.0070 N.3   108  ASN108     -0.1240
    138  CA       -26.6970   -3.1300  -31.4700 C.3   108  ASN108      0.1653
    139  C        -27.6460   -3.3980  -30.3130 C.2   108  ASN108      0.2266
    140  O        -28.6590   -4.0740  -30.4730 O.2   108  ASN108     -0.2867
    141  CB       -26.5790   -4.3850  -32.3350 C.3   108  ASN108      0.1155
    142  CG       -25.6450   -4.1910  -33.5130 C.2   108  ASN108      0.2627
    143  OD1      -25.4800   -3.0770  -34.0100 O.2   108  ASN108     -0.2716
    144  ND2      -25.0270   -5.2780  -33.9670 N.am  108  ASN108     -0.0877
    145  N        -13.2530   -5.5740  -28.8220 N.3   146  GLN146     -0.1231
    146  CA       -13.0910   -5.9400  -30.2240 C.3   146  GLN146      0.1698
    147  C        -12.4580   -7.3100  -30.4300 C.2   146  GLN146      0.2592
    148  O        -12.6040   -7.9060  -31.5010 O.2   146  GLN146     -0.2718
    149  CB       -12.2590   -4.8910  -30.9600 C.3   146  GLN146      0.0381
    150  CG       -13.0540   -3.6520  -31.4040 C.3   146  GLN146      0.0905
    151  CD       -14.0390   -3.9370  -32.5430 C.2   146  GLN146      0.2608
    152  OE1      -14.2870   -5.0940  -32.9090 O.2   146  GLN146     -0.2717
    153  NE2      -14.5940   -2.8730  -33.1170 N.am  146  GLN146     -0.0878
    154  N        -11.7570   -7.8030  -29.4110 N.am  147  ASN147     -0.1974
    155  CA       -11.0510   -9.0730  -29.5190 C.3   147  ASN147      0.1688
    156  C        -11.7550  -10.2100  -28.7880 C.2   147  ASN147      0.2292
    157  O        -11.2190  -11.3090  -28.6740 O.2   147  ASN147     -0.2864
    158  CB        -9.6170   -8.9220  -29.0060 C.3   147  ASN147      0.1181
    159  CG        -8.7400   -8.1470  -29.9660 C.2   147  ASN147      0.2629
    160  OD1       -8.9080   -8.2320  -31.1850 O.2   147  ASN147     -0.2716
    161  ND2       -7.8020   -7.3850  -29.4250 N.am  147  ASN147     -0.0877
    162  N        -15.0240  -12.4660  -29.1500 N.3   149  LEU149     -0.1245
    163  CA       -16.0400  -12.7790  -30.1610 C.3   149  LEU149      0.1561
    164  C        -17.1180  -13.7620  -29.7430 C.2   149  LEU149      0.2260
    165  O        -16.9280  -14.5820  -28.8480 O.2   149  LEU149     -0.2867
    166  CB       -15.3670  -13.2900  -31.4290 C.3   149  LEU149      0.0270
    167  CG       -14.8020  -12.0910  -32.1890 C.3   149  LEU149      0.0019
    168  CD1      -13.4870  -12.4280  -32.7640 C.3   149  LEU149      0.0001
    169  CD2      -15.7530  -11.6830  -33.2980 C.3   149  LEU149      0.0001
    170  N         -9.5890  -13.6890  -29.6300 N.3   159  VAL159     -0.1231
    171  CA        -8.8000  -13.7390  -30.8580 C.3   159  VAL159      0.1692
    172  C         -7.5790  -12.8300  -30.8440 C.2   159  VAL159      0.2592
    173  O         -7.3210  -12.1150  -29.8770 O.2   159  VAL159     -0.2718
    174  CB        -9.6340  -13.3540  -32.0930 C.3   159  VAL159      0.0266
    175  CG1      -10.7480  -14.3630  -32.3170 C.3   159  VAL159      0.0020
    176  CG2      -10.1750  -11.9240  -31.9440 C.3   159  VAL159      0.0020
    177  N         -6.8420  -12.8990  -31.9470 N.am  160  ASP160     -0.1974
    178  CA        -5.7300  -12.0150  -32.2780 C.3   160  ASP160      0.1709
    179  C         -4.5560  -12.0800  -31.3080 C.2   160  ASP160      0.2293
    180  O         -4.4890  -11.3450  -30.3180 O.2   160  ASP160     -0.2864
    181  CB        -6.2150  -10.5740  -32.4050 C.3   160  ASP160      0.1436
    182  CG        -5.4310   -9.8020  -33.4430 C.2   160  ASP160      0.3671
    183  OD1       -4.2340  -10.1120  -33.6150 O.co2 160  ASP160     -0.2456
    184  OD2       -6.0090   -8.9150  -34.1060 O.co2 160  ASP160     -0.2456
@<TRIPOS>BOND
     1    34    33    2
     2    39    38    1
     3    38    37    1
     4    33    32    1
     5    37    36    1
     6    36    35    1
     7    35    32    1
     8    32    31    1
     9     1     2    1
    10    68    69    1
    11    48    47    2
    12    27    26    2
    13    47    46    1
    14    26    25    1
    15     2     5    1
    16     2     3    1
    17    24    25    1
    18     7     5    1
    19    45    46    1
    20     5     6    1
    21    25    28    1
    22    46    49    1
    23    69    70    1
    24    69    72    1
    25    70    71    2
    26    42    43    2
    27    42    41    1
    28    18    17    2
    29    11    10    2
    30    40    41    1
    31     3     8   am
    32     3     4    2
    33   103   102   ar
    34   103   101   ar
    35     8     9    1
    36    41    44    1
    37   102   100   ar
    38   101    99   ar
    39   100    98   ar
    40    72    73    1
    41    99    98   ar
    42    28    29    1
    43    28    30    1
    44    98    97    1
    45    49    50    1
    46    19    17   am
    47    17    16    1
    48    10     9    1
    49    10    12   am
    50    50    51    1
    51    97    94    1
    52    76    77    1
    53    74    73    1
    54    79    78    2
    55    73    75    1
    56    12    13    1
    57    13    16    1
    58    13    14    1
    59    51    52    1
    60    78    77    1
    61    78    84   am
    62    94    93    1
    63    94    95    1
    64    77    80    1
    65    20    14   am
    66    20    21    1
    67    93    86   am
    68    14    15    2
    69    83    82    1
    70    23    22    2
    71    52    53    1
    72    86    85    1
    73    86    87    2
    74    84    85    1
    75    95    96    2
    76    95   104   am
    77    81    80    1
    78    81    82    1
    79    85    88    1
    80   113   112    2
    81    21    22    1
    82   111   112    1
    83   111   110    1
    84   104   105    1
    85   112   114   am
    86   107   106    2
    87   110   106   am
    88    61    60   ar
    89   106   105    1
    90    62    60   ar
    91    60    59    1
    92    88    89    1
    93   105   108    1
    94    89    90    1
    95   114   115    1
    96    59    58    1
    97    58    55    1
    98   135   134   ar
    99    56    57    2
   100    56    55    1
   101   119   120    1
   102   119   116   am
   103   120   121    1
   104   184   182   ar
   105   115   116    1
   106   115   118    1
   107   116   117    2
   108   143   142    2
   109   144   142   am
   110   108   109    1
   111    54    55    1
   112   134   136   ar
   113   134   133    1
   114   183   182   ar
   115   142   141    1
   116   182   181    1
   117    90    92   ar
   118    90    91   ar
   119   169   167    1
   120   153   151   am
   121   133   130    1
   122   152   151    2
   123   121   123   am
   124   121   122    2
   125   168   167    1
   126   123   124    1
   127   151   150    1
   128   181   178    1
   129    67    64    1
   130   141   138    1
   131   175   174    1
   132   178   177    1
   133   178   179    1
   134   167   166    1
   135    65    66    2
   136    65    64    1
   137   174   176    1
   138   174   171    1
   139   177   172   am
   140   130   131    1
   141   130   129    1
   142   128   127    1
   143    64    63    1
   144   127   124    1
   145   148   147    2
   146   132   131    2
   147   138   137    1
   148   138   139    1
   149   166   163    1
   150   150   149    1
   151   124   125    1
   152   179   180    2
   153   160   159    2
   154   149   146    1
   155   171   172    1
   156   171   170    1
   157   172   173    2
   158   126   125    2
   159   140   139    2
   160   147   146    1
   161   147   154   am
   162   146   145    1
   163   163   164    1
   164   163   162    1
   165   159   161   am
   166   159   158    1
   167   164   165    2
   168   155   154    1
   169   155   158    1
   170   155   156    1
   171   156   157    2
