@<TRIPOS>MOLECULE
tmp/5axdB01.pdb
 161 149 0 0 0
SMALL
GASTEIGER

@<TRIPOS>ATOM
      1  N        -29.4580  -35.5620   67.7250 N.3    52  LEU52      -0.1231
      2  CA       -30.4100  -36.0110   66.7120 C.3    52  LEU52       0.1693
      3  C        -29.9840  -35.3940   65.3850 C.2    52  LEU52       0.2592
      4  O        -29.7140  -34.2000   65.3270 O.2    52  LEU52      -0.2718
      5  CB       -31.8210  -35.5570   67.0870 C.3    52  LEU52       0.0284
      6  CG       -32.9830  -36.3190   66.4180 C.3    52  LEU52       0.0019
      7  CD1      -34.2540  -36.2980   67.2720 C.3    52  LEU52       0.0001
      8  CD2      -33.2490  -35.7490   65.0400 C.3    52  LEU52       0.0001
      9  N        -29.9510  -36.2280   64.3380 N.am   53  HIS53      -0.1976
     10  CA       -29.6670  -35.8500   62.9550 C.3    53  HIS53       0.1656
     11  C        -29.9240  -34.3860   62.6440 C.2    53  HIS53       0.2291
     12  O        -31.0650  -33.9260   62.6990 O.2    53  HIS53      -0.2864
     13  CB       -30.4970  -36.7100   61.9810 C.3    53  HIS53       0.0771
     14  CG       -30.4210  -38.1780   62.2730 C.ar   53  HIS53       0.0820
     15  ND1      -29.2910  -38.9190   62.0250 N.ar   53  HIS53      -0.2267
     16  CD2      -31.3350  -39.0430   62.7800 C.ar   53  HIS53       0.1154
     17  CE1      -29.5020  -40.1790   62.3740 C.ar   53  HIS53       0.1986
     18  NE2      -30.7410  -40.2780   62.8280 N.ar   53  HIS53      -0.2212
     19  N        -30.7170  -32.1320   60.4870 N.3    55  THR55      -0.1218
     20  CA       -31.3450  -31.9850   59.1750 C.3    55  THR55       0.1862
     21  C        -32.2110  -30.7210   59.1510 C.2    55  THR55       0.2287
     22  O        -32.4060  -30.0500   60.1780 O.2    55  THR55      -0.2866
     23  CB       -32.2730  -33.1680   58.9100 C.3    55  THR55       0.1770
     24  OG1      -33.2920  -33.1680   59.9080 O.3    55  THR55      -0.2211
     25  CG2      -31.5210  -34.4870   58.9490 C.3    55  THR55       0.0375
     26  N        -35.3680  -30.7680   58.8870 N.3    57  GLU57      -0.1231
     27  CA       -36.5130  -31.0620   59.7460 C.3    57  GLU57       0.1699
     28  C        -36.1800  -30.8000   61.2020 C.2    57  GLU57       0.2592
     29  O        -36.9800  -30.2400   61.9550 O.2    57  GLU57      -0.2718
     30  CB       -36.9330  -32.5250   59.5600 C.3    57  GLU57       0.0402
     31  CG       -37.4920  -32.7960   58.1480 C.3    57  GLU57       0.1161
     32  CD       -36.4290  -32.7120   57.0550 C.2    57  GLU57       0.3649
     33  OE1      -35.3000  -33.2180   57.2360 O.co2  57  GLU57      -0.2457
     34  OE2      -36.7110  -32.0890   56.0070 O.co2  57  GLU57      -0.2457
     35  N        -34.9960  -31.2310   61.6020 N.am   58  THR58      -0.1953
     36  CA       -34.5570  -31.0580   62.9760 C.3    58  THR58       0.1897
     37  C        -34.3650  -29.5780   63.3070 C.2    58  THR58       0.2313
     38  O        -34.6330  -29.1450   64.4310 O.2    58  THR58      -0.2863
     39  CB       -33.3320  -31.8950   63.2140 C.3    58  THR58       0.1794
     40  OG1      -33.7330  -33.2710   63.0510 O.3    58  THR58      -0.2208
     41  CG2      -32.7470  -31.6840   64.6310 C.3    58  THR58       0.0378
     42  N        -26.6780  -37.2360   65.7180 N.3    77  CYS77      -0.1235
     43  CA       -26.4550  -38.5860   66.2220 C.3    77  CYS77       0.1677
     44  C        -25.8690  -39.5340   65.1640 C.2    77  CYS77       0.2270
     45  O        -25.8160  -40.7570   65.3690 O.2    77  CYS77      -0.2867
     46  CB       -27.7540  -39.1440   66.8110 C.3    77  CYS77       0.0956
     47  SG       -29.0760  -39.3700   65.5710 S.3    77  CYS77      -0.0801
     48  N        -31.5890  -39.5230   70.1900 N.3   129  ASP129     -0.1239
     49  CA       -31.9670  -40.4120   69.0970 C.3   129  ASP129      0.1674
     50  C        -30.8800  -41.4680   69.0120 C.2   129  ASP129      0.2266
     51  O        -29.7970  -41.2330   68.4260 O.2   129  ASP129     -0.2867
     52  CB       -32.0430  -39.5930   67.8080 C.3   129  ASP129      0.1410
     53  CG       -32.4330  -40.4180   66.5880 C.2   129  ASP129      0.3668
     54  OD1      -32.2770  -41.6480   66.5990 O.co2 129  ASP129     -0.2456
     55  OD2      -32.8970  -39.7960   65.6060 O.co2 129  ASP129     -0.2456
     56  N        -36.0130  -40.8890   70.5850 N.3   154  GLU154     -0.1231
     57  CA       -36.6530  -40.9130   69.2610 C.3   154  GLU154      0.1699
     58  C        -36.8780  -42.3010   68.6310 C.2   154  GLU154      0.2592
     59  O        -37.8770  -42.4990   67.9130 O.2   154  GLU154     -0.2718
     60  CB       -35.8050  -40.0380   68.3080 C.3   154  GLU154      0.0402
     61  CG       -36.2430  -40.0230   66.8190 C.3   154  GLU154      0.1161
     62  CD       -37.3530  -39.0340   66.5200 C.2   154  GLU154      0.3649
     63  OE1      -37.7080  -38.2410   67.4190 O.co2 154  GLU154     -0.2457
     64  OE2      -37.8500  -39.0230   65.3540 O.co2 154  GLU154     -0.2457
     65  N        -35.9490  -43.2350   68.8280 N.am  155  THR155     -0.1953
     66  CA       -35.9130  -44.3990   67.9270 C.3   155  THR155      0.1897
     67  C        -35.9280  -45.7450   68.6340 C.2   155  THR155      0.2313
     68  O        -35.5530  -45.8690   69.8090 O.2   155  THR155     -0.2863
     69  CB       -34.7290  -44.2930   66.9440 C.3   155  THR155      0.1794
     70  OG1      -34.9930  -45.0610   65.7610 O.3   155  THR155     -0.2208
     71  CG2      -33.4040  -44.7420   67.6120 C.3   155  THR155      0.0378
     72  N        -45.7330  -41.7780   65.8880 N.3   184  LYS184     -0.1245
     73  CA       -44.3270  -41.8900   65.4910 C.3   184  LYS184      0.1561
     74  C        -44.1160  -43.2500   64.8140 C.2   184  LYS184      0.2260
     75  O        -43.9740  -43.3180   63.6030 O.2   184  LYS184     -0.2867
     76  CB       -43.3880  -41.6600   66.6940 C.3   184  LYS184      0.0271
     77  CG       -41.9630  -41.2700   66.3100 C.3   184  LYS184      0.0035
     78  CD       -41.1850  -42.4670   65.7640 C.3   184  LYS184      0.0206
     79  CE       -39.7330  -42.0550   65.4910 C.3   184  LYS184      0.1093
     80  NZ       -38.8880  -43.2330   65.1390 N.3   184  LYS184     -0.1314
     81  N        -43.6160  -42.4310   60.9470 N.3   188  ASP188     -0.1225
     82  CA       -42.1920  -42.2230   60.6660 C.3   188  ASP188      0.1805
     83  C        -41.5110  -43.5290   60.2570 C.2   188  ASP188      0.2597
     84  O        -40.9410  -43.6340   59.1510 O.2   188  ASP188     -0.2718
     85  CB       -41.5620  -41.5790   61.9210 C.3   188  ASP188      0.1424
     86  CG       -40.0370  -41.4930   61.8880 C.2   188  ASP188      0.3668
     87  OD1      -39.3440  -42.4520   61.5000 O.co2 188  ASP188     -0.2456
     88  OD2      -39.5280  -40.4570   62.3580 O.co2 188  ASP188     -0.2456
     89  N        -41.5680  -44.5330   61.1210 N.am  189  ASN189     -0.1974
     90  CA       -40.7800  -45.7370   60.8450 C.3   189  ASN189      0.1688
     91  C        -41.2290  -46.4230   59.5600 C.2   189  ASN189      0.2292
     92  O        -40.4150  -47.0040   58.8520 O.2   189  ASN189     -0.2864
     93  CB       -40.8690  -46.7420   62.0070 C.3   189  ASN189      0.1181
     94  CG       -40.3420  -46.1960   63.3320 C.2   189  ASN189      0.2629
     95  OD1      -39.7860  -46.9610   64.1450 O.2   189  ASN189     -0.2716
     96  ND2      -40.5490  -44.9370   63.5860 N.am  189  ASN189     -0.0877
     97  N        -31.0930  -49.5250   59.7200 N.3   298  GLY298     -0.1225
     98  CA       -31.4650  -49.8650   61.0930 C.3   298  GLY298      0.1811
     99  C        -30.6670  -49.1240   62.1510 C.2   298  GLY298      0.2280
    100  O        -31.0780  -48.0480   62.6020 O.2   298  GLY298     -0.2866
    101  N        -26.7110  -45.4470   58.4590 N.3   342  LEU342     -0.1245
    102  CA       -28.0900  -45.2290   57.9440 C.3   342  LEU342      0.1561
    103  C        -28.1140  -44.6420   56.5510 C.2   342  LEU342      0.2260
    104  O        -27.6580  -43.5230   56.3400 O.2   342  LEU342     -0.2867
    105  CB       -28.8760  -44.2750   58.8390 C.3   342  LEU342      0.0270
    106  CG       -29.0440  -44.5910   60.3070 C.3   342  LEU342      0.0019
    107  CD1      -29.9900  -43.6120   60.9330 C.3   342  LEU342      0.0001
    108  CD2      -29.6030  -45.9800   60.4060 C.3   342  LEU342      0.0001
    109  N        -30.6600  -43.7940   54.4140 N.3   344  ASN344     -0.1225
    110  CA       -31.5780  -42.7200   54.0600 C.3   344  ASN344      0.1785
    111  C        -31.0720  -41.3420   54.4440 C.2   344  ASN344      0.2597
    112  O        -31.2120  -40.3900   53.6730 O.2   344  ASN344     -0.2718
    113  CB       -32.9840  -42.9670   54.6320 C.3   344  ASN344      0.1169
    114  CG       -33.0150  -43.0710   56.1550 C.2   344  ASN344      0.2627
    115  OD1      -32.0460  -43.5050   56.8100 O.2   344  ASN344     -0.2716
    116  ND2      -34.1800  -42.7340   56.7270 N.am  344  ASN344     -0.0877
    117  N        -30.4770  -41.2560   55.6250 N.am  345  LEU345     -0.1980
    118  CA       -29.8880  -39.9990   56.1180 C.3   345  LEU345      0.1596
    119  C        -28.4740  -39.7610   55.5810 C.2   345  LEU345      0.2287
    120  O        -28.0840  -38.6080   55.3930 O.2   345  LEU345     -0.2864
    121  CB       -29.8930  -40.0140   57.6510 C.3   345  LEU345      0.0297
    122  CG       -31.3180  -39.7970   58.1870 C.3   345  LEU345      0.0022
    123  CD1      -31.5900  -40.5900   59.4590 C.3   345  LEU345      0.0001
    124  CD2      -31.5910  -38.3220   58.3920 C.3   345  LEU345      0.0001
    125  N        -31.6850  -37.4410   52.2580 N.3   349  MET349     -0.1245
    126  CA       -32.0370  -36.3370   53.1390 C.3   349  MET349      0.1570
    127  C        -32.8840  -36.8020   54.3120 C.2   349  MET349      0.2261
    128  O        -33.5260  -35.9970   55.0020 O.2   349  MET349     -0.2867
    129  CB       -32.7550  -35.2150   52.3640 C.3   349  MET349      0.0387
    130  CG       -31.9180  -34.6300   51.2330 C.3   349  MET349      0.0595
    131  SD       -30.4850  -33.6970   51.8070 S.3   349  MET349     -0.1393
    132  CE       -31.2430  -32.1130   52.1490 C.3   349  MET349      0.0692
    133  N        -36.1050  -38.8130   56.2030 N.3   351  HIS351     -0.1241
    134  CA       -37.5470  -38.7150   55.9680 C.3   351  HIS351      0.1621
    135  C        -37.9300  -37.3130   55.5870 C.2   351  HIS351      0.2264
    136  O        -37.3690  -36.3480   56.0950 O.2   351  HIS351     -0.2867
    137  CB       -38.3330  -39.1050   57.2190 C.3   351  HIS351      0.0745
    138  CG       -38.0910  -40.5110   57.6460 C.ar  351  HIS351      0.0817
    139  ND1      -38.4650  -40.9960   58.8820 N.ar  351  HIS351     -0.2268
    140  CD2      -37.5020  -41.5400   56.9940 C.ar  351  HIS351      0.1154
    141  CE1      -38.1260  -42.2750   58.9600 C.ar  351  HIS351      0.1986
    142  NE2      -37.5240  -42.6160   57.8360 N.ar  351  HIS351     -0.2212
    143  N        -41.8800  -36.1250   59.5030 N.3   356  MET356     -0.1245
    144  CA       -41.0710  -35.7270   60.6730 C.3   356  MET356      0.1570
    145  C        -41.7890  -34.7580   61.6050 C.2   356  MET356      0.2261
    146  O        -41.4780  -34.7120   62.8080 O.2   356  MET356     -0.2867
    147  CB       -39.6950  -35.1560   60.2830 C.3   356  MET356      0.0387
    148  CG       -38.7530  -36.1640   59.5730 C.3   356  MET356      0.0595
    149  SD       -38.6160  -37.7360   60.4630 S.3   356  MET356     -0.1393
    150  CE       -38.0230  -37.2030   62.0790 C.3   356  MET356      0.0692
    151  N        -41.6250  -35.1460   65.5240 N.3   360  PHE360     -0.1241
    152  CA       -41.1110  -34.0280   66.3060 C.3   360  PHE360      0.1605
    153  C        -42.1600  -33.2710   67.1160 C.2   360  PHE360      0.2264
    154  O        -41.8170  -32.6760   68.1560 O.2   360  PHE360     -0.2867
    155  CB       -40.3240  -33.0760   65.4040 C.3   360  PHE360      0.0534
    156  CG       -39.0260  -33.6700   64.8600 C.ar  360  PHE360     -0.0203
    157  CD1      -38.4730  -34.8280   65.4070 C.ar  360  PHE360     -0.0042
    158  CD2      -38.3790  -33.0610   63.7800 C.ar  360  PHE360     -0.0042
    159  CE1      -37.2690  -35.3640   64.9050 C.ar  360  PHE360     -0.0003
    160  CE2      -37.1720  -33.5770   63.2890 C.ar  360  PHE360     -0.0003
    161  CZ       -36.6200  -34.7260   63.8460 C.ar  360  PHE360     -0.0000
@<TRIPOS>BOND
     1   130   131    1
     2   130   129    1
     3   131   132    1
     4   125   126    1
     5   129   126    1
     6   126   127    1
     7   112   111    2
     8   110   109    1
     9   110   111    1
    10   110   113    1
    11   127   128    2
    12   111   117   am
    13   113   114    1
    14   120   119    2
    15   119   118    1
    16   135   134    1
    17   135   136    2
    18   117   118    1
    19   134   133    1
    20   134   137    1
    21    34    32   ar
    22   118   121    1
    23   114   116   am
    24   114   115    2
    25   104   103    2
    26   103   102    1
    27   140   138   ar
    28   140   142   ar
    29    32    33   ar
    30    32    31    1
    31   137   138    1
    32   138   139   ar
    33   121   122    1
    34   142   141   ar
    35   102   101    1
    36   102   105    1
    37    31    30    1
    38   122   124    1
    39   122   123    1
    40   105   106    1
    41    92    91    2
    42   139   141   ar
    43    26    27    1
    44    23    25    1
    45    23    20    1
    46    23    24    1
    47    84    83    2
    48    21    20    1
    49    21    22    2
    50    20    19    1
    51   143   144    1
    52    91    90    1
    53    30    27    1
    54   148   147    1
    55   148   149    1
    56    97    98    1
    57    27    28    1
    58    83    82    1
    59    83    89   am
    60   147   144    1
    61   106   108    1
    62   106   107    1
    63   149   150    1
    64    82    81    1
    65    82    85    1
    66   144   145    1
    67    90    89    1
    68    90    93    1
    69    98    99    1
    70    28    35   am
    71    28    29    2
    72    87    86   ar
    73    35    36    1
    74   145   146    2
    75    86    85    1
    76    86    88   ar
    77    13    14    1
    78    13    10    1
    79    93    94    1
    80    15    14   ar
    81    15    17   ar
    82    99   100    2
    83    14    16   ar
    84    17    18   ar
    85    11    12    2
    86    11    10    1
    87    16    18   ar
    88    10     9    1
    89    36    39    1
    90    36    37    1
    91    40    39    1
    92    39    41    1
    93   160   158   ar
    94   160   161   ar
    95    37    38    2
    96    94    96   am
    97    94    95    2
    98    75    74    2
    99   158   156   ar
   100   161   159   ar
   101     9     3   am
   102    74    73    1
   103   156   155    1
   104   156   157   ar
   105   159   157   ar
   106     8     6    1
   107    80    79    1
   108    44    45    2
   109    44    43    1
   110     4     3    2
   111    64    62   ar
   112     3     2    1
   113   155   152    1
   114    79    78    1
   115    73    72    1
   116    73    76    1
   117   151   152    1
   118    47    46    1
   119    55    53   ar
   120    42    43    1
   121    70    69    1
   122    78    77    1
   123    43    46    1
   124   152   153    1
   125    77    76    1
   126     6     5    1
   127     6     7    1
   128    62    61    1
   129    62    63   ar
   130    53    54   ar
   131    53    52    1
   132     2     5    1
   133     2     1    1
   134    61    60    1
   135    69    71    1
   136    69    66    1
   137   153   154    2
   138    52    49    1
   139    59    58    2
   140    66    67    1
   141    66    65    1
   142    60    57    1
   143    51    50    2
   144    58    65   am
   145    58    57    1
   146    67    68    2
   147    50    49    1
   148    49    48    1
   149    57    56    1
