@<TRIPOS>MOLECULE
tmp/5axhB02.pdb
 127 123 0 0 0
SMALL
GASTEIGER

@<TRIPOS>ATOM
      1  N          6.6120   53.5650   46.5890 N.3   160  TYR160     -0.1227
      2  CA         6.4670   53.1060   45.2150 C.3   160  TYR160      0.1736
      3  C          5.0270   53.3320   44.7270 C.2   160  TYR160      0.2595
      4  O          4.0830   52.8540   45.3560 O.2   160  TYR160     -0.2718
      5  CB         6.8210   51.6210   45.1410 C.3   160  TYR160      0.0548
      6  CG         6.7780   51.0470   43.7510 C.ar  160  TYR160     -0.0200
      7  CD1        5.5840   50.5500   43.2180 C.ar  160  TYR160     -0.0009
      8  CD2        7.9310   50.9930   42.9580 C.ar  160  TYR160     -0.0009
      9  CE1        5.5260   50.0270   41.9320 C.ar  160  TYR160      0.0417
     10  CE2        7.8900   50.4680   41.6700 C.ar  160  TYR160      0.0417
     11  CZ         6.6800   49.9860   41.1580 C.ar  160  TYR160      0.1957
     12  OH         6.6210   49.4650   39.8870 O.3   160  TYR160     -0.2866
     13  N          4.8840   54.0220   43.5940 N.am  161  ASP161     -0.1974
     14  CA         3.5660   54.3700   42.9920 C.3   161  ASP161      0.1709
     15  C          2.6140   55.0840   43.9650 C.2   161  ASP161      0.2293
     16  O          1.4490   54.7190   44.1270 O.2   161  ASP161     -0.2864
     17  CB         2.9000   53.1650   42.3100 C.3   161  ASP161      0.1436
     18  CG         3.6280   52.7210   41.0330 C.2   161  ASP161      0.3671
     19  OD1        4.5890   53.4070   40.5920 O.co2 161  ASP161     -0.2456
     20  OD2        3.2420   51.6590   40.4700 O.co2 161  ASP161     -0.2456
     21  N          3.5820   60.4560   36.2610 N.3   166  HIS166     -0.1241
     22  CA         5.0530   60.4790   36.1280 C.3   166  HIS166      0.1621
     23  C          5.5910   61.8210   35.5910 C.2   166  HIS166      0.2264
     24  O          6.7160   62.1910   35.8750 O.2   166  HIS166     -0.2867
     25  CB         5.5370   59.3670   35.2050 C.3   166  HIS166      0.0745
     26  CG         5.5430   58.0100   35.8230 C.ar  166  HIS166      0.0817
     27  ND1        4.4090   57.4070   36.3230 N.ar  166  HIS166     -0.2268
     28  CD2        6.5490   57.1160   35.9860 C.ar  166  HIS166      0.1154
     29  CE1        4.7180   56.2070   36.7820 C.ar  166  HIS166      0.1986
     30  NE2        6.0110   56.0050   36.5870 N.ar  166  HIS166     -0.2212
     31  N         -0.7440   55.2730   38.8320 N.3   184  ILE184     -0.1245
     32  CA        -0.6600   54.7430   37.4820 C.3   184  ILE184      0.1561
     33  C         -1.5200   53.4870   37.2290 C.2   184  ILE184      0.2260
     34  O         -2.0070   53.2770   36.1030 O.2   184  ILE184     -0.2867
     35  CB         0.8040   54.5110   37.0580 C.3   184  ILE184      0.0252
     36  CG1        0.8630   54.3150   35.5370 C.3   184  ILE184      0.0019
     37  CG2        1.4170   53.3350   37.8270 C.3   184  ILE184      0.0019
     38  CD1        2.2200   54.5650   34.9300 C.3   184  ILE184      0.0001
     39  N          9.4610   57.8050   44.6240 N.3   211  TYR211     -0.1241
     40  CA         9.6810   57.1140   43.3570 C.3   211  TYR211      0.1605
     41  C          9.0660   57.8580   42.1770 C.2   211  TYR211      0.2264
     42  O          7.8760   58.2150   42.2020 O.2   211  TYR211     -0.2867
     43  CB         9.0740   55.7090   43.3620 C.3   211  TYR211      0.0534
     44  CG         9.2310   55.0020   42.0320 C.ar  211  TYR211     -0.0201
     45  CD1       10.4490   54.4050   41.6720 C.ar  211  TYR211     -0.0009
     46  CD2        8.1700   54.9410   41.1110 C.ar  211  TYR211     -0.0009
     47  CE1       10.6080   53.7590   40.4420 C.ar  211  TYR211      0.0417
     48  CE2        8.3230   54.3060   39.8780 C.ar  211  TYR211      0.0417
     49  CZ         9.5380   53.7090   39.5420 C.ar  211  TYR211      0.1957
     50  OH         9.6820   53.0670   38.3210 O.3   211  TYR211     -0.2866
     51  N         10.1570   57.8460   37.5850 N.3   213  LEU213     -0.1245
     52  CA        11.1270   57.7060   36.5130 C.3   213  LEU213      0.1561
     53  C         11.8370   59.0230   36.2080 C.2   213  LEU213      0.2260
     54  O         11.3390   60.1150   36.5110 O.2   213  LEU213     -0.2867
     55  CB        10.4540   57.2010   35.2410 C.3   213  LEU213      0.0270
     56  CG        10.0060   55.7540   35.2260 C.3   213  LEU213      0.0019
     57  CD1        9.2160   55.4860   33.9450 C.3   213  LEU213      0.0001
     58  CD2       11.2000   54.8210   35.3240 C.3   213  LEU213      0.0001
     59  N          7.0750   52.5860   27.5230 N.3   244  HIS244     -0.1241
     60  CA         6.9220   51.4080   28.3570 C.3   244  HIS244      0.1621
     61  C          5.4490   51.0000   28.3130 C.2   244  HIS244      0.2264
     62  O          4.6100   51.7320   28.8270 O.2   244  HIS244     -0.2867
     63  CB         7.3610   51.6940   29.7980 C.3   244  HIS244      0.0745
     64  CG         7.3000   50.4910   30.6960 C.ar  244  HIS244      0.0817
     65  ND1        8.0340   49.3470   30.4590 N.ar  244  HIS244     -0.2268
     66  CD2        6.5880   50.2520   31.8220 C.ar  244  HIS244      0.1154
     67  CE1        7.7810   48.4580   31.4030 C.ar  244  HIS244      0.1986
     68  NE2        6.9060   48.9830   32.2430 N.ar  244  HIS244     -0.2212
     69  N          1.8850   49.2810   29.1700 N.3   246  LEU246     -0.1245
     70  CA         1.2000   48.9460   30.4260 C.3   246  LEU246      0.1561
     71  C         -0.1470   48.2790   30.1340 C.2   246  LEU246      0.2260
     72  O         -0.6470   48.3900   29.0280 O.2   246  LEU246     -0.2867
     73  CB         1.0020   50.2130   31.2530 C.3   246  LEU246      0.0270
     74  CG         2.3230   50.8830   31.6650 C.3   246  LEU246      0.0019
     75  CD1        2.0860   52.2960   32.1620 C.3   246  LEU246      0.0001
     76  CD2        3.0710   50.0570   32.7000 C.3   246  LEU246      0.0001
     77  N         -5.1290   50.4020   33.0260 N.3   250  TRP250     -0.1241
     78  CA        -4.3830   51.3280   33.8870 C.3   250  TRP250      0.1605
     79  C         -4.6430   52.7730   33.4860 C.2   250  TRP250      0.2264
     80  O         -5.2980   53.0280   32.4830 O.2   250  TRP250     -0.2867
     81  CB        -2.8820   50.9830   33.8500 C.3   250  TRP250      0.0550
     82  CG        -2.5160   49.8050   34.7210 C.ar  250  TRP250      0.0003
     83  CD1       -3.2980   48.7370   35.0410 C.ar  250  TRP250      0.0946
     84  CD2       -1.2560   49.5810   35.3560 C.ar  250  TRP250      0.0152
     85  NE1       -2.6070   47.8690   35.8480 N.ar  250  TRP250     -0.2442
     86  CE2       -1.3490   48.3660   36.0560 C.ar  250  TRP250      0.0810
     87  CE3       -0.0600   50.3080   35.4210 C.ar  250  TRP250      0.0012
     88  CZ2       -0.2800   47.8490   36.8090 C.ar  250  TRP250      0.0191
     89  CZ3        0.9910   49.7980   36.1550 C.ar  250  TRP250      0.0001
     90  CH2        0.8770   48.5810   36.8390 C.ar  250  TRP250      0.0015
     91  N          3.7690   54.5220   29.0850 N.3   255  LEU255     -0.1245
     92  CA         4.5700   55.6600   29.5020 C.3   255  LEU255      0.1561
     93  C          5.5410   56.0010   28.3870 C.2   255  LEU255      0.2260
     94  O          6.4170   55.1940   28.0460 O.2   255  LEU255     -0.2867
     95  CB         5.3330   55.3400   30.7890 C.3   255  LEU255      0.0270
     96  CG         4.5010   55.3450   32.0730 C.3   255  LEU255      0.0019
     97  CD1        5.2530   54.6340   33.1970 C.3   255  LEU255      0.0001
     98  CD2        4.1420   56.7780   32.4550 C.3   255  LEU255      0.0001
     99  N         14.4880   52.2720   33.2310 N.3   290  LEU290     -0.1245
    100  CA        13.9680   51.0170   32.7210 C.3   290  LEU290      0.1561
    101  C         15.0510   50.0850   32.2090 C.2   290  LEU290      0.2260
    102  O         14.7530   48.9470   31.8700 O.2   290  LEU290     -0.2867
    103  CB        12.9470   51.3050   31.6170 C.3   290  LEU290      0.0270
    104  CG        11.7340   52.1290   32.0590 C.3   290  LEU290      0.0019
    105  CD1       10.8700   52.4650   30.8610 C.3   290  LEU290      0.0001
    106  CD2       10.9170   51.3860   33.1010 C.3   290  LEU290      0.0001
    107  N          8.8000   43.1640   40.5040 N.3   427  GLU427     -0.1231
    108  CA         9.2790   44.5240   40.2540 C.3   427  GLU427      0.1699
    109  C          8.1410   45.5240   40.3810 C.2   427  GLU427      0.2592
    110  O          8.3630   46.6980   40.7130 O.2   427  GLU427     -0.2718
    111  CB        10.0240   44.6150   38.8930 C.3   427  GLU427      0.0402
    112  CG         9.1820   44.6900   37.6110 C.3   427  GLU427      0.1161
    113  CD         8.6690   43.3420   37.1180 C.2   427  GLU427      0.3649
    114  OE1        8.5970   42.3860   37.9070 O.co2 427  GLU427     -0.2457
    115  OE2        8.3400   43.2260   35.9170 O.co2 427  GLU427     -0.2457
    116  N          6.9140   45.0600   40.1340 N.am  428  TYR428     -0.1976
    117  CA         5.7190   45.7770   40.5710 C.3   428  TYR428      0.1639
    118  C          5.5340   45.5520   42.0760 C.2   428  TYR428      0.2290
    119  O          4.9960   44.5140   42.4820 O.2   428  TYR428     -0.2864
    120  CB         4.4740   45.3160   39.7880 C.3   428  TYR428      0.0560
    121  CG         3.2580   46.1570   40.0960 C.ar  428  TYR428     -0.0198
    122  CD1        3.2740   47.5400   39.8560 C.ar  428  TYR428     -0.0009
    123  CD2        2.0950   45.5940   40.6210 C.ar  428  TYR428     -0.0009
    124  CE1        2.1850   48.3260   40.1240 C.ar  428  TYR428      0.0417
    125  CE2        0.9760   46.3870   40.8890 C.ar  428  TYR428      0.0417
    126  CZ         1.0460   47.7590   40.6520 C.ar  428  TYR428      0.1957
    127  OH        -0.0080   48.5820   40.9350 O.3   428  TYR428     -0.2866
@<TRIPOS>BOND
     1    59    60    1
     2    94    93    2
     3    61    60    1
     4    61    62    2
     5    60    63    1
     6    93    92    1
     7    72    71    2
     8    91    92    1
     9    69    70    1
    10    92    95    1
    11    63    64    1
    12    71    70    1
    13    70    73    1
    14    65    64   ar
    15    65    67   ar
    16    64    66   ar
    17    95    96    1
    18   105   104    1
    19    73    74    1
    20    67    68   ar
    21   103   104    1
    22   103   100    1
    23    74    75    1
    24    74    76    1
    25    66    68   ar
    26   102   101    2
    27   104   106    1
    28    96    98    1
    29    96    97    1
    30   101   100    1
    31    80    79    2
    32   100    99    1
    33    77    78    1
    34    79    78    1
    35    81    78    1
    36    81    82    1
    37    57    56    1
    38    82    83   ar
    39    82    84   ar
    40    38    36    1
    41    83    85   ar
    42    25    26    1
    43    25    22    1
    44    56    55    1
    45    56    58    1
    46    55    52    1
    47    84    87   ar
    48    84    86   ar
    49    87    89   ar
    50    36    35    1
    51    23    24    2
    52    23    22    1
    53    26    28   ar
    54    26    27   ar
    55    85    86   ar
    56   115   113   ar
    57    28    30   ar
    58    86    88   ar
    59    34    33    2
    60    22    21    1
    61    89    90   ar
    62    53    54    2
    63    53    52    1
    64    27    29   ar
    65    52    51    1
    66    30    29   ar
    67    88    90   ar
    68    35    32    1
    69    35    37    1
    70   113   112    1
    71   113   114   ar
    72    33    32    1
    73    32    31    1
    74   112   111    1
    75    50    49    1
    76   111   108    1
    77    49    48   ar
    78    49    47   ar
    79   120   121    1
    80   120   117    1
    81   122   121   ar
    82   122   124   ar
    83    48    46   ar
    84    12    11    1
    85   121   123   ar
    86   124   126   ar
    87   116   109   am
    88   116   117    1
    89   108   109    1
    90   108   107    1
    91   109   110    2
    92    47    45   ar
    93    20    18   ar
    94   117   118    1
    95    19    18   ar
    96   123   125   ar
    97   126   125   ar
    98   126   127    1
    99    18    17    1
   100    46    44   ar
   101    11    10   ar
   102    11     9   ar
   103    10     8   ar
   104    45    44   ar
   105     9     7   ar
   106    44    43    1
   107   118   119    2
   108    41    42    2
   109    41    40    1
   110    17    14    1
   111     8     6   ar
   112    14    13    1
   113    14    15    1
   114     7     6   ar
   115    40    43    1
   116    40    39    1
   117    13     3   am
   118     6     5    1
   119    15    16    2
   120     3     2    1
   121     3     4    2
   122     5     2    1
   123     2     1    1
