@<TRIPOS>MOLECULE
tmp/5axhB04.pdb
 115 110 0 0 0
SMALL
GASTEIGER

@<TRIPOS>ATOM
      1  N          7.0750   52.5860   27.5230 N.3   244  HIS244     -0.1241
      2  CA         6.9220   51.4080   28.3570 C.3   244  HIS244      0.1621
      3  C          5.4490   51.0000   28.3130 C.2   244  HIS244      0.2264
      4  O          4.6100   51.7320   28.8270 O.2   244  HIS244     -0.2867
      5  CB         7.3610   51.6940   29.7980 C.3   244  HIS244      0.0745
      6  CG         7.3000   50.4910   30.6960 C.ar  244  HIS244      0.0817
      7  ND1        8.0340   49.3470   30.4590 N.ar  244  HIS244     -0.2268
      8  CD2        6.5880   50.2520   31.8220 C.ar  244  HIS244      0.1154
      9  CE1        7.7810   48.4580   31.4030 C.ar  244  HIS244      0.1986
     10  NE2        6.9060   48.9830   32.2430 N.ar  244  HIS244     -0.2212
     11  N         14.6930   54.1500   36.2770 N.3   289  THR289     -0.1203
     12  CA        15.0640   53.9150   34.8990 C.3   289  THR289      0.1994
     13  C         14.5610   52.5370   34.5280 C.2   289  THR289      0.2617
     14  O         14.2560   51.7380   35.3990 O.2   289  THR289     -0.2717
     15  CB        16.5970   54.0040   34.6320 C.3   289  THR289      0.1784
     16  OG1       17.2710   52.8710   35.1840 O.3   289  THR289     -0.2211
     17  CG2       17.1950   55.2920   35.1900 C.3   289  THR289      0.0376
     18  N         14.4880   52.2720   33.2310 N.am  290  LEU290     -0.1979
     19  CA        13.9680   51.0170   32.7210 C.3   290  LEU290      0.1596
     20  C         15.0510   50.0850   32.2090 C.2   290  LEU290      0.2287
     21  O         14.7530   48.9470   31.8700 O.2   290  LEU290     -0.2864
     22  CB        12.9470   51.3050   31.6170 C.3   290  LEU290      0.0297
     23  CG        11.7340   52.1290   32.0590 C.3   290  LEU290      0.0022
     24  CD1       10.8700   52.4650   30.8610 C.3   290  LEU290      0.0001
     25  CD2       10.9170   51.3860   33.1010 C.3   290  LEU290      0.0001
     26  N         17.3390   50.3740   26.2070 N.3   293  ARG293     -0.1245
     27  CA        16.2040   50.5460   25.2910 C.3   293  ARG293      0.1563
     28  C         16.5430   50.1740   23.8400 C.2   293  ARG293      0.2260
     29  O         15.7410   50.4100   22.9400 O.2   293  ARG293     -0.2867
     30  CB        15.7130   51.9960   25.3750 C.3   293  ARG293      0.0307
     31  CG        15.4170   52.4880   26.7880 C.3   293  ARG293      0.0489
     32  CD        14.3490   51.6460   27.4600 C.3   293  ARG293      0.2205
     33  NE        13.0770   51.6850   26.7300 N.pl3 293  ARG293     -0.0865
     34  CZ        11.9930   50.9830   27.0500 C.cat 293  ARG293      0.5346
     35  NH1       11.9960   50.1520   28.0860 N.pl3 293  ARG293      0.1354
     36  NH2       10.8810   51.1140   26.3270 N.pl3 293  ARG293      0.1354
     37  N         18.2660   53.9990   40.1680 N.3   328  ASN328     -0.1240
     38  CA        18.3880   52.5760   39.8860 C.3   328  ASN328      0.1653
     39  C         18.9720   52.3170   38.4890 C.2   328  ASN328      0.2266
     40  O         18.4710   52.8150   37.4770 O.2   328  ASN328     -0.2867
     41  CB        17.0590   51.8690   40.0640 C.3   328  ASN328      0.1155
     42  CG        16.1520   52.0970   38.9250 C.2   328  ASN328      0.2627
     43  OD1       15.9320   53.2360   38.5240 O.2   328  ASN328     -0.2716
     44  ND2       15.6630   51.0270   38.3430 N.am  328  ASN328     -0.0877
     45  N         19.3110   49.4260   36.1580 N.3   330  VAL330     -0.1231
     46  CA        18.7840   48.0800   35.8990 C.3   330  VAL330      0.1692
     47  C         19.8180   47.1860   35.2180 C.2   330  VAL330      0.2592
     48  O         20.3570   47.5400   34.1570 O.2   330  VAL330     -0.2718
     49  CB        17.5210   48.1170   35.0110 C.3   330  VAL330      0.0266
     50  CG1       16.9810   46.7140   34.7580 C.3   330  VAL330      0.0020
     51  CG2       16.4310   48.9890   35.6230 C.3   330  VAL330      0.0020
     52  N         20.0880   46.0300   35.8180 N.am  331  ASN331     -0.1974
     53  CA        21.1440   45.1310   35.3640 C.3   331  ASN331      0.1688
     54  C         22.4860   45.8250   35.1820 C.2   331  ASN331      0.2292
     55  O         23.2170   45.5100   34.2590 O.2   331  ASN331     -0.2864
     56  CB        20.7230   44.4240   34.0590 C.3   331  ASN331      0.1181
     57  CG        19.7200   43.3260   34.2970 C.2   331  ASN331      0.2629
     58  OD1       19.8680   42.5200   35.2230 O.2   331  ASN331     -0.2716
     59  ND2       18.7020   43.2670   33.4520 N.am  331  ASN331     -0.0877
     60  N         18.8490   46.6750   40.2140 N.3   350  GLU350     -0.1245
     61  CA        17.9800   45.5400   39.9850 C.3   350  GLU350      0.1567
     62  C         18.7520   44.5310   39.1620 C.2   350  GLU350      0.2260
     63  O         19.2690   44.8590   38.0920 O.2   350  GLU350     -0.2867
     64  CB        16.7150   45.9210   39.2010 C.3   350  GLU350      0.0388
     65  CG        15.7980   46.9060   39.9050 C.3   350  GLU350      0.1160
     66  CD        16.0750   48.3840   39.6040 C.2   350  GLU350      0.3649
     67  OE1       17.1890   48.7760   39.1360 O.co2 350  GLU350     -0.2457
     68  OE2       15.1620   49.2000   39.8710 O.co2 350  GLU350     -0.2457
     69  N         18.6360   40.6990   37.2660 N.3   352  TRP352     -0.1241
     70  CA        17.7050   39.7610   36.6670 C.3   352  TRP352      0.1605
     71  C         18.3880   38.5050   36.1250 C.2   352  TRP352      0.2264
     72  O         19.4020   38.5880   35.4170 O.2   352  TRP352     -0.2867
     73  CB        16.9760   40.4430   35.5280 C.3   352  TRP352      0.0550
     74  CG        16.0240   41.4470   36.0110 C.ar  352  TRP352      0.0003
     75  CD1       16.2720   42.7660   36.2170 C.ar  352  TRP352      0.0946
     76  CD2       14.6740   41.2220   36.3940 C.ar  352  TRP352      0.0152
     77  NE1       15.1520   43.3820   36.6880 N.ar  352  TRP352     -0.2442
     78  CE2       14.1510   42.4590   36.8020 C.ar  352  TRP352      0.0810
     79  CE3       13.8440   40.1000   36.4010 C.ar  352  TRP352      0.0012
     80  CZ2       12.8320   42.6140   37.2400 C.ar  352  TRP352      0.0191
     81  CZ3       12.5230   40.2460   36.8430 C.ar  352  TRP352      0.0001
     82  CH2       12.0340   41.4950   37.2560 C.ar  352  TRP352      0.0015
     83  N         14.3560   40.1110   43.2030 N.3   384  TYR384     -0.1241
     84  CA        13.0170   39.7330   43.6220 C.3   384  TYR384      0.1605
     85  C         12.9640   38.2130   43.7350 C.2   384  TYR384      0.2264
     86  O         13.1300   37.4970   42.7420 O.2   384  TYR384     -0.2867
     87  CB        11.9520   40.2820   42.6580 C.3   384  TYR384      0.0534
     88  CG        12.1620   41.7570   42.3240 C.ar  384  TYR384     -0.0201
     89  CD1       12.1250   42.7330   43.3180 C.ar  384  TYR384     -0.0009
     90  CD2       12.4530   42.1640   41.0240 C.ar  384  TYR384     -0.0009
     91  CE1       12.3430   44.0760   43.0200 C.ar  384  TYR384      0.0417
     92  CE2       12.6780   43.5030   40.7210 C.ar  384  TYR384      0.0417
     93  CZ        12.6280   44.4520   41.7200 C.ar  384  TYR384      0.1957
     94  OH        12.8450   45.7740   41.4050 O.3   384  TYR384     -0.2866
     95  N         10.4810   34.6000   42.0090 N.3   387  TYR387     -0.1241
     96  CA         9.7090   35.3500   41.0330 C.3   387  TYR387      0.1605
     97  C          8.7530   34.4510   40.2470 C.2   387  TYR387      0.2264
     98  O          7.6370   34.8680   39.9430 O.2   387  TYR387     -0.2867
     99  CB        10.6720   36.0700   40.0950 C.3   387  TYR387      0.0534
    100  CG        10.0480   37.0680   39.1510 C.ar  387  TYR387     -0.0201
    101  CD1        9.8460   38.3720   39.5470 C.ar  387  TYR387     -0.0009
    102  CD2        9.6950   36.7080   37.8320 C.ar  387  TYR387     -0.0009
    103  CE1        9.2910   39.3020   38.6880 C.ar  387  TYR387      0.0417
    104  CE2        9.1480   37.6360   36.9610 C.ar  387  TYR387      0.0417
    105  CZ         8.9550   38.9400   37.4010 C.ar  387  TYR387      0.1957
    106  OH         8.4160   39.8930   36.5750 O.3   387  TYR387     -0.2866
    107  N          8.8000   43.1640   40.5040 N.3   427  GLU427     -0.1245
    108  CA         9.2790   44.5240   40.2540 C.3   427  GLU427      0.1567
    109  C          8.1410   45.5240   40.3810 C.2   427  GLU427      0.2260
    110  O          8.3630   46.6980   40.7130 O.2   427  GLU427     -0.2867
    111  CB        10.0240   44.6150   38.8930 C.3   427  GLU427      0.0388
    112  CG         9.1820   44.6900   37.6110 C.3   427  GLU427      0.1160
    113  CD         8.6690   43.3420   37.1180 C.2   427  GLU427      0.3649
    114  OE1        8.5970   42.3860   37.9070 O.co2 427  GLU427     -0.2457
    115  OE2        8.3400   43.2260   35.9170 O.co2 427  GLU427     -0.2457
@<TRIPOS>BOND
     1    29    28    2
     2    28    27    1
     3    27    30    1
     4    27    26    1
     5    30    31    1
     6    36    34    1
     7    33    34    2
     8    33    32    1
     9    31    32    1
    10    34    35    1
    11     1     2    1
    12     3     2    1
    13     3     4    2
    14     2     5    1
    15     5     6    1
    16     7     6   ar
    17     7     9   ar
    18     6     8   ar
    19    24    23    1
    20     9    10   ar
    21    22    23    1
    22    22    19    1
    23     8    10   ar
    24    21    20    2
    25    23    25    1
    26    20    19    1
    27    19    18    1
    28    18    13   am
    29    59    57   am
    30    56    57    1
    31    56    53    1
    32    48    47    2
    33    55    54    2
    34    57    58    2
    35    13    12    1
    36    13    14    2
    37    15    12    1
    38    15    16    1
    39    15    17    1
    40    50    49    1
    41    12    11    1
    42    49    51    1
    43    49    46    1
    44    54    53    1
    45    47    52   am
    46    47    46    1
    47    53    52    1
    48    72    71    2
    49    73    74    1
    50    73    70    1
    51    46    45    1
    52   115   113   ar
    53    74    75   ar
    54    74    76   ar
    55    71    70    1
    56    75    77   ar
    57    76    79   ar
    58    76    78   ar
    59    79    81   ar
    60   106   105    1
    61    70    69    1
    62    77    78   ar
    63    78    80   ar
    64    81    82   ar
    65   104   105   ar
    66   104   102   ar
    67   113   112    1
    68   113   114   ar
    69    80    82   ar
    70   105   103   ar
    71    40    39    2
    72   112   111    1
    73   102   100   ar
    74    63    62    2
    75    44    42   am
    76    39    38    1
    77    43    42    2
    78   103   101   ar
    79   111   108    1
    80    42    41    1
    81    67    66   ar
    82   100   101   ar
    83   100    99    1
    84    62    61    1
    85    64    65    1
    86    64    61    1
    87    66    68   ar
    88    66    65    1
    89    38    41    1
    90    38    37    1
    91    98    97    2
    92    61    60    1
    93    99    96    1
    94    97    96    1
    95   108   109    1
    96   108   107    1
    97   109   110    2
    98    92    90   ar
    99    92    93   ar
   100    90    88   ar
   101    96    95    1
   102    94    93    1
   103    93    91   ar
   104    88    87    1
   105    88    89   ar
   106    87    84    1
   107    86    85    2
   108    91    89   ar
   109    83    84    1
   110    84    85    1
