@<TRIPOS>MOLECULE
tmp/5axlB00.pdb
 165 165 0 0 0
SMALL
GASTEIGER

@<TRIPOS>ATOM
      1  N         32.4420    6.0070  -18.5100 N.3    19  ASP19      -0.1225
      2  CA        32.5560    7.2630  -19.2320 C.3    19  ASP19       0.1805
      3  C         33.7820    7.2320  -20.1350 C.2    19  ASP19       0.2598
      4  O         34.8860    6.9490  -19.6720 O.2    19  ASP19      -0.2718
      5  CB        32.6360    8.4280  -18.2420 C.3    19  ASP19       0.1424
      6  CG        32.5880    9.7790  -18.9180 C.2    19  ASP19       0.3668
      7  OD1       33.6390   10.2320  -19.4170 O.co2  19  ASP19      -0.2456
      8  OD2       31.5000   10.3910  -18.9460 O.co2  19  ASP19      -0.2456
      9  N         33.5830    7.5150  -21.4200 N.am   20  GLY20      -0.1942
     10  CA        34.6720    7.5530  -22.3810 C.3    20  GLY20       0.2014
     11  C         35.8110    8.4670  -21.9710 C.2    20  GLY20       0.2639
     12  O         35.6060    9.6530  -21.7290 O.2    20  GLY20      -0.2714
     13  N         37.0150    7.9120  -21.8800 N.am   21  ARG21      -0.1963
     14  CA        38.1810    8.6950  -21.4930 C.3    21  ARG21       0.1729
     15  C         38.7590    9.4940  -22.6520 C.2    21  ARG21       0.2616
     16  O         39.0860    8.9300  -23.6980 O.2    21  ARG21      -0.2715
     17  CB        39.2690    7.7860  -20.9240 C.3    21  ARG21       0.0348
     18  CG        40.5640    8.5200  -20.6280 C.3    21  ARG21       0.0492
     19  CD        41.7070    7.5540  -20.3920 C.3    21  ARG21       0.2205
     20  NE        42.9240    8.2400  -19.9690 N.pl3  21  ARG21      -0.0865
     21  CZ        44.1130    8.0620  -20.5350 C.cat  21  ARG21       0.5346
     22  NH1       44.2460    7.2220  -21.5530 N.pl3  21  ARG21       0.1354
     23  NH2       45.1700    8.7260  -20.0880 N.pl3  21  ARG21       0.1354
     24  N         38.8960   10.8020  -22.4430 N.am   22  ASN22      -0.1958
     25  CA        39.5070   11.7080  -23.4150 C.3    22  ASN22       0.1819
     26  C         38.9680   11.5050  -24.8330 C.2    22  ASN22       0.2621
     27  O         39.7150   11.5710  -25.8080 O.2    22  ASN22      -0.2715
     28  CB        41.0290   11.5440  -23.3950 C.3    22  ASN22       0.1195
     29  CG        41.7520   12.7190  -24.0300 C.2    22  ASN22       0.2630
     30  OD1       41.2760   13.8540  -23.9840 O.2    22  ASN22      -0.2716
     31  ND2       42.9090   12.4510  -24.6250 N.am   22  ASN22      -0.0877
     32  N         37.6680   11.2490  -24.9360 N.am   23  PHE23      -0.1960
     33  CA        37.0390   10.9400  -26.2160 C.3    23  PHE23       0.1771
     34  C         37.0880   12.1210  -27.1750 C.2    23  PHE23       0.2619
     35  O         36.9500   11.9460  -28.3860 O.2    23  PHE23      -0.2715
     36  CB        35.5890   10.4910  -26.0150 C.3    23  PHE23       0.0574
     37  CG        35.4270    9.0010  -25.9210 C.ar   23  PHE23      -0.0200
     38  CD1       36.4970    8.1950  -25.5680 C.ar   23  PHE23      -0.0042
     39  CD2       34.2100    8.4050  -26.1990 C.ar   23  PHE23      -0.0042
     40  CE1       36.3520    6.8230  -25.4860 C.ar   23  PHE23      -0.0003
     41  CE2       34.0570    7.0340  -26.1190 C.ar   23  PHE23      -0.0003
     42  CZ        35.1310    6.2420  -25.7610 C.ar   23  PHE23      -0.0000
     43  N         37.2600   13.3210  -26.6280 N.am   24  LYS24      -0.1977
     44  CA        37.3710   14.5250  -27.4400 C.3    24  LYS24       0.1596
     45  C         38.4690   14.4040  -28.4930 C.2    24  LYS24       0.2287
     46  O         38.2030   14.5250  -29.6850 O.2    24  LYS24      -0.2864
     47  CB        37.6550   15.7360  -26.5480 C.3    24  LYS24       0.0298
     48  CG        37.7030   17.0600  -27.2900 C.3    24  LYS24       0.0038
     49  CD        37.9130   18.2190  -26.3290 C.3    24  LYS24       0.0206
     50  CE        38.1760   19.5170  -27.0760 C.3    24  LYS24       0.1093
     51  NZ        38.3920   20.6590  -26.1440 N.3    24  LYS24      -0.1314
     52  N         33.7680   13.2850  -36.9400 N.3    32  PHE32      -0.1227
     53  CA        32.3910   13.0950  -36.5050 C.3    32  PHE32       0.1736
     54  C         31.6720   14.4380  -36.5000 C.2    32  PHE32       0.2595
     55  O         32.2630   15.4580  -36.1420 O.2    32  PHE32      -0.2718
     56  CB        32.3350   12.4730  -35.1070 C.3    32  PHE32       0.0547
     57  CG        32.5320   10.9820  -35.0880 C.ar   32  PHE32      -0.0202
     58  CD1       31.4750   10.1230  -35.3460 C.ar   32  PHE32      -0.0042
     59  CD2       33.7730   10.4390  -34.7980 C.ar   32  PHE32      -0.0042
     60  CE1       31.6560    8.7530  -35.3240 C.ar   32  PHE32      -0.0003
     61  CE2       33.9600    9.0700  -34.7750 C.ar   32  PHE32      -0.0003
     62  CZ        32.8990    8.2250  -35.0380 C.ar   32  PHE32      -0.0000
     63  N         30.4050   14.4430  -36.9090 N.am   33  GLU33      -0.1965
     64  CA        29.6250   15.6760  -36.9250 C.3    33  GLU33       0.1733
     65  C         29.5470   16.2610  -35.5180 C.2    33  GLU33       0.2616
     66  O         29.4370   15.5280  -34.5370 O.2    33  GLU33      -0.2715
     67  CB        28.2150   15.4350  -37.4780 C.3    33  GLU33       0.0429
     68  CG        27.3870   16.7120  -37.6050 C.3    33  GLU33       0.1163
     69  CD        25.9410   16.4540  -37.9820 C.2    33  GLU33       0.3649
     70  OE1       25.5000   15.2880  -37.9030 O.co2  33  GLU33      -0.2457
     71  OE2       25.2410   17.4220  -38.3530 O.co2  33  GLU33      -0.2457
     72  N         29.5970   17.5850  -35.4300 N.am   34  LYS34      -0.1964
     73  CA        29.5960   18.2810  -34.1500 C.3    34  LYS34       0.1713
     74  C         28.3550   19.1650  -34.0470 C.2    34  LYS34       0.2458
     75  O         27.9310   19.7470  -35.0440 O.2    34  LYS34      -0.2730
     76  CB        30.8740   19.1180  -34.0160 C.3    34  LYS34       0.0311
     77  CG        31.3100   19.4070  -32.5860 C.3    34  LYS34       0.0038
     78  CD        32.5300   20.3180  -32.5530 C.3    34  LYS34       0.0206
     79  CE        32.8050   20.8060  -31.1350 C.3    34  LYS34       0.1093
     80  NZ        34.0210   21.6570  -31.0800 N.3    34  LYS34      -0.1314
     81  N         27.7610   19.2700  -32.8440 N.am   35  PRO35      -0.2716
     82  CA        28.1890   18.7230  -31.5530 C.3    35  PRO35       0.1536
     83  C         27.6390   17.3260  -31.2850 C.2    35  PRO35       0.2599
     84  O         28.0440   16.6790  -30.3170 O.2    35  PRO35      -0.2715
     85  CB        27.6250   19.7270  -30.5540 C.3    35  PRO35       0.0310
     86  CG        26.4020   20.2810  -31.2210 C.3    35  PRO35       0.0237
     87  CD        26.5300   20.0680  -32.7110 C.3    35  PRO35       0.0939
     88  N         26.7330   16.8650  -32.1390 N.am   36  TYR36      -0.1960
     89  CA        26.2050   15.5140  -32.0310 C.3    36  TYR36       0.1771
     90  C         26.3170   14.7840  -33.3580 C.2    36  TYR36       0.2619
     91  O         26.2120   15.3840  -34.4250 O.2    36  TYR36      -0.2715
     92  CB        24.7470   15.5340  -31.5640 C.3    36  TYR36       0.0574
     93  CG        24.5740   15.8240  -30.0910 C.ar   36  TYR36      -0.0198
     94  CD1       24.6150   17.1230  -29.6040 C.ar   36  TYR36      -0.0009
     95  CD2       24.3640   14.7910  -29.1860 C.ar   36  TYR36      -0.0009
     96  CE1       24.4560   17.3840  -28.2550 C.ar   36  TYR36       0.0417
     97  CE2       24.2030   15.0410  -27.8400 C.ar   36  TYR36       0.0417
     98  CZ        24.2500   16.3370  -27.3790 C.ar   36  TYR36       0.1957
     99  OH        24.0900   16.5780  -26.0360 O.3    36  TYR36      -0.2866
    100  N         26.5280   13.4770  -33.2780 N.am   37  ASP37      -0.1971
    101  CA        26.7130   12.6540  -34.4640 C.3    37  ASP37       0.1709
    102  C         26.0210   11.3140  -34.2380 C.2    37  ASP37       0.2293
    103  O         26.4450   10.5270  -33.3920 O.2    37  ASP37      -0.2864
    104  CB        28.2030   12.4630  -34.7760 C.3    37  ASP37       0.1436
    105  CG        28.4450   11.7640  -36.1080 C.2    37  ASP37       0.3671
    106  OD1       27.6690   10.8620  -36.4730 O.co2  37  ASP37      -0.2456
    107  OD2       29.4150   12.1270  -36.8010 O.co2  37  ASP37      -0.2456
    108  N         28.0390    8.0710  -33.9920 N.3    40  PHE40      -0.1227
    109  CA        28.6310    7.8040  -32.6880 C.3    40  PHE40       0.1736
    110  C         27.5850    7.4050  -31.6510 C.2    40  PHE40       0.2595
    111  O         27.8290    6.5190  -30.8360 O.2    40  PHE40      -0.2718
    112  CB        29.4130    9.0180  -32.1940 C.3    40  PHE40       0.0547
    113  CG        29.9640    8.8540  -30.8080 C.ar   40  PHE40      -0.0202
    114  CD1       30.9950    7.9640  -30.5540 C.ar   40  PHE40      -0.0042
    115  CD2       29.4460    9.5870  -29.7540 C.ar   40  PHE40      -0.0042
    116  CE1       31.4970    7.8100  -29.2740 C.ar   40  PHE40      -0.0003
    117  CE2       29.9470    9.4410  -28.4730 C.ar   40  PHE40      -0.0003
    118  CZ        30.9760    8.5520  -28.2330 C.ar   40  PHE40      -0.0000
    119  N         26.4320    8.0670  -31.6670 N.am   41  ALA41      -0.1980
    120  CA        25.3660    7.7550  -30.7170 C.3    41  ALA41       0.1597
    121  C         24.8530    6.3400  -30.9580 C.2    41  ALA41       0.2287
    122  O         24.6000    5.5800  -30.0150 O.2    41  ALA41      -0.2864
    123  CB        24.2360    8.7600  -30.8310 C.3    41  ALA41       0.0319
    124  N         25.8830   11.0710  -24.5250 N.3    66  SER66      -0.1202
    125  CA        27.2230   11.6190  -24.6830 C.3    66  SER66       0.2020
    126  C         28.1920   10.4610  -24.8910 C.2    66  SER66       0.2618
    127  O         27.9520    9.5780  -25.7190 O.2    66  SER66      -0.2717
    128  CB        27.6260   12.4660  -23.4720 C.3    66  SER66       0.2103
    129  OG        28.8730   13.1010  -23.6840 O.3    66  SER66      -0.2182
    130  N         29.2900   10.4690  -24.1440 N.am   67  ASP67      -0.1973
    131  CA        30.2430    9.3710  -24.1930 C.3    67  ASP67       0.1709
    132  C         30.1320    8.4340  -22.9880 C.2    67  ASP67       0.2293
    133  O         31.1320    7.8550  -22.5630 O.2    67  ASP67      -0.2864
    134  CB        31.6660    9.9210  -24.2940 C.3    67  ASP67       0.1436
    135  CG        32.0880   10.6810  -23.0530 C.2    67  ASP67       0.3671
    136  OD1       31.2050   11.1390  -22.2990 O.co2  67  ASP67      -0.2456
    137  OD2       33.3070   10.8180  -22.8310 O.co2  67  ASP67      -0.2456
    138  N         24.4220   18.7860  -20.8790 N.3   135  ASN135     -0.1240
    139  CA        25.3390   18.5160  -21.9680 C.3   135  ASN135      0.1653
    140  C         24.7780   19.1650  -23.2240 C.2   135  ASN135      0.2266
    141  O         25.4120   20.0440  -23.8260 O.2   135  ASN135     -0.2867
    142  CB        25.5200   17.0060  -22.1600 C.3   135  ASN135      0.1155
    143  CG        26.8670   16.6430  -22.7470 C.2   135  ASN135      0.2627
    144  OD1       27.0210   16.5290  -23.9640 O.2   135  ASN135     -0.2716
    145  ND2       27.8510   16.4440  -21.8800 N.am  135  ASN135     -0.0877
    146  N         26.5700   21.7590  -25.4830 N.3   139  SER139     -0.1217
    147  CA        27.1660   21.1880  -26.6800 C.3   139  SER139      0.1889
    148  C         26.8390   22.0540  -27.8830 C.2   139  SER139      0.2288
    149  O         27.6790   22.2610  -28.7580 O.2   139  SER139     -0.2866
    150  CB        26.6770   19.7560  -26.9000 C.3   139  SER139      0.2089
    151  OG        27.0170   18.9260  -25.8030 O.3   139  SER139     -0.2183
    152  N         16.4790   12.2830  -28.4450 N.3   184  TRP184     -0.1241
    153  CA        17.6110   11.5610  -27.8660 C.3   184  TRP184      0.1605
    154  C         18.8090   12.4560  -27.5540 C.2   184  TRP184      0.2264
    155  O         19.6190   12.1250  -26.6910 O.2   184  TRP184     -0.2867
    156  CB        18.0540   10.4150  -28.7820 C.3   184  TRP184      0.0550
    157  CG        18.6130   10.8480  -30.1020 C.ar  184  TRP184      0.0003
    158  CD1       17.9350   10.9650  -31.2790 C.ar  184  TRP184      0.0946
    159  CD2       19.9700   11.2240  -30.3790 C.ar  184  TRP184      0.0152
    160  NE1       18.7860   11.3870  -32.2730 N.ar  184  TRP184     -0.2442
    161  CE2       20.0360   11.5540  -31.7470 C.ar  184  TRP184      0.0810
    162  CE3       21.1290   11.3120  -29.6030 C.ar  184  TRP184      0.0012
    163  CZ2       21.2220   11.9670  -32.3540 C.ar  184  TRP184      0.0191
    164  CZ3       22.3020   11.7240  -30.2090 C.ar  184  TRP184      0.0001
    165  CH2       22.3400   12.0460  -31.5710 C.ar  184  TRP184      0.0015
@<TRIPOS>BOND
     1    71    69   ar
     2    69    70   ar
     3    69    68    1
     4    68    67    1
     5    67    64    1
     6    52    53    1
     7    64    63    1
     8    64    65    1
     9    63    54   am
    10   107   105   ar
    11    53    54    1
    12    53    56    1
    13    54    55    2
    14   106   105   ar
    15   105   104    1
    16    65    72   am
    17    65    66    2
    18    72    73    1
    19    58    60   ar
    20    58    57   ar
    21    60    62   ar
    22    56    57    1
    23    57    59   ar
    24    75    74    2
    25    62    61   ar
    26    59    61   ar
    27   104   101    1
    28   101   102    1
    29   101   100    1
    30    91    90    2
    31   102   103    2
    32    73    74    1
    33    73    76    1
    34    74    81   am
    35    76    77    1
    36   108   109    1
    37    90   100   am
    38    90    89    1
    39    81    87    1
    40    81    82    1
    41    87    86    1
    42   109   112    1
    43   109   110    1
    44    77    78    1
    45    78    79    1
    46   163   161   ar
    47   163   165   ar
    48   160   161   ar
    49   160   158   ar
    50   112   113    1
    51    88    89    1
    52    88    83   am
    53    89    92    1
    54   161   159   ar
    55   119   110   am
    56   119   120    1
    57   110   111    2
    58   165   164   ar
    59    92    93    1
    60    82    83    1
    61    82    85    1
    62    83    84    2
    63   158   157   ar
    64    86    85    1
    65    79    80    1
    66   121   120    1
    67   121   122    2
    68   123   120    1
    69   113   114   ar
    70   113   115   ar
    71   114   116   ar
    72   159   157   ar
    73   159   162   ar
    74   164   162   ar
    75   157   156    1
    76    93    94   ar
    77    93    95   ar
    78   115   117   ar
    79    46    45    2
    80    94    96   ar
    81   116   118   ar
    82    95    97   ar
    83   156   153    1
    84   149   148    2
    85    45    44    1
    86   117   118   ar
    87   152   153    1
    88    35    34    2
    89    96    98   ar
    90   148   147    1
    91   153   154    1
    92    97    98   ar
    93   154   155    2
    94    44    43    1
    95    44    47    1
    96    98    99    1
    97    48    47    1
    98    48    49    1
    99    34    43   am
   100    34    33    1
   101    50    49    1
   102    50    51    1
   103   150   147    1
   104   150   151    1
   105   147   146    1
   106    33    36    1
   107    33    32    1
   108    39    41   ar
   109    39    37   ar
   110    41    42   ar
   111    36    37    1
   112    37    38   ar
   113    27    26    2
   114    42    40   ar
   115   127   126    2
   116    38    40   ar
   117    32    26   am
   118   126   125    1
   119   126   130   am
   120    26    25    1
   121   125   124    1
   122   125   128    1
   123    31    29   am
   124   134   131    1
   125   134   135    1
   126   131   130    1
   127   131   132    1
   128    29    30    2
   129    29    28    1
   130   144   143    2
   131   141   140    2
   132    16    15    2
   133   129   128    1
   134    25    28    1
   135    25    24    1
   136   140   139    1
   137   135   137   ar
   138   135   136   ar
   139   132   133    2
   140   143   142    1
   141   143   145   am
   142    15    24   am
   143    15    14    1
   144    10    11    1
   145    10     9    1
   146   142   139    1
   147    11    13   am
   148    11    12    2
   149   139   138    1
   150    13    14    1
   151    22    21    1
   152    14    17    1
   153     9     3   am
   154    17    18    1
   155    18    19    1
   156    21    23    1
   157    21    20    2
   158    19    20    1
   159     3     4    2
   160     3     2    1
   161     7     6   ar
   162     2     1    1
   163     2     5    1
   164     8     6   ar
   165     6     5    1
