@<TRIPOS>MOLECULE
tmp/5axnA00.pdb
 94 86 0 0 0
SMALL
GASTEIGER

@<TRIPOS>ATOM
      1  N          6.2020  -15.9430  -43.0750 N.3    19  ARG19      -0.1245
      2  CA         5.8360  -16.8940  -42.0390 C.3    19  ARG19       0.1563
      3  C          4.3620  -17.2400  -42.1470 C.2    19  ARG19       0.2260
      4  O          3.4910  -16.3670  -42.0810 O.2    19  ARG19      -0.2867
      5  CB         6.1520  -16.3690  -40.6390 C.3    19  ARG19       0.0307
      6  CG         6.0000  -17.4550  -39.5760 C.3    19  ARG19       0.0489
      7  CD         6.5740  -17.0540  -38.2290 C.3    19  ARG19       0.2205
      8  NE         5.7930  -16.0000  -37.5930 N.pl3  19  ARG19      -0.0865
      9  CZ         6.1920  -14.7390  -37.4850 C.cat  19  ARG19       0.5346
     10  NH1        7.3720  -14.3730  -37.9620 N.pl3  19  ARG19       0.1354
     11  NH2        5.4130  -13.8470  -36.8920 N.pl3  19  ARG19       0.1354
     12  N          1.3810  -19.4520  -40.4210 N.3    21  ASP21      -0.1239
     13  CA         1.0340  -20.0690  -39.1510 C.3    21  ASP21       0.1674
     14  C         -0.3750  -20.6370  -39.2160 C.2    21  ASP21       0.2266
     15  O         -1.3170  -19.9290  -39.5750 O.2    21  ASP21      -0.2867
     16  CB         1.1520  -19.0510  -38.0140 C.3    21  ASP21       0.1410
     17  CG         1.0490  -19.6900  -36.6440 C.2    21  ASP21       0.3668
     18  OD1       -0.0820  -19.9740  -36.1990 O.co2  21  ASP21      -0.2456
     19  OD2        2.1020  -19.8950  -36.0050 O.co2  21  ASP21      -0.2456
     20  N          2.8520  -25.1930  -35.4000 N.3    69  ASP69      -0.1225
     21  CA         2.2490  -25.2870  -36.7270 C.3    69  ASP69       0.1805
     22  C          2.6620  -24.1450  -37.6570 C.2    69  ASP69       0.2597
     23  O          1.8100  -23.5090  -38.2810 O.2    69  ASP69      -0.2718
     24  CB         0.7240  -25.3330  -36.6140 C.3    69  ASP69       0.1424
     25  CG         0.1680  -24.2350  -35.7300 C.2    69  ASP69       0.3668
     26  OD1        0.8670  -23.2210  -35.5150 O.co2  69  ASP69      -0.2456
     27  OD2       -0.9740  -24.3860  -35.2500 O.co2  69  ASP69      -0.2456
     28  N          3.9620  -23.8900  -37.7650 N.am   70  GLU70      -0.1979
     29  CA         4.4230  -22.7800  -38.5900 C.3    70  GLU70       0.1602
     30  C          5.5340  -23.1590  -39.5630 C.2    70  GLU70       0.2287
     31  O          6.3270  -24.0780  -39.3170 O.2    70  GLU70      -0.2864
     32  CB         4.9020  -21.6300  -37.7090 C.3    70  GLU70       0.0415
     33  CG         6.3260  -21.7940  -37.2400 C.3    70  GLU70       0.1163
     34  CD         6.9040  -20.5160  -36.6920 C.2    70  GLU70       0.3649
     35  OE1        7.9920  -20.1170  -37.1560 O.co2  70  GLU70      -0.2457
     36  OE2        6.2710  -19.9120  -35.8010 O.co2  70  GLU70      -0.2457
     37  N         -2.6080  -18.7240  -41.8610 N.3   112  ASP112     -0.1239
     38  CA        -2.4110  -17.2940  -42.0160 C.3   112  ASP112      0.1674
     39  C         -0.9980  -17.1080  -42.5500 C.2   112  ASP112      0.2266
     40  O         -0.1670  -18.0050  -42.4160 O.2   112  ASP112     -0.2867
     41  CB        -2.6180  -16.5490  -40.6950 C.3   112  ASP112      0.1410
     42  CG        -1.3100  -16.1720  -40.0170 C.2   112  ASP112      0.3668
     43  OD1       -0.4610  -17.0590  -39.7880 O.co2 112  ASP112     -0.2456
     44  OD2       -1.1380  -14.9780  -39.6960 O.co2 112  ASP112     -0.2456
     45  N          2.2540  -13.9550  -43.1760 N.3   114  ARG114     -0.1245
     46  CA         2.7030  -12.5780  -43.0410 C.3   114  ARG114      0.1563
     47  C          4.1200  -12.3950  -43.5640 C.2   114  ARG114      0.2260
     48  O          4.9310  -13.3310  -43.5640 O.2   114  ARG114     -0.2867
     49  CB         2.6150  -12.1230  -41.5840 C.3   114  ARG114      0.0307
     50  CG         3.7030  -12.6690  -40.6860 C.3   114  ARG114      0.0489
     51  CD         3.3720  -12.3970  -39.2350 C.3   114  ARG114      0.2205
     52  NE         2.1650  -13.1050  -38.8230 N.pl3 114  ARG114     -0.0865
     53  CZ         1.5240  -12.8880  -37.6810 C.cat 114  ARG114      0.5346
     54  NH1        1.9740  -11.9750  -36.8330 N.pl3 114  ARG114      0.1354
     55  NH2        0.4340  -13.5810  -37.3900 N.pl3 114  ARG114      0.1354
     56  N         13.1960  -17.6580  -34.1650 N.3   130  ARG130     -0.1245
     57  CA        12.1470  -18.6260  -34.4420 C.3   130  ARG130      0.1563
     58  C         12.4860  -19.9450  -33.7510 C.2   130  ARG130      0.2260
     59  O         11.6280  -20.5540  -33.1100 O.2   130  ARG130     -0.2867
     60  CB        11.9660  -18.8200  -35.9490 C.3   130  ARG130      0.0307
     61  CG        11.2460  -17.6680  -36.6500 C.3   130  ARG130      0.0489
     62  CD         9.7480  -17.6910  -36.3720 C.3   130  ARG130      0.2205
     63  NE         9.3650  -16.8840  -35.2170 N.pl3 130  ARG130     -0.0865
     64  CZ         8.1850  -16.9640  -34.6100 C.cat 130  ARG130      0.5346
     65  NH1        7.2730  -17.8240  -35.0370 N.pl3 130  ARG130      0.1354
     66  NH2        7.9190  -16.1890  -33.5690 N.pl3 130  ARG130      0.1354
     67  N         11.6630  -19.8670  -30.2440 N.3   133  GLU133     -0.1245
     68  CA        10.2450  -20.1340  -30.0480 C.3   133  GLU133      0.1567
     69  C         10.0330  -21.6400  -29.9620 C.2   133  GLU133      0.2260
     70  O          9.3930  -22.1440  -29.0300 O.2   133  GLU133     -0.2867
     71  CB         9.4140  -19.5290  -31.1840 C.3   133  GLU133      0.0388
     72  CG         7.9510  -19.3000  -30.8410 C.3   133  GLU133      0.1160
     73  CD         7.7340  -18.0210  -30.0580 C.2   133  GLU133      0.3649
     74  OE1        8.7120  -17.2680  -29.8650 O.co2 133  GLU133     -0.2457
     75  OE2        6.5850  -17.7650  -29.6380 O.co2 133  GLU133     -0.2457
     76  N         10.6760  -22.9570  -26.4700 N.3   136  ARG136     -0.1231
     77  CA         9.7230  -22.6520  -25.3980 C.3   136  ARG136      0.1694
     78  C          8.5020  -23.5480  -25.4930 C.2   136  ARG136      0.2592
     79  O          8.1750  -24.2870  -24.5600 O.2   136  ARG136     -0.2718
     80  CB         9.2770  -21.1910  -25.4350 C.3   136  ARG136      0.0321
     81  CG         9.8940  -20.3630  -26.5310 C.3   136  ARG136      0.0489
     82  CD        10.3840  -19.0510  -25.9740 C.3   136  ARG136      0.2205
     83  NE        11.8320  -18.9070  -26.0920 N.pl3 136  ARG136     -0.0865
     84  CZ        12.7220  -19.5870  -25.3750 C.cat 136  ARG136      0.5346
     85  NH1       12.3290  -20.4780  -24.4770 N.pl3 136  ARG136      0.1354
     86  NH2       14.0160  -19.3740  -25.5580 N.pl3 136  ARG136      0.1354
     87  N          7.8480  -23.4920  -26.6470 N.am  137  ASN137     -0.1974
     88  CA         6.6740  -24.3050  -26.9100 C.3   137  ASN137      0.1688
     89  C          6.9810  -25.8000  -26.8540 C.2   137  ASN137      0.2292
     90  O          6.0680  -26.6160  -26.7960 O.2   137  ASN137     -0.2864
     91  CB         6.0750  -23.9380  -28.2690 C.3   137  ASN137      0.1181
     92  CG         5.6330  -22.4840  -28.3370 C.2   137  ASN137      0.2629
     93  OD1        5.3210  -21.8680  -27.3160 O.2   137  ASN137     -0.2716
     94  ND2        5.6040  -21.9300  -29.5460 N.am  137  ASN137     -0.0877
@<TRIPOS>BOND
     1    48    47    2
     2    47    46    1
     3    45    46    1
     4     1     2    1
     5    46    49    1
     6    39    40    2
     7    39    38    1
     8     3     4    2
     9     3     2    1
    10     2     5    1
    11    38    37    1
    12    38    41    1
    13    49    50    1
    14    41    42    1
    15    50    51    1
    16     5     6    1
    17    12    13    1
    18    42    43   ar
    19    42    44   ar
    20     6     7    1
    21    15    14    2
    22    30    31    2
    23    30    29    1
    24    51    52    1
    25    14    13    1
    26    13    16    1
    27    52    53    2
    28    29    28    1
    29    29    32    1
    30    23    22    2
    31     7     8    1
    32    16    17    1
    33    10     9    1
    34    28    22   am
    35    32    33    1
    36    53    55    1
    37    53    54    1
    38    22    21    1
    39     8     9    2
    40     9    11    1
    41    33    34    1
    42    35    34   ar
    43    21    24    1
    44    21    20    1
    45    34    36   ar
    46    61    62    1
    47    61    60    1
    48    17    18   ar
    49    17    19   ar
    50    24    25    1
    51    62    63    1
    52    60    57    1
    53    25    26   ar
    54    25    27   ar
    55    63    64    2
    56    65    64    1
    57    64    66    1
    58    57    56    1
    59    57    58    1
    60    58    59    2
    61    71    72    1
    62    71    68    1
    63    72    73    1
    64    67    68    1
    65    73    74   ar
    66    73    75   ar
    67    68    69    1
    68    69    70    2
    69    94    92   am
    70    92    91    1
    71    92    93    2
    72    91    88    1
    73    88    89    1
    74    88    87    1
    75    89    90    2
    76    87    78   am
    77    81    82    1
    78    81    80    1
    79    76    77    1
    80    83    82    1
    81    83    84    2
    82    86    84    1
    83    78    77    1
    84    78    79    2
    85    80    77    1
    86    84    85    1
