@<TRIPOS>MOLECULE
tmp/5axnB00.pdb
 187 186 0 0 0
SMALL
GASTEIGER

@<TRIPOS>ATOM
      1  N         -9.2220  -15.5670  -56.5690 N.3    19  ASP19      -0.1225
      2  CA        -9.0860  -15.9980  -57.9530 C.3    19  ASP19       0.1805
      3  C         -8.0610  -17.1240  -58.0700 C.2    19  ASP19       0.2598
      4  O         -6.9010  -16.9530  -57.6960 O.2    19  ASP19      -0.2718
      5  CB        -8.6810  -14.8140  -58.8360 C.3    19  ASP19       0.1424
      6  CG        -8.6520  -15.1640  -60.3070 C.2    19  ASP19       0.3668
      7  OD1       -9.6310  -14.8480  -61.0130 O.co2  19  ASP19      -0.2456
      8  OD2       -7.6460  -15.7460  -60.7630 O.co2  19  ASP19      -0.2456
      9  N         -8.4920  -18.2680  -58.5940 N.am   20  GLY20      -0.1942
     10  CA        -7.6240  -19.4240  -58.7360 C.3    20  GLY20       0.2014
     11  C         -6.3690  -19.1470  -59.5400 C.2    20  GLY20       0.2639
     12  O         -6.4190  -18.4900  -60.5770 O.2    20  GLY20      -0.2714
     13  N         -5.2380  -19.6490  -59.0550 N.am   21  ARG21      -0.1963
     14  CA        -3.9530  -19.4210  -59.7050 C.3    21  ARG21       0.1729
     15  C         -3.6120  -20.5330  -60.6900 C.2    21  ARG21       0.2616
     16  O         -3.5530  -21.7050  -60.3120 O.2    21  ARG21      -0.2715
     17  CB        -2.8470  -19.2940  -58.6580 C.3    21  ARG21       0.0348
     18  CG        -1.4490  -19.2110  -59.2440 C.3    21  ARG21       0.0492
     19  CD        -0.4280  -18.9050  -58.1700 C.3    21  ARG21       0.2205
     20  NE         0.9290  -18.8660  -58.7040 N.pl3  21  ARG21      -0.0865
     21  CZ         1.8420  -19.8080  -58.4970 C.cat  21  ARG21       0.5346
     22  NH1        1.5500  -20.8690  -57.7570 N.pl3  21  ARG21       0.1354
     23  NH2        3.0510  -19.6850  -59.0270 N.pl3  21  ARG21       0.1354
     24  N         -3.3850  -20.1520  -61.9460 N.am   22  ASN22      -0.1958
     25  CA        -3.0750  -21.0960  -63.0190 C.3    22  ASN22       0.1819
     26  C         -4.1310  -22.1960  -63.1240 C.2    22  ASN22       0.2621
     27  O         -3.8060  -23.3690  -63.3050 O.2    22  ASN22      -0.2715
     28  CB        -1.6850  -21.7080  -62.8030 C.3    22  ASN22       0.1195
     29  CG        -1.1470  -22.4020  -64.0420 C.2    22  ASN22       0.2630
     30  OD1       -1.5050  -22.0590  -65.1680 O.2    22  ASN22      -0.2716
     31  ND2       -0.2830  -23.3880  -63.8360 N.am   22  ASN22      -0.0877
     32  N         -5.3990  -21.8110  -63.0110 N.am   23  PHE23      -0.1960
     33  CA        -6.4820  -22.7890  -62.9570 C.3    23  PHE23       0.1771
     34  C         -6.8350  -23.3830  -64.3170 C.2    23  PHE23       0.2619
     35  O         -7.1150  -24.5720  -64.4090 O.2    23  PHE23      -0.2715
     36  CB        -7.7340  -22.1710  -62.3310 C.3    23  PHE23       0.0574
     37  CG        -7.8770  -22.4480  -60.8590 C.ar   23  PHE23      -0.0200
     38  CD1       -6.7610  -22.6620  -60.0680 C.ar   23  PHE23      -0.0042
     39  CD2       -9.1310  -22.5190  -60.2720 C.ar   23  PHE23      -0.0042
     40  CE1       -6.8930  -22.9200  -58.7140 C.ar   23  PHE23      -0.0003
     41  CE2       -9.2690  -22.7770  -58.9210 C.ar   23  PHE23      -0.0003
     42  CZ        -8.1490  -22.9780  -58.1410 C.ar   23  PHE23      -0.0000
     43  N         -6.8310  -22.5610  -65.3610 N.am   24  LYS24      -0.1963
     44  CA        -7.1560  -23.0270  -66.7090 C.3    24  LYS24       0.1728
     45  C         -6.3460  -24.2640  -67.0890 C.2    24  LYS24       0.2616
     46  O         -6.9040  -25.2890  -67.4890 O.2    24  LYS24      -0.2715
     47  CB        -6.9150  -21.9140  -67.7290 C.3    24  LYS24       0.0311
     48  CG        -7.0970  -22.3350  -69.1820 C.3    24  LYS24       0.0038
     49  CD        -8.3990  -21.7950  -69.7500 C.3    24  LYS24       0.0206
     50  CE        -8.2610  -21.4210  -71.2200 C.3    24  LYS24       0.1093
     51  NZ        -9.4460  -20.6580  -71.7140 N.3    24  LYS24      -0.1314
     52  N         -5.0300  -24.1650  -66.9320 N.am   25  ASN25      -0.1972
     53  CA        -4.1220  -25.2360  -67.3230 C.3    25  ASN25       0.1688
     54  C         -4.1600  -26.4490  -66.3950 C.2    25  ASN25       0.2292
     55  O         -4.0150  -27.5820  -66.8520 O.2    25  ASN25      -0.2864
     56  CB        -2.6930  -24.7000  -67.4090 C.3    25  ASN25       0.1181
     57  CG        -2.4840  -23.7860  -68.6020 C.2    25  ASN25       0.2629
     58  OD1       -3.4290  -23.4580  -69.3200 O.2    25  ASN25      -0.2716
     59  ND2       -1.2420  -23.3680  -68.8170 N.am   25  ASN25      -0.0877
     60  N         -6.8310  -27.4370  -64.5030 N.3    27  LEU27      -0.1231
     61  CA        -8.1030  -28.0740  -64.8350 C.3    27  LEU27       0.1693
     62  C         -8.0080  -28.7900  -66.1760 C.2    27  LEU27       0.2592
     63  O         -8.5490  -29.8860  -66.3430 O.2    27  LEU27      -0.2718
     64  CB        -9.2380  -27.0480  -64.8730 C.3    27  LEU27       0.0284
     65  CG        -9.6060  -26.3330  -63.5720 C.3    27  LEU27       0.0019
     66  CD1      -10.6980  -25.3020  -63.8250 C.3    27  LEU27       0.0001
     67  CD2      -10.0330  -27.3290  -62.5000 C.3    27  LEU27       0.0001
     68  N         -7.3180  -28.1640  -67.1290 N.am   28  SER28      -0.1952
     69  CA        -7.0810  -28.7820  -68.4310 C.3    28  SER28       0.1924
     70  C         -6.3230  -30.0980  -68.2920 C.2    28  SER28       0.2314
     71  O         -6.6420  -31.0830  -68.9550 O.2    28  SER28      -0.2863
     72  CB        -6.3060  -27.8310  -69.3460 C.3    28  SER28       0.2116
     73  OG        -5.8820  -28.4860  -70.5290 O.3    28  SER28      -0.2180
     74  N        -10.7120  -32.2070  -66.8800 N.3    32  PHE32      -0.1227
     75  CA       -12.0030  -31.5320  -66.8320 C.3    32  PHE32       0.1736
     76  C        -12.4580  -31.1380  -68.2350 C.2    32  PHE32       0.2595
     77  O        -11.6390  -30.9860  -69.1410 O.2    32  PHE32      -0.2718
     78  CB       -11.9330  -30.2950  -65.9350 C.3    32  PHE32       0.0547
     79  CG       -11.9230  -30.6080  -64.4650 C.ar   32  PHE32      -0.0202
     80  CD1      -13.1040  -30.6270  -63.7410 C.ar   32  PHE32      -0.0042
     81  CD2      -10.7340  -30.8780  -63.8050 C.ar   32  PHE32      -0.0042
     82  CE1      -13.1030  -30.9110  -62.3870 C.ar   32  PHE32      -0.0003
     83  CE2      -10.7260  -31.1620  -62.4500 C.ar   32  PHE32      -0.0003
     84  CZ       -11.9130  -31.1780  -61.7410 C.ar   32  PHE32      -0.0000
     85  N        -13.7650  -30.9750  -68.4100 N.am   33  GLU33      -0.1965
     86  CA       -14.3170  -30.5900  -69.7030 C.3    33  GLU33       0.1733
     87  C        -13.9290  -29.1560  -70.0520 C.2    33  GLU33       0.2616
     88  O        -13.7870  -28.3120  -69.1700 O.2    33  GLU33      -0.2715
     89  CB       -15.8390  -30.7420  -69.7030 C.3    33  GLU33       0.0429
     90  CG       -16.4710  -30.5880  -71.0730 C.3    33  GLU33       0.1163
     91  CD       -17.9820  -30.6720  -71.0360 C.2    33  GLU33       0.3649
     92  OE1      -18.5550  -30.6500  -69.9260 O.co2  33  GLU33      -0.2457
     93  OE2      -18.5970  -30.7620  -72.1190 O.co2  33  GLU33      -0.2457
     94  N        -13.7600  -28.8860  -71.3420 N.am   34  LYS34      -0.1964
     95  CA       -13.3640  -27.5600  -71.8100 C.3    34  LYS34       0.1713
     96  C        -14.4140  -26.9470  -72.7340 C.2    34  LYS34       0.2458
     97  O        -15.0370  -27.6570  -73.5220 O.2    34  LYS34      -0.2730
     98  CB       -12.0140  -27.6330  -72.5290 C.3    34  LYS34       0.0311
     99  CG       -10.8190  -27.7800  -71.6010 C.3    34  LYS34       0.0038
    100  CD        -9.6240  -28.3720  -72.3350 C.3    34  LYS34       0.0206
    101  CE        -9.4060  -27.7140  -73.6850 C.3    34  LYS34       0.1093
    102  NZ        -8.2710  -28.3270  -74.4260 N.3    34  LYS34      -0.1314
    103  N        -14.6160  -25.6210  -72.6380 N.am   35  PRO35      -0.2716
    104  CA       -13.9770  -24.7270  -71.6690 C.3    35  PRO35       0.1536
    105  C        -14.7760  -24.6070  -70.3760 C.2    35  PRO35       0.2599
    106  O        -14.4130  -23.8170  -69.5040 O.2    35  PRO35      -0.2715
    107  CB       -13.9440  -23.3920  -72.4080 C.3    35  PRO35       0.0310
    108  CG       -15.1800  -23.4240  -73.2350 C.3    35  PRO35       0.0237
    109  CD       -15.3940  -24.8670  -73.6370 C.3    35  PRO35       0.0939
    110  N        -15.8570  -25.3730  -70.2650 N.am   36  TYR36      -0.1960
    111  CA       -16.6820  -25.3650  -69.0610 C.3    36  TYR36       0.1771
    112  C        -16.9760  -26.7760  -68.5640 C.2    36  TYR36       0.2619
    113  O        -17.3890  -27.6460  -69.3310 O.2    36  TYR36      -0.2715
    114  CB       -17.9960  -24.6190  -69.3110 C.3    36  TYR36       0.0574
    115  CG       -17.8710  -23.1140  -69.2320 C.ar   36  TYR36      -0.0198
    116  CD1      -17.6800  -22.3510  -70.3770 C.ar   36  TYR36      -0.0009
    117  CD2      -17.9350  -22.4570  -68.0090 C.ar   36  TYR36      -0.0009
    118  CE1      -17.5610  -20.9740  -70.3060 C.ar   36  TYR36       0.0417
    119  CE2      -17.8180  -21.0840  -67.9280 C.ar   36  TYR36       0.0417
    120  CZ       -17.6310  -20.3470  -69.0780 C.ar   36  TYR36       0.1957
    121  OH       -17.5120  -18.9790  -68.9970 O.3    36  TYR36      -0.2866
    122  N        -16.7500  -26.9910  -67.2720 N.am   37  ASP37      -0.1971
    123  CA       -17.0580  -28.2600  -66.6230 C.3    37  ASP37       0.1709
    124  C        -17.9800  -27.9960  -65.4400 C.2    37  ASP37       0.2293
    125  O        -17.6100  -27.2830  -64.5080 O.2    37  ASP37      -0.2864
    126  CB       -15.7760  -28.9640  -66.1700 C.3    37  ASP37       0.1436
    127  CG       -16.0080  -30.4070  -65.7570 C.2    37  ASP37       0.3671
    128  OD1      -16.9360  -30.6710  -64.9640 O.co2  37  ASP37      -0.2456
    129  OD2      -15.2580  -31.2850  -66.2310 O.co2  37  ASP37      -0.2456
    130  N        -16.8290  -28.7890  -61.9390 N.3    40  PHE40      -0.1227
    131  CA       -15.9470  -27.7610  -61.4010 C.3    40  PHE40       0.1736
    132  C        -16.7310  -26.5960  -60.8090 C.2    40  PHE40       0.2595
    133  O        -16.4500  -26.1540  -59.6960 O.2    40  PHE40      -0.2718
    134  CB       -14.9940  -27.2340  -62.4760 C.3    40  PHE40       0.0547
    135  CG       -14.1940  -26.0460  -62.0280 C.ar   40  PHE40      -0.0202
    136  CD1      -13.1490  -26.2020  -61.1340 C.ar   40  PHE40      -0.0042
    137  CD2      -14.5030  -24.7720  -62.4740 C.ar   40  PHE40      -0.0042
    138  CE1      -12.4180  -25.1170  -60.7040 C.ar   40  PHE40      -0.0003
    139  CE2      -13.7750  -23.6780  -62.0470 C.ar   40  PHE40      -0.0003
    140  CZ       -12.7300  -23.8500  -61.1620 C.ar   40  PHE40      -0.0000
    141  N        -17.7030  -26.0950  -61.5670 N.am   41  ALA41      -0.1980
    142  CA       -18.5380  -24.9880  -61.1130 C.3    41  ALA41       0.1597
    143  C        -19.2930  -25.3730  -59.8430 C.2    41  ALA41       0.2287
    144  O        -19.4570  -24.5600  -58.9270 O.2    41  ALA41      -0.2864
    145  CB       -19.5050  -24.5730  -62.2040 C.3    41  ALA41       0.0319
    146  N        -16.3560  -18.6540  -63.1890 N.3    66  SER66      -0.1202
    147  CA       -15.0430  -19.0730  -63.6590 C.3    66  SER66       0.2020
    148  C        -14.2520  -19.6340  -62.4800 C.2    66  SER66       0.2618
    149  O        -14.6910  -20.5730  -61.8190 O.2    66  SER66      -0.2717
    150  CB       -14.3010  -17.9080  -64.3230 C.3    66  SER66       0.2103
    151  OG       -13.0460  -18.3170  -64.8370 O.3    66  SER66      -0.2182
    152  N        -13.1000  -19.0430  -62.1980 N.am   67  ASP67      -0.1973
    153  CA       -12.2860  -19.5050  -61.0860 C.3    67  ASP67       0.1709
    154  C        -12.2200  -18.4560  -59.9820 C.2    67  ASP67       0.2293
    155  O        -11.2700  -18.4260  -59.2010 O.2    67  ASP67      -0.2864
    156  CB       -10.8800  -19.8600  -61.5710 C.3    67  ASP67       0.1436
    157  CG       -10.1100  -18.6510  -62.0550 C.2    67  ASP67       0.3671
    158  OD1      -10.7470  -17.6530  -62.4570 O.co2  67  ASP67      -0.2456
    159  OD2       -8.8640  -18.7010  -62.0340 O.co2  67  ASP67      -0.2456
    160  N        -15.6670  -13.1940  -69.9120 N.3   135  ASN135     -0.1240
    161  CA       -14.9760  -14.4760  -69.8870 C.3   135  ASN135      0.1653
    162  C        -15.7340  -15.4930  -70.7240 C.2   135  ASN135      0.2266
    163  O        -15.1400  -16.2360  -71.5130 O.2   135  ASN135     -0.2867
    164  CB       -14.8120  -14.9810  -68.4520 C.3   135  ASN135      0.1155
    165  CG       -14.0800  -16.3080  -68.3830 C.2   135  ASN135      0.2627
    166  OD1      -14.6770  -17.3490  -68.1060 O.2   135  ASN135     -0.2716
    167  ND2      -12.7810  -16.2790  -68.6480 N.am  135  ASN135     -0.0877
    168  N        -13.6200  -17.5580  -73.3690 N.3   139  SER139     -0.1217
    169  CA       -13.3990  -18.9830  -73.1340 C.3   139  SER139      0.1889
    170  C        -13.8950  -19.8520  -74.2850 C.2   139  SER139      0.2288
    171  O        -13.1700  -20.7210  -74.7740 O.2   139  SER139     -0.2866
    172  CB       -14.0830  -19.4050  -71.8320 C.3   139  SER139      0.2089
    173  OG       -13.9710  -18.3810  -70.8610 O.3   139  SER139     -0.2183
    174  N        -25.6640  -20.1530  -65.9680 N.3   184  TRP184     -0.1241
    175  CA       -24.5960  -20.0850  -64.9740 C.3   184  TRP184      0.1605
    176  C        -23.2320  -19.8510  -65.6190 C.2   184  TRP184      0.2264
    177  O        -22.2970  -19.4000  -64.9580 O.2   184  TRP184     -0.2867
    178  CB       -24.5660  -21.3600  -64.1230 C.3   184  TRP184      0.0550
    179  CG       -24.3270  -22.6230  -64.8990 C.ar  184  TRP184      0.0003
    180  CD1      -25.2740  -23.4540  -65.4240 C.ar  184  TRP184      0.0946
    181  CD2      -23.0580  -23.2080  -65.2220 C.ar  184  TRP184      0.0152
    182  NE1      -24.6740  -24.5150  -66.0580 N.ar  184  TRP184     -0.2442
    183  CE2      -23.3140  -24.3860  -65.9500 C.ar  184  TRP184      0.0810
    184  CE3      -21.7310  -22.8460  -64.9690 C.ar  184  TRP184      0.0012
    185  CZ2      -22.2930  -25.2050  -66.4290 C.ar  184  TRP184      0.0191
    186  CZ3      -20.7180  -23.6610  -65.4460 C.ar  184  TRP184      0.0001
    187  CH2      -21.0050  -24.8260  -66.1670 C.ar  184  TRP184      0.0015
@<TRIPOS>BOND
     1   171   170    2
     2   102   101    1
     3   170   169    1
     4   101   100    1
     5   109   108    1
     6   109   103    1
     7    97    96    2
     8   168   169    1
     9   108   107    1
    10   169   172    1
    11    96   103   am
    12    96    95    1
    13   103   104    1
    14    98    95    1
    15    98    99    1
    16   107   104    1
    17   100    99    1
    18    93    91   ar
    19   172   173    1
    20    95    94    1
    21    51    50    1
    22   104   105    1
    23   163   162    2
    24    94    87   am
    25    50    49    1
    26    90    91    1
    27    90    89    1
    28    91    92   ar
    29   162   161    1
    30    73    72    1
    31   116   118   ar
    32   116   115   ar
    33   105   110   am
    34   105   106    2
    35   118   120   ar
    36   110   111    1
    37    87    86    1
    38    87    88    2
    39   160   161    1
    40   161   164    1
    41    49    48    1
    42    89    86    1
    43    86    85    1
    44    72    69    1
    45   113   112    2
    46    58    57    2
    47   114   115    1
    48   114   111    1
    49   115   117   ar
    50    48    47    1
    51    77    76    2
    52   120   121    1
    53   120   119   ar
    54   111   112    1
    55    71    70    2
    56    59    57   am
    57   167   165   am
    58    57    56    1
    59   112   122   am
    60   164   165    1
    61    69    70    1
    62    69    68    1
    63    85    76   am
    64   165   166    2
    65    76    75    1
    66   117   119   ar
    67    47    44    1
    68    46    45    2
    69    56    53    1
    70    53    52    1
    71    53    54    1
    72   122   123    1
    73    68    62   am
    74    45    52   am
    75    45    44    1
    76    74    75    1
    77    55    54    2
    78    75    78    1
    79    44    43    1
    80   123   126    1
    81   123   124    1
    82   185   187   ar
    83   185   183   ar
    84    63    62    2
    85   129   127   ar
    86    62    61    1
    87   126   127    1
    88   187   186   ar
    89   182   183   ar
    90   182   180   ar
    91   174   175    1
    92   183   181   ar
    93    78    79    1
    94   127   128   ar
    95   176   175    1
    96   176   177    2
    97   186   184   ar
    98   124   125    2
    99   180   179   ar
   100    43    34   am
   101   181   184   ar
   102   181   179   ar
   103    30    29    2
   104   175   178    1
   105   179   178    1
   106    64    61    1
   107    64    65    1
   108   151   150    1
   109    61    60    1
   110    79    81   ar
   111    79    80   ar
   112    35    34    2
   113   150   147    1
   114    34    33    1
   115    29    31   am
   116    29    28    1
   117    66    65    1
   118    81    83   ar
   119    80    82   ar
   120   147   146    1
   121   147   148    1
   122    65    67    1
   123    27    26    2
   124    26    25    1
   125    26    32   am
   126    25    28    1
   127    25    24    1
   128    32    33    1
   129    33    36    1
   130   148   152   am
   131   148   149    2
   132   134   135    1
   133   134   131    1
   134   137   139   ar
   135   137   135   ar
   136   158   157   ar
   137    83    84   ar
   138    82    84   ar
   139    36    37    1
   140   145   142    1
   141   152   153    1
   142   157   159   ar
   143   157   156    1
   144   139   140   ar
   145   135   136   ar
   146    24    15   am
   147   130   131    1
   148   156   153    1
   149   141   142    1
   150   141   132   am
   151   131   132    1
   152   140   138   ar
   153   136   138   ar
   154   142   143    1
   155   153   154    1
   156     7     6   ar
   157    37    39   ar
   158    37    38   ar
   159   132   133    2
   160     8     6   ar
   161    15    16    2
   162    15    14    1
   163    12    11    2
   164     6     5    1
   165    39    41   ar
   166    38    40   ar
   167   154   155    2
   168   143   144    2
   169    14    13    1
   170    14    17    1
   171    11    13   am
   172    11    10    1
   173    18    17    1
   174    18    19    1
   175    23    21    1
   176    41    42   ar
   177     5     2    1
   178    10     9    1
   179    40    42   ar
   180    20    21    2
   181    20    19    1
   182     9     3   am
   183    21    22    1
   184     3     2    1
   185     3     4    2
   186     2     1    1
