@<TRIPOS>MOLECULE
tmp/5axoA01.pdb
 139 133 0 0 0
SMALL
GASTEIGER

@<TRIPOS>ATOM
      1  N          7.0080  -12.9120    2.5320 N.3     3  TRP3       -0.1241
      2  CA         5.8300  -12.1140    2.1500 C.3     3  TRP3        0.1605
      3  C          4.5800  -12.4900    2.9670 C.2     3  TRP3        0.2264
      4  O          3.6610  -11.6840    3.1230 O.2     3  TRP3       -0.2867
      5  CB         5.4320  -12.3220    0.6910 C.3     3  TRP3        0.0550
      6  CG         6.3210  -11.7840   -0.3340 C.ar    3  TRP3        0.0003
      7  CD1        7.3760  -10.9710   -0.1500 C.ar    3  TRP3        0.0946
      8  CD2        6.2740  -12.0990   -1.7250 C.ar    3  TRP3        0.0152
      9  NE1        7.9550  -10.6770   -1.3700 N.ar    3  TRP3       -0.2442
     10  CE2        7.2940  -11.3730   -2.3400 C.ar    3  TRP3        0.0810
     11  CE3        5.4180  -12.8830   -2.5180 C.ar    3  TRP3        0.0012
     12  CZ2        7.5480  -11.4610   -3.7160 C.ar    3  TRP3        0.0191
     13  CZ3        5.6810  -12.9790   -3.8840 C.ar    3  TRP3        0.0001
     14  CH2        6.6930  -12.2290   -4.4630 C.ar    3  TRP3        0.0015
     15  N          7.0150   -9.2410    5.6750 N.3    23  GLY23      -0.1225
     16  CA         7.6240   -8.8010    4.4390 C.3    23  GLY23       0.1811
     17  C          6.8580   -7.7850    3.6300 C.2    23  GLY23       0.2280
     18  O          7.4100   -7.2220    2.6920 O.2    23  GLY23      -0.2866
     19  N         -0.0100   -6.6660   -7.9350 N.3    72  HIS72      -0.1226
     20  CA         0.8390   -7.8810   -7.9950 C.3    72  HIS72       0.1752
     21  C          0.5410   -8.7780   -6.7900 C.2    72  HIS72       0.2596
     22  O          0.0370   -8.2940   -5.7520 O.2    72  HIS72      -0.2718
     23  CB         2.3130   -7.5020   -7.9850 C.3    72  HIS72       0.0759
     24  CG         2.7620   -6.8240   -9.2220 C.ar   72  HIS72       0.0818
     25  ND1        3.8520   -5.9730   -9.2350 N.ar   72  HIS72      -0.2268
     26  CD2        2.2950   -6.8920  -10.4900 C.ar   72  HIS72       0.1154
     27  CE1        4.0460   -5.5760  -10.4760 C.ar   72  HIS72       0.1986
     28  NE2        3.1170   -6.1190  -11.2520 N.ar   72  HIS72      -0.2212
     29  N          0.8870  -10.0590   -6.8980 N.am   73  GLU73      -0.1965
     30  CA         0.4950  -11.0200   -5.9020 C.3    73  GLU73       0.1733
     31  C          0.9700  -10.6740   -4.5130 C.2    73  GLU73       0.2616
     32  O          0.3380  -11.0480   -3.5340 O.2    73  GLU73      -0.2715
     33  CB         1.0250  -12.4110   -6.2830 C.3    73  GLU73       0.0429
     34  CG         2.5450  -12.5570   -6.1980 C.3    73  GLU73       0.1163
     35  CD         3.1040  -13.9530   -6.4940 C.2    73  GLU73       0.3649
     36  OE1        2.5090  -14.9460   -6.0540 O.co2  73  GLU73      -0.2457
     37  OE2        4.1570  -14.0430   -7.1590 O.co2  73  GLU73      -0.2457
     38  N          2.1400  -10.0740   -4.3880 N.am   74  ASP74      -0.1957
     39  CA         2.7100   -9.7770   -3.0730 C.3    74  ASP74       0.1840
     40  C          1.9440   -8.6950   -2.2740 C.2    74  ASP74       0.2622
     41  O          1.9080   -8.7950   -1.0580 O.2    74  ASP74      -0.2715
     42  CB         4.2240   -9.5060   -3.1490 C.3    74  ASP74       0.1450
     43  CG         4.6220   -8.4340   -4.1230 C.2    74  ASP74       0.3671
     44  OD1        3.9860   -8.2530   -5.2020 O.co2  74  ASP74      -0.2456
     45  OD2        5.6840   -7.8910   -3.8200 O.co2  74  ASP74      -0.2456
     46  N          1.3280   -7.7330   -2.9540 N.am   75  HIS75      -0.1973
     47  CA         0.5360   -6.7010   -2.3010 C.3    75  HIS75       0.1656
     48  C         -0.9350   -6.9360   -2.3360 C.2    75  HIS75       0.2291
     49  O         -1.6860   -6.4690   -1.4510 O.2    75  HIS75      -0.2864
     50  CB         0.8880   -5.3550   -2.9340 C.3    75  HIS75       0.0771
     51  CG         2.3480   -5.1030   -3.0130 C.ar   75  HIS75       0.0820
     52  ND1        3.1010   -4.6950   -1.9190 N.ar   75  HIS75      -0.2267
     53  CD2        3.2330   -5.3490   -4.0170 C.ar   75  HIS75       0.1154
     54  CE1        4.3830   -4.6850   -2.2610 C.ar   75  HIS75       0.1986
     55  NE2        4.4880   -5.0760   -3.5190 N.ar   75  HIS75      -0.2212
     56  N          6.9250   -6.7210  -15.9490 N.3   111  GLN111     -0.1245
     57  CA         7.2030   -8.0580  -15.4690 C.3   111  GLN111      0.1566
     58  C          6.3650   -9.1540  -16.1550 C.2   111  GLN111      0.2260
     59  O          6.5080  -10.3050  -15.7910 O.2   111  GLN111     -0.2867
     60  CB         7.0430   -8.1150  -13.9540 C.3   111  GLN111      0.0367
     61  CG         8.0810   -7.2890  -13.2140 C.3   111  GLN111      0.0905
     62  CD         7.9930   -7.4800  -11.7160 C.2   111  GLN111      0.2608
     63  OE1        8.4730   -8.4840  -11.1770 O.2   111  GLN111     -0.2717
     64  NE2        7.3440   -6.5600  -11.0290 N.am  111  GLN111     -0.0878
     65  N          5.3550  -12.9330  -13.8060 N.3   115  LEU115     -0.1245
     66  CA         4.4760  -12.7570  -12.6460 C.3   115  LEU115      0.1561
     67  C          3.6410  -13.9900  -12.3890 C.2   115  LEU115      0.2260
     68  O          3.2140  -14.6700  -13.3360 O.2   115  LEU115     -0.2867
     69  CB         3.5540  -11.5550  -12.8860 C.3   115  LEU115      0.0270
     70  CG         4.2860  -10.1930  -12.9050 C.3   115  LEU115      0.0019
     71  CD1        3.3950   -9.1100  -13.5000 C.3   115  LEU115      0.0001
     72  CD2        4.6640   -9.7740  -11.5020 C.3   115  LEU115      0.0001
     73  N          5.6530    1.1540  -12.1170 N.3   148  HIS148     -0.1241
     74  CA         5.7920   -0.2320  -11.7470 C.3   148  HIS148      0.1621
     75  C          4.5260   -1.0120  -12.2220 C.2   148  HIS148      0.2264
     76  O          4.6420   -2.1660  -12.6490 O.2   148  HIS148     -0.2867
     77  CB         6.0190   -0.3270  -10.2140 C.3   148  HIS148      0.0745
     78  CG         6.1760   -1.7240   -9.6780 C.ar  148  HIS148      0.0817
     79  ND1        7.3720   -2.4130   -9.6820 N.ar  148  HIS148     -0.2268
     80  CD2        5.3040   -2.5190   -9.0120 C.ar  148  HIS148      0.1154
     81  CE1        7.2310   -3.5240   -8.9910 C.ar  148  HIS148      0.1986
     82  NE2        5.9540   -3.6850   -8.7070 N.ar  148  HIS148     -0.2212
     83  N          5.1490    1.0660   -4.7320 N.3   173  SER173     -0.1217
     84  CA         6.4510    0.7630   -5.3290 C.3   173  SER173      0.1889
     85  C          6.7070    1.6080   -6.5680 C.2   173  SER173      0.2288
     86  O          5.8440    1.7170   -7.4280 O.2   173  SER173     -0.2866
     87  CB         6.4980   -0.7120   -5.6970 C.3   173  SER173      0.2089
     88  OG         6.2670   -1.5380   -4.5510 O.3   173  SER173     -0.2183
     89  N          9.5530    0.9250   -8.5230 N.3   175  THR175     -0.1218
     90  CA        10.7100    0.1970   -8.9990 C.3   175  THR175      0.1862
     91  C         10.5890   -0.3070  -10.4200 C.2   175  THR175      0.2287
     92  O          9.6160   -0.9440  -10.8190 O.2   175  THR175     -0.2866
     93  CB        10.9390   -1.0080   -8.0820 C.3   175  THR175      0.1770
     94  OG1        9.7470   -1.7880   -8.0460 O.3   175  THR175     -0.2211
     95  CG2       11.3190   -0.5380   -6.7100 C.3   175  THR175      0.0375
     96  N         11.4790   -2.9200  -12.5610 N.3   177  VAL177     -0.1245
     97  CA        11.8560   -4.3310  -12.6590 C.3   177  VAL177      0.1561
     98  C         11.1470   -4.9660  -13.8130 C.2   177  VAL177      0.2260
     99  O         10.0560   -4.5970  -14.1450 O.2   177  VAL177     -0.2867
    100  CB        11.5300   -5.0790  -11.3760 C.3   177  VAL177      0.0252
    101  CG1       12.4040   -4.5710  -10.2720 C.3   177  VAL177      0.0019
    102  CG2       10.1230   -4.9050  -10.9590 C.3   177  VAL177      0.0019
    103  N          6.8140   -2.3380    0.3550 N.3   213  HIS213     -0.1241
    104  CA         7.8280   -3.2310    0.9340 C.3   213  HIS213      0.1621
    105  C          8.4200   -2.4500    2.1050 C.2   213  HIS213      0.2264
    106  O          9.1050   -1.4760    1.9030 O.2   213  HIS213     -0.2867
    107  CB         8.9280   -3.5790   -0.0910 C.3   213  HIS213      0.0745
    108  CG         8.4530   -4.5270   -1.1410 C.ar  213  HIS213      0.0817
    109  ND1        8.4570   -5.8910   -0.9700 N.ar  213  HIS213     -0.2268
    110  CD2        7.8310   -4.2920   -2.3160 C.ar  213  HIS213      0.1154
    111  CE1        7.8460   -6.4590   -1.9970 C.ar  213  HIS213      0.1986
    112  NE2        7.4450   -5.5070   -2.8280 N.ar  213  HIS213     -0.2212
    113  N         10.7200   -2.5230    4.2830 N.3   215  GLU215     -0.1231
    114  CA        12.1560   -2.2090    4.4200 C.3   215  GLU215      0.1699
    115  C         12.6720   -1.0970    3.5100 C.2   215  GLU215      0.2592
    116  O         13.7350   -0.5190    3.7830 O.2   215  GLU215     -0.2718
    117  CB        13.0090   -3.4590    4.2460 C.3   215  GLU215      0.0402
    118  CG        13.0890   -4.0550    2.8560 C.3   215  GLU215      0.1161
    119  CD        11.8490   -4.7220    2.2760 C.2   215  GLU215      0.3649
    120  OE1       10.8030   -4.9160    2.9450 O.co2 215  GLU215     -0.2457
    121  OE2       11.9340   -4.8880    1.0290 O.co2 215  GLU215     -0.2457
    122  N         11.9000   -0.7120    2.5090 N.am  216  VAL216     -0.1980
    123  CA        12.2590    0.3970    1.6800 C.3   216  VAL216      0.1595
    124  C         12.4870    1.6410    2.5260 C.2   216  VAL216      0.2287
    125  O         13.4260    2.4160    2.2600 O.2   216  VAL216     -0.2864
    126  CB        11.2120    0.5580    0.5500 C.3   216  VAL216      0.0276
    127  CG1       11.3420    1.9220   -0.1490 C.3   216  VAL216      0.0022
    128  CG2       11.3630   -0.5750   -0.4430 C.3   216  VAL216      0.0022
    129  N         17.3460    3.4140   -9.4200 N.3   250  ARG250     -0.1245
    130  CA        17.1270    2.1000  -10.0080 C.3   250  ARG250      0.1563
    131  C         16.8100    2.1850  -11.5240 C.2   250  ARG250      0.2260
    132  O         17.3510    1.4290  -12.3230 O.2   250  ARG250     -0.2867
    133  CB        16.0130    1.3500   -9.2760 C.3   250  ARG250      0.0307
    134  CG        15.7850   -0.0620   -9.7860 C.3   250  ARG250      0.0489
    135  CD        14.8590   -0.8180   -8.8640 C.3   250  ARG250      0.2205
    136  NE        14.8280   -2.2300   -9.2170 N.pl3 250  ARG250     -0.0865
    137  CZ        14.5050   -3.2030   -8.3700 C.cat 250  ARG250      0.5346
    138  NH1       14.4840   -4.4520   -8.8020 N.pl3 250  ARG250      0.1354
    139  NH2       14.1460   -2.9170   -7.1460 N.pl3 250  ARG250      0.1354
@<TRIPOS>BOND
     1    58    59    2
     2    58    57    1
     3    56    57    1
     4    57    60    1
     5    99    98    2
     6    60    61    1
     7    98    97    1
     8    65    66    1
     9    71    70    1
    10    68    67    2
    11    61    62    1
    12    70    69    1
    13    70    72    1
    14    69    66    1
    15    97    96    1
    16    97   100    1
    17    76    75    2
    18    66    67    1
    19   132   131    2
    20    75    74    1
    21    73    74    1
    22    74    77    1
    23    62    63    2
    24    62    64   am
    25   131   130    1
    26   100   102    1
    27   100   101    1
    28    28    26   ar
    29    28    27   ar
    30    92    91    2
    31    26    24   ar
    32    27    25   ar
    33    91    90    1
    34    77    78    1
    35   130   129    1
    36   130   133    1
    37   134   133    1
    38   134   135    1
    39    79    78   ar
    40    79    81   ar
    41    78    80   ar
    42    25    24   ar
    43    24    23    1
    44   136   135    1
    45   136   137    2
    46    80    82   ar
    47    90    89    1
    48    90    93    1
    49    81    82   ar
    50   138   137    1
    51   137   139    1
    52    93    94    1
    53    93    95    1
    54    20    23    1
    55    20    19    1
    56    20    21    1
    57    86    85    2
    58    37    35   ar
    59    29    21   am
    60    29    30    1
    61    21    22    2
    62    85    84    1
    63    35    34    1
    64    35    36   ar
    65    33    34    1
    66    33    30    1
    67    30    31    1
    68    87    84    1
    69    87    88    1
    70    84    83    1
    71    44    43   ar
    72    31    38   am
    73    31    32    2
    74    14    13   ar
    75    14    12   ar
    76    38    39    1
    77    43    45   ar
    78    43    42    1
    79    53    55   ar
    80    53    51   ar
    81    13    11   ar
    82    12    10   ar
    83    55    54   ar
    84    42    39    1
    85    39    40    1
    86    51    50    1
    87    51    52   ar
    88    46    47    1
    89    46    40   am
    90    50    47    1
    91   112   110   ar
    92   112   111   ar
    93    11     8   ar
    94    10     8   ar
    95    10     9   ar
    96    48    47    1
    97    48    49    2
    98   110   108   ar
    99    40    41    2
   100    54    52   ar
   101   111   109   ar
   102     8     6   ar
   103     9     7   ar
   104   108   109   ar
   105   108   107    1
   106   128   126    1
   107     6     7   ar
   108     6     5    1
   109   127   126    1
   110   107   104    1
   111   103   104    1
   112   126   123    1
   113     5     2    1
   114   104   105    1
   115   121   119   ar
   116   123   122    1
   117   123   124    1
   118   106   105    2
   119     2     1    1
   120     2     3    1
   121   125   124    2
   122   119   118    1
   123   119   120   ar
   124   122   115   am
   125    18    17    2
   126   118   117    1
   127     3     4    2
   128   115   116    2
   129   115   114    1
   130    17    16    1
   131   117   114    1
   132   113   114    1
   133    16    15    1
