@<TRIPOS>MOLECULE
tmp/5axpB00.pdb
 174 168 0 0 0
SMALL
GASTEIGER

@<TRIPOS>ATOM
      1  N         14.3630  -24.7890  -30.4460 N.3    70  TYR70      -0.1227
      2  CA        13.1410  -25.4290  -29.9360 C.3    70  TYR70       0.1736
      3  C         13.3250  -26.8150  -29.3340 C.2    70  TYR70       0.2595
      4  O         12.8370  -27.0800  -28.2160 O.2    70  TYR70      -0.2718
      5  CB        12.0400  -25.4500  -30.9960 C.3    70  TYR70       0.0548
      6  CG        10.7670  -26.1440  -30.5290 C.ar   70  TYR70      -0.0200
      7  CD1        9.9700  -25.5880  -29.5160 C.ar   70  TYR70      -0.0009
      8  CD2       10.3690  -27.3730  -31.0860 C.ar   70  TYR70      -0.0009
      9  CE1        8.8040  -26.2210  -29.0820 C.ar   70  TYR70       0.0417
     10  CE2        9.1950  -28.0090  -30.6640 C.ar   70  TYR70       0.0417
     11  CZ         8.4180  -27.4310  -29.6580 C.ar   70  TYR70       0.1957
     12  OH         7.2680  -28.0670  -29.2290 O.3    70  TYR70      -0.2866
     13  N         13.9820  -27.7100  -30.0740 N.am   71  HIS71      -0.1975
     14  CA        14.1150  -29.0980  -29.6280 C.3    71  HIS71       0.1656
     15  C         15.2400  -29.2450  -28.6030 C.2    71  HIS71       0.2291
     16  O         16.2160  -29.9670  -28.8370 O.2    71  HIS71      -0.2864
     17  CB        14.3150  -30.0610  -30.8020 C.3    71  HIS71       0.0771
     18  CG        13.0720  -30.2820  -31.6050 C.ar   71  HIS71       0.0820
     19  ND1       12.8870  -29.7340  -32.8530 N.ar   71  HIS71      -0.2267
     20  CD2       11.9270  -30.9430  -31.3100 C.ar   71  HIS71       0.1154
     21  CE1       11.6920  -30.0710  -33.3090 C.ar   71  HIS71       0.1986
     22  NE2       11.0930  -30.8120  -32.3910 N.ar   71  HIS71      -0.2212
     23  N         14.7170  -31.6660  -39.7460 N.3   117  SER117     -0.1202
     24  CA        13.6400  -32.6180  -39.9810 C.3   117  SER117      0.2020
     25  C         14.1550  -33.9360  -40.5620 C.2   117  SER117      0.2618
     26  O         15.2300  -33.9830  -41.1590 O.2   117  SER117     -0.2717
     27  CB        12.6100  -32.0140  -40.9420 C.3   117  SER117      0.2103
     28  OG        13.1950  -31.8170  -42.2210 O.3   117  SER117     -0.2182
     29  N         13.3760  -35.0050  -40.3920 N.am  118  ASN118     -0.1974
     30  CA        13.6580  -36.2690  -41.0780 C.3   118  ASN118      0.1688
     31  C         13.8060  -36.0790  -42.5840 C.2   118  ASN118      0.2292
     32  O         14.6760  -36.6800  -43.2190 O.2   118  ASN118     -0.2864
     33  CB        12.5670  -37.2930  -40.7940 C.3   118  ASN118      0.1181
     34  CG        12.6150  -37.7970  -39.3650 C.2   118  ASN118      0.2629
     35  OD1       13.6230  -37.6220  -38.6660 O.2   118  ASN118     -0.2716
     36  ND2       11.5250  -38.4150  -38.9180 N.am  118  ASN118     -0.0877
     37  N          6.2000  -40.3890  -31.6810 N.3   179  THR179     -0.1203
     38  CA         6.3720  -38.9240  -31.7950 C.3   179  THR179      0.1994
     39  C          6.7950  -38.4800  -33.1980 C.2   179  THR179      0.2618
     40  O          6.9510  -37.2920  -33.4340 O.2   179  THR179     -0.2717
     41  CB         7.3760  -38.3130  -30.7600 C.3   179  THR179      0.1784
     42  OG1        8.7110  -38.7810  -31.0230 O.3   179  THR179     -0.2211
     43  CG2        6.9850  -38.6490  -29.3360 C.3   179  THR179      0.0376
     44  N          6.9980  -39.4200  -34.1170 N.am  180  ASP180     -0.1959
     45  CA         7.2030  -39.0490  -35.5190 C.3   180  ASP180      0.1840
     46  C          5.8190  -38.7020  -36.0640 C.2   180  ASP180      0.2622
     47  O          4.9810  -39.5840  -36.2550 O.2   180  ASP180     -0.2715
     48  CB         7.8450  -40.2080  -36.2910 C.3   180  ASP180      0.1450
     49  CG         7.9540  -39.9420  -37.7930 C.2   180  ASP180      0.3671
     50  OD1        7.7040  -38.7930  -38.2360 O.co2 180  ASP180     -0.2456
     51  OD2        8.2840  -40.9090  -38.5260 O.co2 180  ASP180     -0.2456
     52  N          5.5820  -37.4090  -36.3010 N.am  181  LEU181     -0.1963
     53  CA         4.2560  -36.9330  -36.6910 C.3   181  LEU181      0.1728
     54  C          3.7290  -37.5790  -37.9710 C.2   181  LEU181      0.2616
     55  O          2.5110  -37.6780  -38.1730 O.2   181  LEU181     -0.2715
     56  CB         4.2500  -35.4100  -36.8510 C.3   181  LEU181      0.0311
     57  CG         3.8500  -34.5890  -35.6340 C.3   181  LEU181      0.0022
     58  CD1        3.9810  -33.1130  -35.9830 C.3   181  LEU181      0.0001
     59  CD2        2.4310  -34.9180  -35.1890 C.3   181  LEU181      0.0001
     60  N          4.6400  -38.0370  -38.8250 N.am  182  ALA182     -0.1977
     61  CA         4.2380  -38.7440  -40.0430 C.3   182  ALA182      0.1597
     62  C          3.4220  -39.9860  -39.6820 C.2   182  ALA182      0.2287
     63  O          2.5850  -40.4210  -40.4550 O.2   182  ALA182     -0.2864
     64  CB         5.4550  -39.1230  -40.8790 C.3   182  ALA182      0.0319
     65  N         -0.9340  -39.4270  -38.1590 N.3   185  PHE185     -0.1241
     66  CA        -2.1630  -39.3130  -38.9490 C.3   185  PHE185      0.1605
     67  C         -2.8900  -40.6380  -39.0800 C.2   185  PHE185      0.2264
     68  O         -4.0820  -40.7220  -38.7850 O.2   185  PHE185     -0.2867
     69  CB        -1.8870  -38.6330  -40.3030 C.3   185  PHE185      0.0534
     70  CG        -1.3570  -37.2350  -40.1520 C.ar  185  PHE185     -0.0203
     71  CD1        0.0230  -36.9880  -40.1730 C.ar  185  PHE185     -0.0042
     72  CD2       -2.2260  -36.1690  -39.9140 C.ar  185  PHE185     -0.0042
     73  CE1        0.5200  -35.7000  -39.9970 C.ar  185  PHE185     -0.0003
     74  CE2       -1.7350  -34.8790  -39.7390 C.ar  185  PHE185     -0.0003
     75  CZ        -0.3600  -34.6450  -39.7860 C.ar  185  PHE185     -0.0000
     76  N          3.7560  -34.1360  -26.9610 N.3   220  ASP220     -0.1225
     77  CA         4.7220  -33.5020  -27.8580 C.3   220  ASP220      0.1805
     78  C          4.2130  -32.1400  -28.3630 C.2   220  ASP220      0.2597
     79  O          4.9700  -31.1750  -28.4620 O.2   220  ASP220     -0.2718
     80  CB         5.0200  -34.4320  -29.0330 C.3   220  ASP220      0.1424
     81  CG         6.3580  -34.1340  -29.6980 C.2   220  ASP220      0.3668
     82  OD1        7.1330  -33.3530  -29.1530 O.co2 220  ASP220     -0.2456
     83  OD2        6.6470  -34.6930  -30.7670 O.co2 220  ASP220     -0.2456
     84  N          2.9190  -32.0510  -28.6440 N.am  221  LEU221     -0.1979
     85  CA         2.3510  -30.8170  -29.1740 C.3   221  LEU221      0.1596
     86  C          1.8470  -29.8320  -28.1230 C.2   221  LEU221      0.2287
     87  O          1.3230  -28.7990  -28.4860 O.2   221  LEU221     -0.2864
     88  CB         1.2470  -31.1200  -30.2040 C.3   221  LEU221      0.0297
     89  CG         1.5970  -32.0230  -31.4010 C.3   221  LEU221      0.0022
     90  CD1        0.3780  -32.2270  -32.3090 C.3   221  LEU221      0.0001
     91  CD2        2.7560  -31.4320  -32.1970 C.3   221  LEU221      0.0001
     92  N          2.5600  -27.4040  -26.3450 N.3   223  SER223     -0.1202
     93  CA         2.7680  -25.9550  -26.3850 C.3   223  SER223      0.2020
     94  C          1.5560  -25.2100  -26.9530 C.2   223  SER223      0.2618
     95  O          1.3310  -24.0620  -26.5950 O.2   223  SER223     -0.2717
     96  CB         4.0150  -25.6090  -27.1770 C.3   223  SER223      0.2103
     97  OG         5.1420  -26.1180  -26.4810 O.3   223  SER223     -0.2182
     98  N          0.7620  -25.8780  -27.8000 N.am  224  VAL224     -0.1979
     99  CA        -0.4660  -25.2790  -28.3230 C.3   224  VAL224      0.1595
    100  C         -1.6240  -25.2840  -27.3150 C.2   224  VAL224      0.2287
    101  O         -2.7250  -24.8470  -27.6370 O.2   224  VAL224     -0.2864
    102  CB        -0.8940  -25.9000  -29.6840 C.3   224  VAL224      0.0276
    103  CG1        0.3100  -25.9980  -30.6200 C.3   224  VAL224      0.0022
    104  CG2       -1.5420  -27.2760  -29.5070 C.3   224  VAL224      0.0022
    105  N          9.7380  -22.3710  -32.4260 N.3   238  ILE238     -0.1231
    106  CA         9.5020  -23.4050  -33.4440 C.3   238  ILE238      0.1692
    107  C          9.9470  -22.9020  -34.8320 C.2   238  ILE238      0.2592
    108  O         10.7330  -23.5640  -35.5180 O.2   238  ILE238     -0.2718
    109  CB         8.0210  -23.8470  -33.4420 C.3   238  ILE238      0.0266
    110  CG1        7.7170  -24.6540  -32.1620 C.3   238  ILE238      0.0019
    111  CG2        7.6760  -24.6560  -34.6930 C.3   238  ILE238      0.0020
    112  CD1        6.2560  -25.0210  -31.9850 C.3   238  ILE238      0.0001
    113  N          9.4560  -21.7270  -35.2190 N.am  239  TYR239     -0.1976
    114  CA         9.7890  -21.1450  -36.5250 C.3   239  TYR239      0.1639
    115  C         11.2540  -20.7230  -36.6490 C.2   239  TYR239      0.2290
    116  O         11.8130  -20.7660  -37.7410 O.2   239  TYR239     -0.2864
    117  CB         8.8160  -20.0100  -36.8900 C.3   239  TYR239      0.0560
    118  CG         7.4670  -20.5340  -37.3740 C.ar  239  TYR239     -0.0198
    119  CD1        6.3890  -20.6730  -36.4950 C.ar  239  TYR239     -0.0009
    120  CD2        7.2800  -20.9190  -38.7110 C.ar  239  TYR239     -0.0009
    121  CE1        5.1600  -21.1740  -36.9320 C.ar  239  TYR239      0.0417
    122  CE2        6.0580  -21.4280  -39.1540 C.ar  239  TYR239      0.0417
    123  CZ         5.0030  -21.5520  -38.2700 C.ar  239  TYR239      0.1957
    124  OH         3.7890  -22.0410  -38.7270 O.3   239  TYR239     -0.2866
    125  N         12.6980  -23.9650  -37.7410 N.3   242  PHE242     -0.1241
    126  CA        12.2770  -24.1610  -39.1410 C.3   242  PHE242      0.1605
    127  C         13.0760  -23.2770  -40.1180 C.2   242  PHE242      0.2264
    128  O         13.5590  -23.7600  -41.1610 O.2   242  PHE242     -0.2867
    129  CB        10.7750  -23.8340  -39.3380 C.3   242  PHE242      0.0534
    130  CG         9.8110  -24.8320  -38.7180 C.ar  242  PHE242     -0.0203
    131  CD1       10.2260  -26.0980  -38.2900 C.ar  242  PHE242     -0.0042
    132  CD2        8.4520  -24.5020  -38.5970 C.ar  242  PHE242     -0.0042
    133  CE1        9.3120  -27.0060  -37.7410 C.ar  242  PHE242     -0.0003
    134  CE2        7.5350  -25.4020  -38.0560 C.ar  242  PHE242     -0.0003
    135  CZ         7.9610  -26.6560  -37.6260 C.ar  242  PHE242     -0.0000
    136  N          7.0060  -23.0040  -44.9800 N.3   259  MET259     -0.1245
    137  CA         7.1230  -23.1380  -43.5420 C.3   259  MET259      0.1570
    138  C          8.5500  -22.8690  -43.0170 C.2   259  MET259      0.2261
    139  O          8.7350  -22.3600  -41.9110 O.2   259  MET259     -0.2867
    140  CB         6.6810  -24.5420  -43.1680 C.3   259  MET259      0.0387
    141  CG         6.5460  -24.7690  -41.6870 C.3   259  MET259      0.0595
    142  SD         6.0230  -26.4460  -41.3640 S.3   259  MET259     -0.1393
    143  CE         7.5910  -27.3100  -41.2740 C.3   259  MET259      0.0692
    144  N         -0.4940  -20.8390  -41.7860 N.3   271  GLY271     -0.1210
    145  CA         0.2010  -22.1040  -41.4910 C.3   271  GLY271      0.1956
    146  C         -0.1990  -22.6810  -40.1370 C.2   271  GLY271      0.2611
    147  O         -0.4160  -23.8980  -40.0110 O.2   271  GLY271     -0.2717
    148  N         -0.2850  -21.8230  -39.1200 N.am  272  GLN272     -0.1979
    149  CA        -0.7930  -22.2550  -37.8050 C.3   272  GLN272      0.1601
    150  C         -2.2430  -22.7280  -37.8790 C.2   272  GLN272      0.2287
    151  O         -2.5980  -23.7810  -37.3400 O.2   272  GLN272     -0.2864
    152  CB        -0.6140  -21.1570  -36.7550 C.3   272  GLN272      0.0394
    153  CG         0.8440  -20.9820  -36.3500 C.3   272  GLN272      0.0908
    154  CD         1.3990  -22.2210  -35.6580 C.2   272  GLN272      0.2608
    155  OE1        1.1030  -22.4620  -34.4870 O.2   272  GLN272     -0.2717
    156  NE2        2.1840  -23.0240  -36.3850 N.am  272  GLN272     -0.0878
    157  N         -2.2930  -26.0850  -39.2050 N.3   275  PHE275     -0.1241
    158  CA        -1.7820  -27.0410  -38.2380 C.3   275  PHE275      0.1605
    159  C         -2.8640  -27.3850  -37.2120 C.2   275  PHE275      0.2264
    160  O         -3.1000  -28.5550  -36.9210 O.2   275  PHE275     -0.2867
    161  CB        -0.5170  -26.5130  -37.5580 C.3   275  PHE275      0.0534
    162  CG         0.1240  -27.5080  -36.6420 C.ar  275  PHE275     -0.0203
    163  CD1        0.8520  -28.5750  -37.1610 C.ar  275  PHE275     -0.0042
    164  CD2       -0.0140  -27.3930  -35.2600 C.ar  275  PHE275     -0.0042
    165  CE1        1.4320  -29.5140  -36.3200 C.ar  275  PHE275     -0.0003
    166  CE2        0.5640  -28.3290  -34.4070 C.ar  275  PHE275     -0.0003
    167  CZ         1.2920  -29.3860  -34.9380 C.ar  275  PHE275     -0.0000
    168  N         -4.1200  -31.0710  -37.6050 N.3   279  VAL279     -0.1245
    169  CA        -3.3130  -31.8510  -36.6630 C.3   279  VAL279      0.1561
    170  C         -3.7590  -31.7540  -35.2060 C.2   279  VAL279      0.2260
    171  O         -4.1730  -32.7540  -34.6200 O.2   279  VAL279     -0.2867
    172  CB        -1.8120  -31.4940  -36.7460 C.3   279  VAL279      0.0252
    173  CG1       -0.9800  -32.4580  -35.8990 C.3   279  VAL279      0.0019
    174  CG2       -1.3310  -31.5170  -38.1810 C.3   279  VAL279      0.0019
@<TRIPOS>BOND
     1   136   137    1
     2   137   140    1
     3   137   138    1
     4    32    31    2
     5   140   141    1
     6   138   139    2
     7    31    30    1
     8    28    27    1
     9   144   145    1
    10   141   142    1
    11   145   146    1
    12   142   143    1
    13   128   127    2
    14    26    25    2
    15    30    33    1
    16    30    29    1
    17    27    24    1
    18    64    61    1
    19    33    34    1
    20    25    29   am
    21    25    24    1
    22    63    62    2
    23    69    70    1
    24    69    66    1
    25    71    70   ar
    26    71    73   ar
    27    70    72   ar
    28   146   147    2
    29   146   148   am
    30   127   126    1
    31    61    62    1
    32    61    60    1
    33    73    75   ar
    34    24    23    1
    35    72    74   ar
    36    75    74   ar
    37    34    36   am
    38    34    35    2
    39   129   126    1
    40   129   130    1
    41   157   158    1
    42   122   120   ar
    43   122   123   ar
    44   126   125    1
    45   148   149    1
    46    67    66    1
    47    67    68    2
    48    66    65    1
    49    60    54   am
    50   124   123    1
    51   130   132   ar
    52   130   131   ar
    53   120   118   ar
    54   132   134   ar
    55    51    49   ar
    56   131   133   ar
    57   123   121   ar
    58   158   161    1
    59   158   159    1
    60    50    49   ar
    61   174   172    1
    62    55    54    2
    63   134   135   ar
    64    54    53    1
    65   150   149    1
    66   150   151    2
    67   149   152    1
    68    49    48    1
    69   116   115    2
    70   133   135   ar
    71   168   169    1
    72   161   162    1
    73   118   117    1
    74   118   119   ar
    75   159   160    2
    76   163   162   ar
    77   163   165   ar
    78   121   119   ar
    79   117   114    1
    80    56    53    1
    81    56    57    1
    82   152   153    1
    83   172   169    1
    84   172   173    1
    85    53    52    1
    86   169   170    1
    87   115   114    1
    88   162   164   ar
    89   114   113    1
    90   156   154   am
    91   153   154    1
    92   165   167   ar
    93    52    46   am
    94    48    45    1
    95    47    46    2
    96    46    45    1
    97    58    57    1
    98   154   155    2
    99    57    59    1
   100    45    44    1
   101   108   107    2
   102   164   166   ar
   103   113   107   am
   104   170   171    2
   105   167   166   ar
   106   107   106    1
   107   111   109    1
   108    44    39   am
   109   106   109    1
   110   106   105    1
   111   109   110    1
   112    40    39    2
   113    21    19   ar
   114    21    22   ar
   115    39    38    1
   116    19    18   ar
   117    22    20   ar
   118    90    89    1
   119    91    89    1
   120   110   112    1
   121    38    37    1
   122    38    41    1
   123    18    20   ar
   124    18    17    1
   125    89    88    1
   126     8    10   ar
   127     8     6   ar
   128    42    41    1
   129     5     6    1
   130     5     2    1
   131    17    14    1
   132    83    81   ar
   133    41    43    1
   134    10    11   ar
   135   103   102    1
   136     6     7   ar
   137     1     2    1
   138    88    85    1
   139    13    14    1
   140    13     3   am
   141     2     3    1
   142    81    82   ar
   143    81    80    1
   144   102   104    1
   145   102    99    1
   146    11    12    1
   147    11     9   ar
   148    14    15    1
   149     7     9   ar
   150     3     4    2
   151    85    84    1
   152    85    86    1
   153    80    77    1
   154    16    15    2
   155    84    78   am
   156    87    86    2
   157    79    78    2
   158    78    77    1
   159    99    98    1
   160    99   100    1
   161    77    76    1
   162    98    94   am
   163   101   100    2
   164    96    97    1
   165    96    93    1
   166    94    95    2
   167    94    93    1
   168    93    92    1
