@<TRIPOS>MOLECULE
tmp/5axqA00.pdb
 189 182 0 0 0
SMALL
GASTEIGER

@<TRIPOS>ATOM
      1  N         20.1630    7.8700   15.1370 N.3    70  TYR70      -0.1227
      2  CA        19.2160    6.8270   14.7120 C.3    70  TYR70       0.1736
      3  C         17.7320    7.2420   14.6560 C.2    70  TYR70       0.2595
      4  O         17.0550    6.9460   13.6760 O.2    70  TYR70      -0.2718
      5  CB        19.3930    5.5450   15.5480 C.3    70  TYR70       0.0548
      6  CG        18.3970    4.4570   15.1860 C.ar   70  TYR70      -0.0200
      7  CD1       18.4290    3.8500   13.9330 C.ar   70  TYR70      -0.0009
      8  CD2       17.4120    4.0600   16.0880 C.ar   70  TYR70      -0.0009
      9  CE1       17.5080    2.8630   13.5900 C.ar   70  TYR70       0.0417
     10  CE2       16.4890    3.0750   15.7570 C.ar   70  TYR70       0.0417
     11  CZ        16.5420    2.4780   14.5060 C.ar   70  TYR70       0.1957
     12  OH        15.6240    1.4890   14.1730 O.3    70  TYR70      -0.2866
     13  N         17.2210    7.9190   15.6840 N.am   71  HIS71      -0.1975
     14  CA        15.7900    8.2750   15.7050 C.3    71  HIS71       0.1656
     15  C         15.5210    9.5420   14.9190 C.2    71  HIS71       0.2291
     16  O         15.1380   10.5850   15.4670 O.2    71  HIS71      -0.2864
     17  CB        15.2800    8.3780   17.1340 C.3    71  HIS71       0.0771
     18  CG        15.1940    7.0530   17.8120 C.ar   71  HIS71       0.0820
     19  ND1       16.0860    6.6470   18.7790 N.ar   71  HIS71      -0.2267
     20  CD2       14.3510    6.0150   17.6150 C.ar   71  HIS71       0.1154
     21  CE1       15.7750    5.4230   19.1720 C.ar   71  HIS71       0.1986
     22  NE2       14.7250    5.0190   18.4800 N.ar   71  HIS71      -0.2212
     23  N         16.2790    7.4430   25.9370 N.3   117  SER117     -0.1202
     24  CA        15.2620    6.4810   26.3520 C.3   117  SER117      0.2020
     25  C         14.3190    7.1110   27.3800 C.2   117  SER117      0.2619
     26  O         14.6560    8.1110   28.0200 O.2   117  SER117     -0.2717
     27  CB        15.9320    5.2590   26.9860 C.3   117  SER117      0.2103
     28  OG        16.5980    5.6230   28.1890 O.3   117  SER117     -0.2182
     29  N         13.1410    6.5150   27.5310 N.am  118  ASN118     -0.1960
     30  CA        12.2370    6.8580   28.6260 C.3   118  ASN118      0.1819
     31  C         12.9090    6.7240   29.9950 C.2   118  ASN118      0.2622
     32  O         12.7540    7.5950   30.8500 O.2   118  ASN118     -0.2715
     33  CB        10.9770    5.9870   28.5880 C.3   118  ASN118      0.1195
     34  CG        10.0990    6.2740   27.3810 C.2   118  ASN118      0.2630
     35  OD1       10.1730    7.3360   26.7830 O.2   118  ASN118     -0.2716
     36  ND2        9.2630    5.3020   27.0150 N.am  118  ASN118     -0.0877
     37  N         13.6700    5.6480   30.1790 N.am  119  SER119     -0.1950
     38  CA        14.3720    5.3900   31.4400 C.3   119  SER119      0.1924
     39  C         15.2410    6.5770   31.8420 C.2   119  SER119      0.2314
     40  O         15.2080    7.0200   32.9990 O.2   119  SER119     -0.2863
     41  CB        15.2300    4.1280   31.3240 C.3   119  SER119      0.2116
     42  OG        15.9240    3.8850   32.5330 O.3   119  SER119     -0.2180
     43  N          6.2620    1.8790   22.2220 N.3   180  ASP180     -0.1225
     44  CA         7.0200    1.7750   23.4640 C.3   180  ASP180      0.1805
     45  C          7.3330    0.2840   23.6390 C.2   180  ASP180      0.2598
     46  O          6.4340   -0.4970   23.9360 O.2   180  ASP180     -0.2718
     47  CB         6.1860    2.3100   24.6480 C.3   180  ASP180      0.1424
     48  CG         6.8800    2.1300   26.0150 C.2   180  ASP180      0.3668
     49  OD1        8.0600    1.6960   26.0800 O.co2 180  ASP180     -0.2456
     50  OD2        6.2350    2.4400   27.0390 O.co2 180  ASP180     -0.2456
     51  N          8.5970   -0.0990   23.4410 N.am  181  LEU181     -0.1966
     52  CA         8.9900   -1.5180   23.4540 C.3   181  LEU181      0.1728
     53  C          8.6840   -2.2230   24.7840 C.2   181  LEU181      0.2616
     54  O          8.5080   -3.4440   24.8170 O.2   181  LEU181     -0.2715
     55  CB        10.4730   -1.6780   23.0960 C.3   181  LEU181      0.0311
     56  CG        10.9740   -3.0720   22.7100 C.3   181  LEU181      0.0022
     57  CD1       10.3450   -3.5560   21.3990 C.3   181  LEU181      0.0001
     58  CD2       12.4950   -3.0580   22.6120 C.3   181  LEU181      0.0001
     59  N          8.6070   -1.4550   25.8690 N.am  182  ALA182     -0.1977
     60  CA         8.2400   -2.0080   27.1770 C.3   182  ALA182      0.1597
     61  C          6.8550   -2.6520   27.1500 C.2   182  ALA182      0.2287
     62  O          6.6090   -3.6170   27.8760 O.2   182  ALA182     -0.2864
     63  CB         8.2890   -0.9290   28.2480 C.3   182  ALA182      0.0319
     64  N          6.2240   -6.6630   25.0320 N.3   185  PHE185     -0.1241
     65  CA         6.4290   -7.9930   25.5990 C.3   185  PHE185      0.1605
     66  C          5.0950   -8.5880   26.0560 C.2   185  PHE185      0.2264
     67  O          4.7610   -9.7290   25.7260 O.2   185  PHE185     -0.2867
     68  CB         7.4460   -7.9420   26.7460 C.3   185  PHE185      0.0534
     69  CG         8.8140   -7.4970   26.3110 C.ar  185  PHE185     -0.0203
     70  CD1        9.2470   -6.2000   26.5510 C.ar  185  PHE185     -0.0042
     71  CD2        9.6690   -8.3810   25.6470 C.ar  185  PHE185     -0.0042
     72  CE1       10.5100   -5.7820   26.1410 C.ar  185  PHE185     -0.0003
     73  CE2       10.9290   -7.9680   25.2310 C.ar  185  PHE185     -0.0003
     74  CZ        11.3510   -6.6700   25.4780 C.ar  185  PHE185     -0.0000
     75  N          8.7550   -0.9010   13.4800 N.3   220  ASP220     -0.1225
     76  CA         9.7390   -0.1350   14.2490 C.3   220  ASP220      0.1805
     77  C         11.0920   -0.8520   14.2840 C.2   220  ASP220      0.2597
     78  O         12.1250   -0.2180   14.1940 O.2   220  ASP220     -0.2718
     79  CB         9.2140    0.0860   15.6620 C.3   220  ASP220      0.1424
     80  CG         9.9110    1.2320   16.3820 C.2   220  ASP220      0.3668
     81  OD1       10.6270    2.0220   15.7320 O.co2 220  ASP220     -0.2456
     82  OD2        9.7500    1.3230   17.6140 O.co2 220  ASP220     -0.2456
     83  N         11.0780   -2.1790   14.3960 N.am  221  LEU221     -0.1979
     84  CA        12.3200   -2.9530   14.4860 C.3   221  LEU221      0.1596
     85  C         12.8980   -3.3950   13.1380 C.2   221  LEU221      0.2287
     86  O         13.9030   -4.1100   13.1160 O.2   221  LEU221     -0.2864
     87  CB        12.1120   -4.1970   15.3710 C.3   221  LEU221      0.0297
     88  CG        11.6590   -3.9970   16.8260 C.3   221  LEU221      0.0022
     89  CD1       11.6510   -5.3670   17.4950 C.3   221  LEU221      0.0001
     90  CD2       12.5620   -3.0100   17.5740 C.3   221  LEU221      0.0001
     91  N         14.8520   -2.6190   10.7760 N.3   223  SER223     -0.1202
     92  CA        16.2790   -2.5970   10.3820 C.3   223  SER223      0.2020
     93  C         16.9260   -3.9830   10.4790 C.2   223  SER223      0.2618
     94  O         17.8260   -4.3010    9.7000 O.2   223  SER223     -0.2717
     95  CB        17.0710   -1.5810   11.2010 C.3   223  SER223      0.2103
     96  OG        16.6970   -0.2630   10.8170 O.3   223  SER223     -0.2182
     97  N         16.4280   -4.8210   11.3930 N.am  224  VAL224     -0.1979
     98  CA        16.9050   -6.2110   11.5160 C.3   224  VAL224      0.1595
     99  C         16.4250   -7.1480   10.3900 C.2   224  VAL224      0.2287
    100  O         16.7860   -8.3360   10.3670 O.2   224  VAL224     -0.2864
    101  CB        16.5950   -6.8280   12.9140 C.3   224  VAL224      0.0276
    102  CG1       17.0340   -5.8770   14.0320 C.3   224  VAL224      0.0022
    103  CG2       15.1190   -7.2100   13.0590 C.3   224  VAL224      0.0022
    104  N         22.2740    2.8010   15.6430 N.3   238  ILE238     -0.1231
    105  CA        21.6170    2.4360   16.9050 C.3   238  ILE238      0.1692
    106  C         22.5570    2.5420   18.1080 C.2   238  ILE238      0.2592
    107  O         22.2370    3.2000   19.1020 O.2   238  ILE238     -0.2718
    108  CB        21.0110    1.0080   16.8000 C.3   238  ILE238      0.0266
    109  CG1       19.8640    1.0340   15.7760 C.3   238  ILE238      0.0019
    110  CG2       20.5310    0.4950   18.1540 C.3   238  ILE238      0.0020
    111  CD1       19.2610   -0.3110   15.4400 C.3   238  ILE238      0.0001
    112  N         23.7200    1.9080   18.0190 N.am  239  TYR239     -0.1976
    113  CA        24.6900    1.9850   19.1190 C.3   239  TYR239      0.1639
    114  C         25.2940    3.3710   19.3060 C.2   239  TYR239      0.2290
    115  O         25.5890    3.7560   20.4320 O.2   239  TYR239     -0.2864
    116  CB        25.7760    0.9330   18.9650 C.3   239  TYR239      0.0560
    117  CG        25.3040   -0.4340   19.4070 C.ar  239  TYR239     -0.0198
    118  CD1       24.8780   -1.3750   18.4740 C.ar  239  TYR239     -0.0009
    119  CD2       25.2520   -0.7750   20.7650 C.ar  239  TYR239     -0.0009
    120  CE1       24.4330   -2.6280   18.8740 C.ar  239  TYR239      0.0417
    121  CE2       24.8050   -2.0310   21.1740 C.ar  239  TYR239      0.0417
    122  CZ        24.4020   -2.9540   20.2190 C.ar  239  TYR239      0.1957
    123  OH        23.9570   -4.2080   20.5940 O.3   239  TYR239     -0.2866
    124  N         22.8420    4.7540   21.4890 N.3   242  PHE242     -0.1241
    125  CA        22.9280    4.1470   22.8150 C.3   242  PHE242      0.1605
    126  C         24.1250    4.7370   23.5750 C.2   242  PHE242      0.2264
    127  O         24.0180    5.0940   24.7560 O.2   242  PHE242     -0.2867
    128  CB        23.1100    2.6230   22.7460 C.3   242  PHE242      0.0534
    129  CG        21.8670    1.8420   22.3520 C.ar  242  PHE242     -0.0203
    130  CD1       20.5910    2.3920   22.4270 C.ar  242  PHE242     -0.0042
    131  CD2       21.9980    0.5120   21.9570 C.ar  242  PHE242     -0.0042
    132  CE1       19.4670    1.6330   22.0650 C.ar  242  PHE242     -0.0003
    133  CE2       20.8870   -0.2500   21.6050 C.ar  242  PHE242     -0.0003
    134  CZ        19.6240    0.3140   21.6500 C.ar  242  PHE242     -0.0000
    135  N         24.6690    1.2600   32.0080 N.3   257  ILE257     -0.1245
    136  CA        24.5190   -0.1700   31.7150 C.3   257  ILE257      0.1561
    137  C         25.3470   -0.5230   30.4710 C.2   257  ILE257      0.2260
    138  O         25.6060    0.3540   29.6320 O.2   257  ILE257     -0.2867
    139  CB        23.0330   -0.6150   31.5550 C.3   257  ILE257      0.0252
    140  CG1       22.3710    0.0160   30.3210 C.3   257  ILE257      0.0019
    141  CG2       22.2350   -0.3280   32.8230 C.3   257  ILE257      0.0019
    142  CD1       21.1160   -0.7070   29.8590 C.3   257  ILE257      0.0001
    143  N         24.9310   -2.0130   27.5570 N.3   259  MET259     -0.1230
    144  CA        24.3660   -1.7090   26.2290 C.3   259  MET259      0.1702
    145  C         24.6570   -0.2680   25.8100 C.2   259  MET259      0.2592
    146  O         24.8040    0.0370   24.6260 O.2   259  MET259     -0.2718
    147  CB        22.8480   -1.9550   26.2320 C.3   259  MET259      0.0401
    148  CG        22.1890   -1.9280   24.8510 C.3   259  MET259      0.0596
    149  SD        20.4010   -2.2040   24.9060 S.3   259  MET259     -0.1393
    150  CE        19.8050   -0.5990   25.4270 C.3   259  MET259      0.0692
    151  N         24.7550    0.6150   26.7960 N.am  260  MET260     -0.1979
    152  CA        24.9390    2.0280   26.5130 C.3   260  MET260      0.1605
    153  C         26.3650    2.5350   26.7840 C.2   260  MET260      0.2287
    154  O         26.6180    3.7400   26.7450 O.2   260  MET260     -0.2864
    155  CB        23.8640    2.8250   27.2510 C.3   260  MET260      0.0413
    156  CG        22.4650    2.4060   26.8080 C.3   260  MET260      0.0598
    157  SD        21.2290    3.5570   27.3960 S.3   260  MET260     -0.1393
    158  CE        19.8580    3.1370   26.3180 C.3   260  MET260      0.0692
    159  N         25.4930   -9.0000   22.0660 N.3   271  GLY271     -0.1210
    160  CA        24.3190   -8.1930   22.3690 C.3   271  GLY271      0.1956
    161  C         23.2330   -8.3080   21.3050 C.2   271  GLY271      0.2611
    162  O         22.0530   -8.4410   21.6260 O.2   271  GLY271     -0.2717
    163  N         23.6390   -8.2360   20.0410 N.am  272  GLN272     -0.1979
    164  CA        22.7200   -8.4040   18.9210 C.3   272  GLN272      0.1601
    165  C         22.1300   -9.8060   18.9030 C.2   272  GLN272      0.2287
    166  O         20.9230   -9.9690   18.7360 O.2   272  GLN272     -0.2864
    167  CB        23.4060   -8.0830   17.5860 C.3   272  GLN272      0.0394
    168  CG        23.7070   -6.5970   17.4170 C.3   272  GLN272      0.0908
    169  CD        22.4330   -5.7870   17.2990 C.2   272  GLN272      0.2608
    170  OE1       21.7770   -5.7940   16.2610 O.2   272  GLN272     -0.2717
    171  NE2       22.0700   -5.1020   18.3710 N.am  272  GLN272     -0.0878
    172  N         19.5050   -9.9520   21.5010 N.3   275  PHE275     -0.1241
    173  CA        18.3340   -9.1710   21.1110 C.3   275  PHE275      0.1605
    174  C         17.4690   -9.8770   20.0610 C.2   275  PHE275      0.2264
    175  O         16.2510   -9.8830   20.1690 O.2   275  PHE275     -0.2867
    176  CB        18.7540   -7.7980   20.5920 C.3   275  PHE275      0.0534
    177  CG        17.5980   -6.9410   20.1660 C.ar  275  PHE275     -0.0203
    178  CD1       16.8440   -6.2500   21.1140 C.ar  275  PHE275     -0.0042
    179  CD2       17.2570   -6.8310   18.8220 C.ar  275  PHE275     -0.0042
    180  CE1       15.7720   -5.4530   20.7280 C.ar  275  PHE275     -0.0003
    181  CE2       16.1820   -6.0420   18.4310 C.ar  275  PHE275     -0.0003
    182  CZ        15.4420   -5.3500   19.3810 C.ar  275  PHE275     -0.0000
    183  N         13.8730  -10.7840   21.4250 N.3   279  VAL279     -0.1245
    184  CA        12.9150   -9.7690   21.0060 C.3   279  VAL279      0.1561
    185  C         12.4760   -9.9350   19.5490 C.2   279  VAL279      0.2260
    186  O         11.2850  -10.1360   19.2780 O.2   279  VAL279     -0.2867
    187  CB        13.4710   -8.3280   21.2080 C.3   279  VAL279      0.0252
    188  CG1       12.4290   -7.3030   20.7970 C.3   279  VAL279      0.0019
    189  CG2       13.9240   -8.0880   22.6510 C.3   279  VAL279      0.0019
@<TRIPOS>BOND
     1    94    93    2
     2   100    99    2
     3    92    93    1
     4    92    91    1
     5    92    95    1
     6    99    98    1
     7    93    97   am
     8    96    95    1
     9    97    98    1
    10    98   101    1
    11   101   103    1
    12   101   102    1
    13    86    85    2
    14    85    84    1
    15    75    76    1
    16     9     7   ar
    17     9    11   ar
    18     4     3    2
    19     7     6   ar
    20    12    11    1
    21    78    77    2
    22    76    77    1
    23    76    79    1
    24    77    83   am
    25    83    84    1
    26    84    87    1
    27    11    10   ar
    28     3     2    1
    29     3    13   am
    30     2     1    1
    31     2     5    1
    32    15    16    2
    33    15    14    1
    34     6     5    1
    35     6     8   ar
    36    87    88    1
    37   111   109    1
    38   104   105    1
    39    79    80    1
    40    13    14    1
    41    14    17    1
    42    81    80   ar
    43    10     8   ar
    44   109   108    1
    45   170   169    2
    46    80    82   ar
    47   108   105    1
    48   108   110    1
    49    88    89    1
    50    88    90    1
    51   105   106    1
    52    17    18    1
    53   169   168    1
    54   169   171   am
    55   168   167    1
    56   167   164    1
    57    20    18   ar
    58    20    22   ar
    59    18    19   ar
    60   112   106   am
    61   112   113    1
    62   106   107    2
    63   181   179   ar
    64   181   182   ar
    65   118   120   ar
    66   118   117   ar
    67    22    21   ar
    68   166   165    2
    69    19    21   ar
    70   179   177   ar
    71   120   122   ar
    72   165   164    1
    73   164   163    1
    74   116   113    1
    75   116   117    1
    76   113   114    1
    77   186   185    2
    78   114   115    2
    79   182   180   ar
    80   117   119   ar
    81   185   184    1
    82   163   161   am
    83   174   175    2
    84   174   173    1
    85   177   176    1
    86   177   178   ar
    87   122   123    1
    88   122   121   ar
    89   176   173    1
    90   180   178   ar
    91   119   121   ar
    92   188   187    1
    93   184   187    1
    94   184   183    1
    95   173   172    1
    96   187   189    1
    97   161   162    2
    98   161   160    1
    99    57    56    1
   100   124   125    1
   101   133   134   ar
   102   133   131   ar
   103   134   132   ar
   104   131   129   ar
   105   132   130   ar
   106   159   160    1
   107    43    44    1
   108   129   130   ar
   109   129   128    1
   110    58    56    1
   111    56    55    1
   112   128   125    1
   113   125   126    1
   114    55    52    1
   115    51    52    1
   116    51    45   am
   117    52    53    1
   118    44    45    1
   119    44    47    1
   120   126   127    2
   121    45    46    2
   122   146   145    2
   123    47    48    1
   124    53    54    2
   125    53    59   am
   126   148   149    1
   127   148   147    1
   128   149   150    1
   129    64    65    1
   130    73    74   ar
   131    73    71   ar
   132    74    72   ar
   133    65    66    1
   134    65    68    1
   135    71    69   ar
   136    67    66    2
   137   145   144    1
   138   145   151   am
   139    59    60    1
   140    23    24    1
   141    48    49   ar
   142    48    50   ar
   143    72    70   ar
   144   144   147    1
   145   144   143    1
   146    69    70   ar
   147    69    68    1
   148   158   157    1
   149    24    27    1
   150    24    25    1
   151   152   153    1
   152   152   151    1
   153   152   155    1
   154   154   153    2
   155    35    34    2
   156   156   155    1
   157   156   157    1
   158    27    28    1
   159    36    34   am
   160    61    60    1
   161    61    62    2
   162    60    63    1
   163    25    29   am
   164    25    26    2
   165    34    33    1
   166    29    30    1
   167    33    30    1
   168    30    31    1
   169   138   137    2
   170   142   140    1
   171    31    37   am
   172    31    32    2
   173    37    38    1
   174   140   139    1
   175   137   136    1
   176    41    38    1
   177    41    42    1
   178    38    39    1
   179   139   136    1
   180   139   141    1
   181   136   135    1
   182    39    40    2
