@<TRIPOS>MOLECULE
tmp/5axrA00.pdb
 109 105 0 0 0
SMALL
GASTEIGER

@<TRIPOS>ATOM
      1  N        -32.0860   -8.3160   -7.0620 N.3     3  TRP3       -0.1241
      2  CA       -30.9430   -7.4310   -6.9860 C.3     3  TRP3        0.1605
      3  C        -30.9560   -6.3390   -8.0610 C.2     3  TRP3        0.2264
      4  O        -30.3270   -5.2890   -7.8900 O.2     3  TRP3       -0.2867
      5  CB       -29.6650   -8.2680   -7.0730 C.3     3  TRP3        0.0550
      6  CG       -29.4720   -9.2030   -5.8940 C.ar    3  TRP3        0.0003
      7  CD1      -30.1110   -9.1460   -4.6900 C.ar    3  TRP3        0.0946
      8  CD2      -28.5560  -10.3000   -5.8060 C.ar    3  TRP3        0.0152
      9  NE1      -29.6530  -10.1390   -3.8620 N.ar    3  TRP3       -0.2442
     10  CE2      -28.6840  -10.8490   -4.5140 C.ar    3  TRP3        0.0810
     11  CE3      -27.6150  -10.8450   -6.6770 C.ar    3  TRP3        0.0012
     12  CZ2      -27.8820  -11.8960   -4.0600 C.ar    3  TRP3        0.0191
     13  CZ3      -26.8600  -11.9180   -6.2500 C.ar    3  TRP3        0.0001
     14  CH2      -27.0090  -12.4420   -4.9580 C.ar    3  TRP3        0.0015
     15  N        -17.7410   -3.5370   -1.3800 N.3    70  HIS70      -0.1241
     16  CA       -16.9240   -4.6520   -1.8170 C.3    70  HIS70       0.1621
     17  C        -17.2560   -5.0890   -3.2340 C.2    70  HIS70       0.2264
     18  O        -18.3490   -4.8140   -3.7940 O.2    70  HIS70      -0.2867
     19  CB       -17.0160   -5.8290   -0.8230 C.3    70  HIS70       0.0745
     20  CG       -18.3310   -6.5520   -0.8410 C.ar   70  HIS70       0.0817
     21  ND1      -19.4460   -6.0980   -0.1710 N.ar   70  HIS70      -0.2268
     22  CD2      -18.7180   -7.6820   -1.4830 C.ar   70  HIS70       0.1154
     23  CE1      -20.4470   -6.9390   -0.3610 C.ar   70  HIS70       0.1986
     24  NE2      -20.0370   -7.9020   -1.1620 N.ar   70  HIS70      -0.2212
     25  N        -18.2010   -7.6660   -5.0970 N.3    72  HIS72      -0.1241
     26  CA       -19.0310   -8.7280   -5.6420 C.3    72  HIS72       0.1621
     27  C        -19.9830   -8.1130   -6.6390 C.2    72  HIS72       0.2264
     28  O        -20.3190   -6.9320   -6.5260 O.2    72  HIS72      -0.2867
     29  CB       -19.8340   -9.4340   -4.5520 C.3    72  HIS72       0.0745
     30  CG       -19.0190  -10.3480   -3.7060 C.ar   72  HIS72       0.0817
     31  ND1      -19.3560  -10.6430   -2.4080 N.ar   72  HIS72      -0.2268
     32  CD2      -17.8130  -10.9170   -3.9170 C.ar   72  HIS72       0.1154
     33  CE1      -18.4730  -11.4840   -1.9080 C.ar   72  HIS72       0.1986
     34  NE2      -17.4870  -11.6060   -2.7760 N.ar   72  HIS72      -0.2212
     35  N        -23.1430   -8.2400   -7.2450 N.3    74  ASP74      -0.1225
     36  CA       -24.3950   -7.6530   -6.8430 C.3    74  ASP74       0.1805
     37  C        -24.2710   -6.2120   -6.3200 C.2    74  ASP74       0.2597
     38  O        -25.2610   -5.4880   -6.3350 O.2    74  ASP74      -0.2718
     39  CB       -25.1670   -8.5700   -5.9000 C.3    74  ASP74       0.1424
     40  CG       -24.4420   -8.8490   -4.6110 C.2    74  ASP74       0.3668
     41  OD1      -23.2020   -8.9360   -4.5930 O.co2  74  ASP74      -0.2456
     42  OD2      -25.1500   -9.0380   -3.6200 O.co2  74  ASP74      -0.2456
     43  N        -23.0630   -5.7820   -5.9400 N.am   75  HIS75      -0.1975
     44  CA       -22.8300   -4.4140   -5.4530 C.3    75  HIS75       0.1656
     45  C        -21.9990   -3.5850   -6.4190 C.2    75  HIS75       0.2291
     46  O        -22.1250   -2.3530   -6.4510 O.2    75  HIS75      -0.2864
     47  CB       -22.1170   -4.4050   -4.0960 C.3    75  HIS75       0.0771
     48  CG       -22.7700   -5.2700   -3.0820 C.ar   75  HIS75       0.0820
     49  ND1      -23.8850   -4.8720   -2.3770 N.ar   75  HIS75      -0.2267
     50  CD2      -22.5760   -6.5750   -2.7790 C.ar   75  HIS75       0.1154
     51  CE1      -24.3650   -5.9010   -1.6970 C.ar   75  HIS75       0.1986
     52  NE2      -23.5490   -6.9290   -1.8750 N.ar   75  HIS75      -0.2212
     53  N        -16.4200  -15.8740   -2.5440 N.3   111  GLN111     -0.1245
     54  CA       -17.3500  -16.1090   -3.6370 C.3   111  GLN111      0.1566
     55  C        -16.6920  -15.9980   -4.9950 C.2   111  GLN111      0.2260
     56  O        -17.3750  -15.7530   -5.9790 O.2   111  GLN111     -0.2867
     57  CB       -18.5430  -15.1420   -3.5490 C.3   111  GLN111      0.0367
     58  CG       -19.8430  -15.8480   -3.2180 C.3   111  GLN111      0.0905
     59  CD       -20.6010  -15.1980   -2.0960 C.2   111  GLN111      0.2608
     60  OE1      -20.0480  -14.4500   -1.2980 O.2   111  GLN111     -0.2717
     61  NE2      -21.8870  -15.4880   -2.0240 N.am  111  GLN111     -0.0878
     62  N        -20.2060  -16.2570   -7.6780 N.3   115  LEU115     -0.1245
     63  CA       -20.7790  -15.1730   -8.4610 C.3   115  LEU115      0.1561
     64  C        -19.9700  -15.0410   -9.7540 C.2   115  LEU115      0.2260
     65  O        -18.7680  -15.3090   -9.7710 O.2   115  LEU115     -0.2867
     66  CB       -20.7620  -13.8610   -7.6530 C.3   115  LEU115      0.0270
     67  CG       -21.4950  -13.8550   -6.2990 C.3   115  LEU115      0.0019
     68  CD1      -21.1400  -12.6200   -5.4870 C.3   115  LEU115      0.0001
     69  CD2      -23.0000  -13.9390   -6.4730 C.3   115  LEU115      0.0001
     70  N        -15.5700  -10.5810    4.4700 N.3   148  HIS148     -0.1241
     71  CA       -16.5550  -11.0340    3.4990 C.3   148  HIS148      0.1621
     72  C        -15.9020  -10.9540    2.1210 C.2   148  HIS148      0.2264
     73  O        -16.1610  -11.7890    1.2660 O.2   148  HIS148     -0.2867
     74  CB       -17.8220  -10.1760    3.5850 C.3   148  HIS148      0.0745
     75  CG       -18.8270  -10.4410    2.5080 C.ar  148  HIS148      0.0817
     76  ND1      -19.8930  -11.2990    2.6810 N.ar  148  HIS148     -0.2268
     77  CD2      -19.0060   -9.8620    1.2940 C.ar  148  HIS148      0.1154
     78  CE1      -20.6670  -11.2590    1.6090 C.ar  148  HIS148      0.1986
     79  NE2      -20.1340  -10.4180    0.7440 N.ar  148  HIS148     -0.2212
     80  N        -21.0500   -5.6210    3.8700 N.3   173  SER173     -0.1217
     81  CA       -21.5360   -6.9420    4.2950 C.3   173  SER173      0.1889
     82  C        -20.5400   -7.6100    5.2420 C.2   173  SER173      0.2288
     83  O        -19.3350   -7.6080    4.9800 O.2   173  SER173     -0.2866
     84  CB       -21.7320   -7.8600    3.0800 C.3   173  SER173      0.2089
     85  OG       -22.6390   -7.3070    2.1540 O.3   173  SER173     -0.2183
     86  N        -21.0790  -10.8730    6.3390 N.3   175  THR175     -0.1218
     87  CA       -21.6790  -12.1950    6.3080 C.3   175  THR175      0.1862
     88  C        -20.6780  -13.2760    5.8540 C.2   175  THR175      0.2287
     89  O        -19.9760  -13.1160    4.8460 O.2   175  THR175     -0.2866
     90  CB       -22.8680  -12.1960    5.3440 C.3   175  THR175      0.1770
     91  OG1      -22.4760  -11.5420    4.1210 O.3   175  THR175     -0.2211
     92  CG2      -24.0410  -11.4720    5.9770 C.3   175  THR175      0.0375
     93  N        -20.5670  -15.9040    4.0090 N.3   177  VAL177     -0.1245
     94  CA       -21.2050  -16.6250    2.9200 C.3   177  VAL177      0.1561
     95  C        -20.1940  -16.8030    1.7980 C.2   177  VAL177      0.2260
     96  O        -19.2360  -16.0290    1.6770 O.2   177  VAL177     -0.2867
     97  CB       -22.4650  -15.8840    2.3690 C.3   177  VAL177      0.0252
     98  CG1      -23.5700  -15.8790    3.4040 C.3   177  VAL177      0.0019
     99  CG2      -22.1400  -14.4580    1.9410 C.3   177  VAL177      0.0019
    100  N        -26.9390   -4.9590    1.7330 N.3   213  HIS213     -0.1241
    101  CA       -28.2560   -5.5810    1.5570 C.3   213  HIS213      0.1621
    102  C        -29.2720   -4.8850    2.4510 C.2   213  HIS213      0.2264
    103  O        -29.2740   -5.0970    3.6530 O.2   213  HIS213     -0.2867
    104  CB       -28.1980   -7.0900    1.8450 C.3   213  HIS213      0.0745
    105  CG       -27.5150   -7.8730    0.7700 C.ar  213  HIS213      0.0817
    106  ND1      -28.2160   -8.4810   -0.2520 N.ar  213  HIS213     -0.2268
    107  CD2      -26.2030   -7.9750    0.4360 C.ar  213  HIS213      0.1154
    108  CE1      -27.3680   -8.9450   -1.1530 C.ar  213  HIS213      0.1986
    109  NE2      -26.1390   -8.6480   -0.7630 N.ar  213  HIS213     -0.2212
@<TRIPOS>BOND
     1    65    64    2
     2    64    63    1
     3    63    62    1
     4    63    66    1
     5     3     4    2
     6     3     2    1
     7    66    67    1
     8    35    36    1
     9     5     2    1
    10     5     6    1
    11     1     2    1
    12    36    37    1
    13    36    39    1
    14    11    13   ar
    15    11     8   ar
    16    27    28    2
    17    27    26    1
    18    69    67    1
    19    46    45    2
    20    45    44    1
    21    38    37    2
    22    37    43   am
    23    67    68    1
    24    13    14   ar
    25    56    55    2
    26    43    44    1
    27    39    40    1
    28     6     8   ar
    29     6     7   ar
    30     8    10   ar
    31    26    25    1
    32    26    29    1
    33    44    47    1
    34    55    54    1
    35    14    12   ar
    36     7     9   ar
    37    40    41   ar
    38    40    42   ar
    39    29    30    1
    40    10    12   ar
    41    10     9   ar
    42    47    48    1
    43    32    30   ar
    44    32    34   ar
    45    18    17    2
    46    30    31   ar
    47    54    57    1
    48    54    53    1
    49    57    58    1
    50    17    16    1
    51    58    59    1
    52    48    50   ar
    53    48    49   ar
    54    50    52   ar
    55    34    33   ar
    56    31    33   ar
    57    49    51   ar
    58    59    61   am
    59    59    60    2
    60    52    51   ar
    61    16    15    1
    62    16    19    1
    63    22    24   ar
    64    22    20   ar
    65    24    23   ar
    66   108   109   ar
    67   108   106   ar
    68    20    19    1
    69    20    21   ar
    70   109   107   ar
    71    23    21   ar
    72   106   105   ar
    73   107   105   ar
    74    79    77   ar
    75    79    78   ar
    76   105   104    1
    77    73    72    2
    78    77    75   ar
    79   101   100    1
    80   101   104    1
    81   101   102    1
    82    78    76   ar
    83    96    95    2
    84    95    94    1
    85    99    97    1
    86    72    71    1
    87    85    84    1
    88    97    94    1
    89    97    98    1
    90   102   103    2
    91    75    76   ar
    92    75    74    1
    93    94    93    1
    94    84    81    1
    95    71    74    1
    96    71    70    1
    97    80    81    1
    98    91    90    1
    99    81    82    1
   100    89    88    2
   101    83    82    2
   102    90    92    1
   103    90    87    1
   104    88    87    1
   105    87    86    1
