@<TRIPOS>MOLECULE
tmp/5ayaA00.pdb
 136 130 0 0 0
SMALL
GASTEIGER

@<TRIPOS>ATOM
      1  N        -24.1020   12.1990   -8.0490 N.3     3  TRP3       -0.1241
      2  CA       -23.9480   10.7750   -7.8230 C.3     3  TRP3        0.1605
      3  C        -23.0490   10.1130   -8.8770 C.2     3  TRP3        0.2264
      4  O        -22.5150    9.0240   -8.6440 O.2     3  TRP3       -0.2867
      5  CB       -25.3260   10.0920   -7.8080 C.3     3  TRP3        0.0550
      6  CG       -26.2690   10.5740   -6.7100 C.ar    3  TRP3        0.0003
      7  CD1      -25.9360   11.2870   -5.5850 C.ar    3  TRP3        0.0946
      8  CD2      -27.6820   10.3040   -6.6080 C.ar    3  TRP3        0.0152
      9  NE1      -27.0550   11.4860   -4.7990 N.ar    3  TRP3       -0.2442
     10  CE2      -28.1360   10.8900   -5.3990 C.ar    3  TRP3        0.0810
     11  CE3      -28.6050    9.6180   -7.4190 C.ar    3  TRP3        0.0012
     12  CZ2      -29.4740   10.8210   -4.9850 C.ar    3  TRP3        0.0191
     13  CZ3      -29.9370    9.5580   -7.0120 C.ar    3  TRP3        0.0001
     14  CH2      -30.3610   10.1750   -5.8130 C.ar    3  TRP3        0.0015
     15  N        -27.5900   -1.9370   -1.1580 N.3    70  HIS70      -0.1241
     16  CA       -28.9760   -2.1210   -1.6160 C.3    70  HIS70       0.1621
     17  C        -29.2560   -1.6370   -3.0470 C.2    70  HIS70       0.2264
     18  O        -28.4810   -0.8600   -3.6260 O.2    70  HIS70      -0.2867
     19  CB       -29.9280   -1.4310   -0.6470 C.3    70  HIS70       0.0745
     20  CG       -29.9150    0.0540   -0.7480 C.ar   70  HIS70       0.0817
     21  ND1      -29.1110    0.8500    0.0430 N.ar   70  HIS70      -0.2268
     22  CD2      -30.5980    0.8920   -1.5610 C.ar   70  HIS70       0.1154
     23  CE1      -29.2570    2.1090   -0.3240 C.ar   70  HIS70       0.1986
     24  NE2      -30.1820    2.1630   -1.2680 N.ar   70  HIS70      -0.2212
     25  N        -31.0690    0.3350   -5.0510 N.3    72  HIS72      -0.1241
     26  CA       -31.4910    1.5610   -5.7010 C.3    72  HIS72       0.1621
     27  C        -30.4370    1.9960   -6.6860 C.2    72  HIS72       0.2264
     28  O        -29.2530    1.7000   -6.4980 O.2    72  HIS72      -0.2867
     29  CB       -31.7050    2.6630   -4.6930 C.3    72  HIS72       0.0745
     30  CG       -32.8830    2.4320   -3.8230 C.ar   72  HIS72       0.0817
     31  ND1      -33.1510    3.2030   -2.7210 N.ar   72  HIS72      -0.2268
     32  CD2      -33.8930    1.5350   -3.9160 C.ar   72  HIS72       0.1154
     33  CE1      -34.2520    2.7620   -2.1370 C.ar   72  HIS72       0.1986
     34  NE2      -34.7290    1.7570   -2.8510 N.ar   72  HIS72      -0.2212
     35  N        -28.7640    4.5910   -7.5870 N.3    74  ASP74      -0.1225
     36  CA       -27.5970    5.3800   -7.2180 C.3    74  ASP74       0.1805
     37  C        -26.4310    4.5840   -6.5840 C.2    74  ASP74       0.2597
     38  O        -25.3000    5.0910   -6.5710 O.2    74  ASP74      -0.2718
     39  CB       -27.9890    6.5770   -6.3290 C.3    74  ASP74       0.1424
     40  CG       -28.6660    6.1750   -5.0270 C.2    74  ASP74       0.3668
     41  OD1      -29.3680    5.1330   -4.9850 O.co2  74  ASP74      -0.2456
     42  OD2      -28.6000    6.9810   -4.0760 O.co2  74  ASP74      -0.2456
     43  N        -26.6900    3.3550   -6.1050 N.am   75  HIS75      -0.1975
     44  CA       -25.6250    2.4680   -5.5940 C.3    75  HIS75       0.1656
     45  C        -25.3750    1.2940   -6.5020 C.2    75  HIS75       0.2291
     46  O        -24.2800    0.7380   -6.5180 O.2    75  HIS75      -0.2864
     47  CB       -25.9910    1.9230   -4.2130 C.3    75  HIS75       0.0771
     48  CG       -26.4420    2.9710   -3.2580 C.ar   75  HIS75       0.0820
     49  ND1      -25.5740    3.8730   -2.6810 N.ar   75  HIS75      -0.2267
     50  CD2      -27.6860    3.3630   -2.8940 C.ar   75  HIS75       0.1154
     51  CE1      -26.2540    4.7160   -1.9310 C.ar   75  HIS75       0.1986
     52  NE2      -27.5420    4.4780   -2.1070 N.ar   75  HIS75      -0.2212
     53  N        -39.2910    2.9100   -2.7590 N.3   111  GLN111     -0.1245
     54  CA       -39.0370    3.8020   -3.9010 C.3   111  GLN111      0.1566
     55  C        -39.3030    3.1430   -5.2520 C.2   111  GLN111      0.2260
     56  O        -38.8510    3.6410   -6.2820 O.2   111  GLN111     -0.2867
     57  CB       -37.6070    4.3300   -3.8410 C.3   111  GLN111      0.0367
     58  CG       -37.3360    5.1510   -2.5900 C.3   111  GLN111      0.0905
     59  CD       -35.9780    5.8080   -2.6100 C.2   111  GLN111      0.2608
     60  OE1      -35.4220    6.0730   -3.6680 O.2   111  GLN111     -0.2717
     61  NE2      -35.4080    6.0210   -1.4350 N.am  111  GLN111     -0.0878
     62  N        -37.9520    5.9150   -7.9390 N.3   115  LEU115     -0.1245
     63  CA       -36.7000    5.5760   -8.6180 C.3   115  LEU115      0.1561
     64  C        -36.9740    4.7880   -9.8870 C.2   115  LEU115      0.2260
     65  O        -37.3700    3.6230   -9.8350 O.2   115  LEU115     -0.2867
     66  CB       -35.7800    4.7600   -7.7060 C.3   115  LEU115      0.0270
     67  CG       -35.1920    5.4650   -6.4820 C.3   115  LEU115      0.0019
     68  CD1      -33.8150    4.9010   -6.1800 C.3   115  LEU115      0.0001
     69  CD2      -35.1070    6.9760   -6.6460 C.3   115  LEU115      0.0001
     70  N        -34.9240    0.0420    4.5150 N.3   148  HIS148     -0.1241
     71  CA       -34.8510    0.9860    3.4080 C.3   148  HIS148      0.1621
     72  C        -35.1110    0.1990    2.1350 C.2   148  HIS148      0.2264
     73  O        -35.6990    0.7190    1.1810 O.2   148  HIS148     -0.2867
     74  CB       -33.4480    1.6760    3.4130 C.3   148  HIS148      0.0745
     75  CG       -33.2140    2.6510    2.2900 C.ar  148  HIS148      0.0817
     76  ND1      -33.4270    4.0040    2.4380 N.ar  148  HIS148     -0.2268
     77  CD2      -32.6050    2.5010    1.0880 C.ar  148  HIS148      0.1154
     78  CE1      -33.0570    4.6340    1.3390 C.ar  148  HIS148      0.1986
     79  NE2      -32.5530    3.7470    0.5010 N.ar  148  HIS148     -0.2212
     80  N        -27.8170    2.3110    3.8450 N.3   173  SER173     -0.1217
     81  CA       -28.7530    3.3700    4.2410 C.3   173  SER173      0.1889
     82  C        -29.8040    2.8070    5.1690 C.2   173  SER173      0.2288
     83  O        -30.3760    1.7400    4.9170 O.2   173  SER173     -0.2866
     84  CB       -29.4270    4.0320    3.0150 C.3   173  SER173      0.2089
     85  OG       -28.4920    4.2580    1.9760 O.3   173  SER173     -0.2183
     86  N        -32.4430    4.9200    6.0960 N.3   175  THR175     -0.1218
     87  CA       -33.3710    6.0440    5.9760 C.3   175  THR175      0.1862
     88  C        -34.7730    5.5900    5.5380 C.2   175  THR175      0.2287
     89  O        -34.9290    4.8520    4.5530 O.2   175  THR175     -0.2866
     90  CB       -32.8150    7.1340    5.0280 C.3   175  THR175      0.1770
     91  OG1      -32.2960    6.5600    3.8170 O.3   175  THR175     -0.2211
     92  CG2      -31.7200    7.9060    5.7290 C.3   175  THR175      0.0375
     93  N        -37.3130    6.5340    3.6030 N.3   177  VAL177     -0.1245
     94  CA       -37.7220    7.3830    2.4990 C.3   177  VAL177      0.1561
     95  C        -38.2940    6.5050    1.4190 C.2   177  VAL177      0.2260
     96  O        -37.9930    5.3160    1.3600 O.2   177  VAL177     -0.2867
     97  CB       -36.5470    8.2030    1.9320 C.3   177  VAL177      0.0252
     98  CG1      -36.1930    9.3430    2.8740 C.3   177  VAL177      0.0019
     99  CG2      -35.3430    7.3150    1.6680 C.3   177  VAL177      0.0019
    100  N        -24.0780    6.8160    1.4150 N.3   213  HIS213     -0.1241
    101  CA       -23.9340    8.2660    1.2340 C.3   213  HIS213      0.1621
    102  C        -22.8380    8.8400    2.1560 C.2   213  HIS213      0.2264
    103  O        -23.0270    8.9790    3.3690 O.2   213  HIS213     -0.2867
    104  CB       -25.2830    8.9850    1.4370 C.3   213  HIS213      0.0745
    105  CG       -26.2920    8.6880    0.3650 C.ar  213  HIS213      0.0817
    106  ND1      -26.2620    9.2880   -0.8780 N.ar  213  HIS213     -0.2268
    107  CD2      -27.2920    7.7780    0.3160 C.ar  213  HIS213      0.1154
    108  CE1      -27.2070    8.7690   -1.6410 C.ar  213  HIS213      0.1986
    109  NE2      -27.8490    7.8510   -0.9390 N.ar  213  HIS213     -0.2212
    110  N        -21.3110   11.5470    3.0530 N.3   215  GLU215     -0.1231
    111  CA       -21.4650   12.6300    4.0220 C.3   215  GLU215      0.1699
    112  C        -22.1690   12.2120    5.3120 C.2   215  GLU215      0.2592
    113  O        -22.0020   12.8550    6.3390 O.2   215  GLU215     -0.2718
    114  CB       -22.1710   13.8330    3.3760 C.3   215  GLU215      0.0402
    115  CG       -23.6810   13.7190    3.2490 C.3   215  GLU215      0.1161
    116  CD       -24.1120   12.8220    2.1190 C.2   215  GLU215      0.3649
    117  OE1      -23.2720   12.5010    1.2480 O.co2 215  GLU215     -0.2457
    118  OE2      -25.2930   12.4210    2.1110 O.co2 215  GLU215     -0.2457
    119  N        -22.8360   11.0640    5.3010 N.am  216  VAL216     -0.1980
    120  CA       -23.5820   10.6060    6.4720 C.3   216  VAL216      0.1595
    121  C        -22.6300   10.2650    7.6250 C.2   216  VAL216      0.2287
    122  O        -23.0480   10.2570    8.7860 O.2   216  VAL216     -0.2864
    123  CB       -24.4610    9.3740    6.1350 C.3   216  VAL216      0.0276
    124  CG1      -25.1190    8.8090    7.3880 C.3   216  VAL216      0.0022
    125  CG2      -25.5270    9.7260    5.1000 C.3   216  VAL216      0.0022
    126  N        -34.9270    9.7700   11.9520 N.3   250  ARG250     -0.1245
    127  CA       -35.5490    9.9560   10.6560 C.3   250  ARG250      0.1563
    128  C        -36.8500    9.1570   10.5250 C.2   250  ARG250      0.2260
    129  O        -37.7880    9.6070    9.8660 O.2   250  ARG250     -0.2867
    130  CB       -34.5730    9.5750    9.5500 C.3   250  ARG250      0.0307
    131  CG       -35.0950    9.8070    8.1470 C.3   250  ARG250      0.0489
    132  CD       -35.3140   11.2860    7.8590 C.3   250  ARG250      0.2205
    133  NE       -35.1940   11.5480    6.4280 N.pl3 250  ARG250     -0.0865
    134  CZ       -34.0400   11.5840    5.7620 C.cat 250  ARG250      0.5346
    135  NH1      -32.8810   11.4720    6.4120 N.pl3 250  ARG250      0.1354
    136  NH2      -34.0450   11.7480    4.4400 N.pl3 250  ARG250      0.1354
@<TRIPOS>BOND
     1    64    65    2
     2    64    63    1
     3     3     4    2
     4     3     2    1
     5    63    62    1
     6    63    66    1
     7     1     2    1
     8     2     5    1
     9     5     6    1
    10    66    67    1
    11    35    36    1
    12    11    13   ar
    13    11     8   ar
    14    36    37    1
    15    36    39    1
    16    13    14   ar
    17     6     8   ar
    18     6     7   ar
    19    27    28    2
    20    27    26    1
    21    69    67    1
    22     8    10   ar
    23    37    38    2
    24    37    43   am
    25    46    45    2
    26    45    44    1
    27    67    68    1
    28    39    40    1
    29    56    55    2
    30    43    44    1
    31    14    12   ar
    32    26    25    1
    33    26    29    1
    34    44    47    1
    35     7     9   ar
    36    10    12   ar
    37    10     9   ar
    38    55    54    1
    39    40    41   ar
    40    40    42   ar
    41    29    30    1
    42    47    48    1
    43    32    30   ar
    44    32    34   ar
    45    54    57    1
    46    54    53    1
    47    57    58    1
    48    30    31   ar
    49    60    59    2
    50    18    17    2
    51    48    50   ar
    52    48    49   ar
    53    17    16    1
    54    50    52   ar
    55    34    33   ar
    56    31    33   ar
    57    49    51   ar
    58    59    58    1
    59    59    61   am
    60    52    51   ar
    61   108   109   ar
    62   108   106   ar
    63    16    15    1
    64    16    19    1
    65    22    24   ar
    66    22    20   ar
    67    24    23   ar
    68   109   107   ar
    69   106   105   ar
    70    20    19    1
    71    20    21   ar
    72    23    21   ar
    73   107   105   ar
    74   105   104    1
    75    79    77   ar
    76    79    78   ar
    77    77    75   ar
    78    73    72    2
    79   101   100    1
    80   101   104    1
    81   101   102    1
    82   117   116   ar
    83    78    76   ar
    84    96    95    2
    85    95    94    1
    86    99    97    1
    87    97    94    1
    88    97    98    1
    89    85    84    1
    90   118   116   ar
    91   116   115    1
    92    72    71    1
    93   102   103    2
    94    75    76   ar
    95    75    74    1
    96    94    93    1
    97    84    81    1
    98   110   111    1
    99   115   114    1
   100   114   111    1
   101    71    74    1
   102    71    70    1
   103    91    90    1
   104    80    81    1
   105   111   112    1
   106    81    82    1
   107   136   134    1
   108    89    88    2
   109    83    82    2
   110    90    92    1
   111    90    87    1
   112   125   123    1
   113   119   112   am
   114   119   120    1
   115   112   113    2
   116    88    87    1
   117   134   135    1
   118   134   133    2
   119    87    86    1
   120   123   120    1
   121   123   124    1
   122   133   132    1
   123   120   121    1
   124   121   122    2
   125   132   131    1
   126   131   130    1
   127   130   127    1
   128   129   128    2
   129   128   127    1
   130   127   126    1
