@<TRIPOS>MOLECULE
tmp/5aycA01.pdb
 130 122 0 0 0
SMALL
GASTEIGER

@<TRIPOS>ATOM
      1  N         17.7490   44.8210  120.4840 N.3    71  ASN71      -0.1240
      2  CA        18.3310   43.8270  119.5660 C.3    71  ASN71       0.1653
      3  C         19.8260   43.5750  119.7230 C.2    71  ASN71       0.2266
      4  O         20.6400   44.0790  118.9510 O.2    71  ASN71      -0.2867
      5  CB        18.0330   44.2430  118.1220 C.3    71  ASN71       0.1155
      6  CG        16.5420   44.3250  117.8420 C.2    71  ASN71       0.2627
      7  OD1       15.7140   44.1410  118.7480 O.2    71  ASN71      -0.2716
      8  ND2       16.1840   44.6270  116.5910 N.am   71  ASN71      -0.0877
      9  N         22.3650   46.8500  120.4550 N.3    86  ARG86      -0.1245
     10  CA        22.0190   47.8880  119.5020 C.3    86  ARG86       0.1563
     11  C         21.5740   49.1130  120.2910 C.2    86  ARG86       0.2260
     12  O         20.5490   49.0840  120.9670 O.2    86  ARG86      -0.2867
     13  CB        20.9090   47.4370  118.5480 C.3    86  ARG86       0.0307
     14  CG        20.4540   48.5470  117.6020 C.3    86  ARG86       0.0489
     15  CD        19.3200   48.0980  116.7070 C.3    86  ARG86       0.2205
     16  NE        18.8400   49.1980  115.8720 N.pl3  86  ARG86      -0.0865
     17  CZ        17.9330   49.0630  114.9130 C.cat  86  ARG86       0.5346
     18  NH1       17.4160   47.8690  114.6590 N.pl3  86  ARG86       0.1354
     19  NH2       17.5440   50.1230  114.2100 N.pl3  86  ARG86       0.1354
     20  N         23.1310   47.5300  112.4740 N.3   128  TYR128     -0.1227
     21  CA        22.3160   47.0200  113.5730 C.3   128  TYR128      0.1736
     22  C         22.1970   45.5040  113.6570 C.2   128  TYR128      0.2595
     23  O         22.5900   44.7860  112.7400 O.2   128  TYR128     -0.2718
     24  CB        20.9020   47.6260  113.5090 C.3   128  TYR128      0.0548
     25  CG        20.2130   47.6760  112.1450 C.ar  128  TYR128     -0.0200
     26  CD1       20.5350   48.6570  111.2120 C.ar  128  TYR128     -0.0009
     27  CD2       19.1750   46.7970  111.8330 C.ar  128  TYR128     -0.0009
     28  CE1       19.8810   48.7340  109.9870 C.ar  128  TYR128      0.0417
     29  CE2       18.5180   46.8670  110.6110 C.ar  128  TYR128      0.0417
     30  CZ        18.8740   47.8420  109.6930 C.ar  128  TYR128      0.1957
     31  OH        18.2190   47.9310  108.4790 O.3   128  TYR128     -0.2866
     32  N         21.6620   45.0490  114.7950 N.am  129  ASP129     -0.1974
     33  CA        21.2720   43.6680  115.0290 C.3   129  ASP129      0.1709
     34  C         22.3940   42.6770  114.7470 C.2   129  ASP129      0.2293
     35  O         22.2650   41.8480  113.8590 O.2   129  ASP129     -0.2864
     36  CB        20.0540   43.3150  114.1710 C.3   129  ASP129      0.1436
     37  CG        18.8790   44.2670  114.3880 C.2   129  ASP129      0.3671
     38  OD1       19.0110   45.2470  115.1490 O.co2 129  ASP129     -0.2456
     39  OD2       17.8160   44.0310  113.7760 O.co2 129  ASP129     -0.2456
     40  N         18.8880   40.5540  105.2130 N.3   188  ARG188     -0.1231
     41  CA        18.8630   40.9310  106.6300 C.3   188  ARG188      0.1694
     42  C         18.7610   39.6480  107.4560 C.2   188  ARG188      0.2592
     43  O         18.4240   38.5970  106.9130 O.2   188  ARG188     -0.2718
     44  CB        17.7020   41.8900  106.9580 C.3   188  ARG188      0.0321
     45  CG        17.8910   42.6120  108.3340 C.3   188  ARG188      0.0489
     46  CD        16.7570   43.5930  108.7160 C.3   188  ARG188      0.2205
     47  NE        16.6980   44.7480  107.8280 N.pl3 188  ARG188     -0.0865
     48  CZ        15.7160   44.9780  106.9610 C.cat 188  ARG188      0.5346
     49  NH1       14.6900   44.1360  106.8660 N.pl3 188  ARG188      0.1354
     50  NH2       15.7610   46.0510  106.1880 N.pl3 188  ARG188      0.1354
     51  N         19.0650   39.7250  108.7470 N.am  189  ASN189     -0.1974
     52  CA        18.9760   38.5570  109.6330 C.3   189  ASN189      0.1688
     53  C         19.8900   37.4080  109.2270 C.2   189  ASN189      0.2292
     54  O         19.5360   36.2350  109.3720 O.2   189  ASN189     -0.2864
     55  CB        17.5370   38.0710  109.7010 C.3   189  ASN189      0.1181
     56  CG        16.5800   39.1920  110.0580 C.2   189  ASN189      0.2629
     57  OD1       16.7550   39.8660  111.0780 O.2   189  ASN189     -0.2716
     58  ND2       15.5950   39.4280  109.2050 N.am  189  ASN189     -0.0877
     59  N         11.5460   46.1120  102.9960 N.3   212  ILE212     -0.1245
     60  CA        10.5340   45.6860  103.9740 C.3   212  ILE212      0.1561
     61  C          9.8400   44.3750  103.5850 C.2   212  ILE212      0.2260
     62  O          9.6770   43.4720  104.4160 O.2   212  ILE212     -0.2867
     63  CB         9.4470   46.7760  104.1740 C.3   212  ILE212      0.0252
     64  CG1       10.0620   48.0400  104.7710 C.3   212  ILE212      0.0019
     65  CG2        8.3390   46.2750  105.0910 C.3   212  ILE212      0.0019
     66  CD1       10.7990   47.7850  106.0710 C.3   212  ILE212      0.0001
     67  N          6.6780   37.4570  106.8980 N.3   251  LYS251     -0.1245
     68  CA         8.0810   37.1290  106.6730 C.3   251  LYS251      0.1561
     69  C          8.6350   36.4740  107.9220 C.2   251  LYS251      0.2260
     70  O          7.9440   36.3560  108.9230 O.2   251  LYS251     -0.2867
     71  CB         8.9000   38.3640  106.3080 C.3   251  LYS251      0.0271
     72  CG         8.6430   39.5650  107.1910 C.3   251  LYS251      0.0035
     73  CD         9.4290   40.7890  106.6720 C.3   251  LYS251      0.0206
     74  CE         9.1150   42.0450  107.4950 C.3   251  LYS251      0.1093
     75  NZ         9.9930   43.2020  107.1290 N.3   251  LYS251     -0.1314
     76  N         12.5740   34.6840  114.3880 N.3   270  HIS270     -0.1241
     77  CA        11.3650   35.4990  114.5110 C.3   270  HIS270      0.1621
     78  C         10.4110   35.3310  113.3370 C.2   270  HIS270      0.2264
     79  O         10.8350   35.0890  112.2040 O.2   270  HIS270     -0.2867
     80  CB        11.7170   36.9840  114.6860 C.3   270  HIS270      0.0745
     81  CG        12.2970   37.6300  113.4630 C.ar  270  HIS270      0.0817
     82  ND1       13.6330   37.5400  113.1360 N.ar  270  HIS270     -0.2268
     83  CD2       11.7200   38.3730  112.4870 C.ar  270  HIS270      0.1154
     84  CE1       13.8540   38.2040  112.0150 C.ar  270  HIS270      0.1986
     85  NE2       12.7080   38.7050  111.5930 N.ar  270  HIS270     -0.2212
     86  N          5.5700   40.9580  115.5700 N.3   281  TYR281     -0.1241
     87  CA         6.7610   40.1050  115.6000 C.3   281  TYR281      0.1605
     88  C          6.7200   39.1840  116.7960 C.2   281  TYR281      0.2264
     89  O          6.5320   39.6510  117.9240 O.2   281  TYR281     -0.2867
     90  CB         8.0460   40.9450  115.6880 C.3   281  TYR281      0.0534
     91  CG         8.4780   41.5760  114.3980 C.ar  281  TYR281     -0.0201
     92  CD1        9.7000   41.2470  113.8260 C.ar  281  TYR281     -0.0009
     93  CD2        7.6730   42.5000  113.7490 C.ar  281  TYR281     -0.0009
     94  CE1       10.1160   41.8220  112.6460 C.ar  281  TYR281      0.0417
     95  CE2        8.0730   43.0800  112.5500 C.ar  281  TYR281      0.0417
     96  CZ         9.3050   42.7300  112.0070 C.ar  281  TYR281      0.1957
     97  OH         9.7320   43.2820  110.8200 O.3   281  TYR281     -0.2866
     98  N          8.2300   50.8260  118.6000 N.3   316  VAL316     -0.1245
     99  CA         7.6330   49.9730  117.5800 C.3   316  VAL316      0.1561
    100  C          6.8700   48.8600  118.2910 C.2   316  VAL316      0.2260
    101  O          7.3830   47.7580  118.4750 O.2   316  VAL316     -0.2867
    102  CB         8.6990   49.3740  116.6270 C.3   316  VAL316      0.0252
    103  CG1        8.0270   48.6250  115.4850 C.3   316  VAL316      0.0019
    104  CG2        9.6270   50.4640  116.0960 C.3   316  VAL316      0.0019
    105  N          6.0940   43.9720  119.1980 N.3   319  VAL319     -0.1245
    106  CA         7.3200   43.3220  118.7140 C.3   319  VAL319      0.1561
    107  C          8.1220   42.7080  119.8520 C.2   319  VAL319      0.2260
    108  O          8.4080   43.3820  120.8470 O.2   319  VAL319     -0.2867
    109  CB         8.2510   44.3290  117.9850 C.3   319  VAL319      0.0252
    110  CG1        9.6660   43.7290  117.7490 C.3   319  VAL319      0.0019
    111  CG2        7.6450   44.7890  116.6750 C.3   319  VAL319      0.0019
    112  N         11.9040   40.4440  119.7030 N.3   321  PHE321     -0.1241
    113  CA        12.9620   40.1880  118.7340 C.3   321  PHE321      0.1605
    114  C         14.2000   39.7180  119.4730 C.2   321  PHE321      0.2264
    115  O         14.5140   40.2370  120.5560 O.2   321  PHE321     -0.2867
    116  CB        13.2650   41.4630  117.9460 C.3   321  PHE321      0.0534
    117  CG        14.0600   41.2330  116.6910 C.ar  321  PHE321     -0.0203
    118  CD1       13.4160   41.0010  115.4840 C.ar  321  PHE321     -0.0042
    119  CD2       15.4480   41.2500  116.7170 C.ar  321  PHE321     -0.0042
    120  CE1       14.1470   40.7920  114.3140 C.ar  321  PHE321     -0.0003
    121  CE2       16.1860   41.0560  115.5500 C.ar  321  PHE321     -0.0003
    122  CZ        15.5330   40.8270  114.3460 C.ar  321  PHE321     -0.0000
    123  N         11.3370   47.4230  120.1300 N.3   341  ASP341     -0.1239
    124  CA        12.5020   48.1880  119.6590 C.3   341  ASP341      0.1674
    125  C         12.9160   49.2460  120.6690 C.2   341  ASP341      0.2266
    126  O         13.4060   50.3070  120.2900 O.2   341  ASP341     -0.2867
    127  CB        12.2140   48.8690  118.3070 C.3   341  ASP341      0.1410
    128  CG        12.2270   47.9010  117.1320 C.2   341  ASP341      0.3668
    129  OD1       12.2340   46.6760  117.3560 O.co2 341  ASP341     -0.2456
    130  OD2       12.2330   48.3750  115.9760 O.co2 341  ASP341     -0.2456
@<TRIPOS>BOND
     1    59    60    1
     2    61    60    1
     3    61    62    2
     4    60    63    1
     5    63    64    1
     6    63    65    1
     7    64    66    1
     8    40    41    1
     9    50    48    1
    10    71    68    1
    11    71    72    1
    12    41    44    1
    13    41    42    1
    14    73    72    1
    15    73    74    1
    16    68    67    1
    17    68    69    1
    18    49    48    1
    19    43    42    2
    20    44    45    1
    21    48    47    2
    22    75    74    1
    23    42    51   am
    24    47    46    1
    25    69    70    2
    26    45    46    1
    27    31    30    1
    28    51    52    1
    29    58    56   am
    30    53    54    2
    31    53    52    1
    32    52    55    1
    33    30    28   ar
    34    30    29   ar
    35    55    56    1
    36    28    26   ar
    37    56    57    2
    38    29    27   ar
    39    97    96    1
    40    26    25   ar
    41    85    84   ar
    42    85    83   ar
    43    27    25   ar
    44    96    95   ar
    45    96    94   ar
    46    84    82   ar
    47    25    24    1
    48    79    78    2
    49    20    21    1
    50    83    81   ar
    51    95    93   ar
    52    94    92   ar
    53    23    22    2
    54    82    81   ar
    55    78    77    1
    56    81    80    1
    57    24    21    1
    58    21    22    1
    59    22    32   am
    60    93    91   ar
    61    39    37   ar
    62    92    91   ar
    63    35    34    2
    64    36    37    1
    65    36    33    1
    66    19    17    1
    67   120   122   ar
    68   120   118   ar
    69   122   121   ar
    70    37    38   ar
    71    76    77    1
    72    91    90    1
    73    77    80    1
    74    18    17    1
    75    34    33    1
    76    32    33    1
    77    17    16    2
    78   118   117   ar
    79   103   102    1
    80   121   119   ar
    81    86    87    1
    82    87    90    1
    83    87    88    1
    84    16    15    1
    85   130   128   ar
    86   104   102    1
    87     8     6   am
    88   102    99    1
    89   111   109    1
    90   117   119   ar
    91   117   116    1
    92    15    14    1
    93    88    89    2
    94   128   129   ar
    95   128   127    1
    96    99   100    1
    97    99    98    1
    98    14    13    1
    99   110   109    1
   100     6     5    1
   101     6     7    2
   102   116   113    1
   103   109   106    1
   104     5     2    1
   105   100   101    2
   106   127   124    1
   107    13    10    1
   108   106   105    1
   109   106   107    1
   110   113   114    1
   111   113   112    1
   112     4     3    2
   113   114   115    2
   114    10    11    1
   115    10     9    1
   116     2     3    1
   117     2     1    1
   118   124   123    1
   119   124   125    1
   120   107   108    2
   121   126   125    2
   122    11    12    2
