@<TRIPOS>MOLECULE
tmp/5aycA00.pdb
 129 122 0 0 0
SMALL
GASTEIGER

@<TRIPOS>ATOM
      1  N         18.3290   47.9160  122.3320 N.3    70  PHE70      -0.1241
      2  CA        17.6150   46.6940  122.0020 C.3    70  PHE70       0.1605
      3  C         18.4460   45.7290  121.1650 C.2    70  PHE70       0.2264
      4  O         19.6800   45.7920  121.1940 O.2    70  PHE70      -0.2867
      5  CB        16.2620   47.0210  121.3210 C.3    70  PHE70       0.0534
      6  CG        16.3270   47.9160  120.0790 C.ar   70  PHE70      -0.0203
      7  CD1       15.8080   47.4650  118.8620 C.ar   70  PHE70      -0.0042
      8  CD2       16.7860   49.2310  120.1460 C.ar   70  PHE70      -0.0042
      9  CE1       15.7970   48.2770  117.7330 C.ar   70  PHE70      -0.0003
     10  CE2       16.7900   50.0620  119.0030 C.ar   70  PHE70      -0.0003
     11  CZ        16.2930   49.5800  117.7990 C.ar   70  PHE70      -0.0000
     12  N         22.3650   46.8500  120.4550 N.3    86  ARG86      -0.1245
     13  CA        22.0190   47.8880  119.5020 C.3    86  ARG86       0.1563
     14  C         21.5740   49.1130  120.2910 C.2    86  ARG86       0.2260
     15  O         20.5490   49.0840  120.9670 O.2    86  ARG86      -0.2867
     16  CB        20.9090   47.4370  118.5480 C.3    86  ARG86       0.0307
     17  CG        20.4540   48.5470  117.6020 C.3    86  ARG86       0.0489
     18  CD        19.3200   48.0980  116.7070 C.3    86  ARG86       0.2205
     19  NE        18.8400   49.1980  115.8720 N.pl3  86  ARG86      -0.0865
     20  CZ        17.9330   49.0630  114.9130 C.cat  86  ARG86       0.5346
     21  NH1       17.4160   47.8690  114.6590 N.pl3  86  ARG86       0.1354
     22  NH2       17.5440   50.1230  114.2100 N.pl3  86  ARG86       0.1354
     23  N         18.5770   59.0120  116.0310 N.3    92  ARG92      -0.1245
     24  CA        17.9670   57.8740  115.3040 C.3    92  ARG92       0.1563
     25  C         18.9510   56.9530  114.5870 C.2    92  ARG92       0.2260
     26  O         18.5290   55.9920  113.9480 O.2    92  ARG92      -0.2867
     27  CB        16.9120   58.3430  114.2830 C.3    92  ARG92       0.0307
     28  CG        15.4840   57.8760  114.6220 C.3    92  ARG92       0.0489
     29  CD        15.3070   56.3650  114.4090 C.3    92  ARG92       0.2205
     30  NE        15.2510   55.9790  112.9990 N.pl3  92  ARG92      -0.0865
     31  CZ        15.2330   54.7190  112.5760 C.cat  92  ARG92       0.5346
     32  NH1       15.2910   53.7140  113.4510 N.pl3  92  ARG92       0.1354
     33  NH2       15.1660   54.4570  111.2780 N.pl3  92  ARG92       0.1354
     34  N         23.3420   53.2470  108.6790 N.3   126  ASN126     -0.1240
     35  CA        23.0630   52.5400  109.9280 C.3   126  ASN126      0.1653
     36  C         23.6700   51.1370  109.9550 C.2   126  ASN126      0.2266
     37  O         23.7930   50.4860  108.9260 O.2   126  ASN126     -0.2867
     38  CB        21.5430   52.4500  110.1680 C.3   126  ASN126      0.1155
     39  CG        21.1790   52.5380  111.6420 C.2   126  ASN126      0.2627
     40  OD1       21.8870   53.1750  112.4190 O.2   126  ASN126     -0.2716
     41  ND2       20.0710   51.8980  112.0330 N.am  126  ASN126     -0.0877
     42  N         23.1310   47.5300  112.4740 N.3   128  TYR128     -0.1227
     43  CA        22.3160   47.0200  113.5730 C.3   128  TYR128      0.1736
     44  C         22.1970   45.5040  113.6570 C.2   128  TYR128      0.2595
     45  O         22.5900   44.7860  112.7400 O.2   128  TYR128     -0.2718
     46  CB        20.9020   47.6260  113.5090 C.3   128  TYR128      0.0548
     47  CG        20.2130   47.6760  112.1450 C.ar  128  TYR128     -0.0200
     48  CD1       20.5350   48.6570  111.2120 C.ar  128  TYR128     -0.0009
     49  CD2       19.1750   46.7970  111.8330 C.ar  128  TYR128     -0.0009
     50  CE1       19.8810   48.7340  109.9870 C.ar  128  TYR128      0.0417
     51  CE2       18.5180   46.8670  110.6110 C.ar  128  TYR128      0.0417
     52  CZ        18.8740   47.8420  109.6930 C.ar  128  TYR128      0.1957
     53  OH        18.2190   47.9310  108.4790 O.3   128  TYR128     -0.2866
     54  N         21.6620   45.0490  114.7950 N.am  129  ASP129     -0.1974
     55  CA        21.2720   43.6680  115.0290 C.3   129  ASP129      0.1709
     56  C         22.3940   42.6770  114.7470 C.2   129  ASP129      0.2293
     57  O         22.2650   41.8480  113.8590 O.2   129  ASP129     -0.2864
     58  CB        20.0540   43.3150  114.1710 C.3   129  ASP129      0.1436
     59  CG        18.8790   44.2670  114.3880 C.2   129  ASP129      0.3671
     60  OD1       19.0110   45.2470  115.1490 O.co2 129  ASP129     -0.2456
     61  OD2       17.8160   44.0310  113.7760 O.co2 129  ASP129     -0.2456
     62  N         22.8500   49.3270  106.4110 N.3   147  GLU147     -0.1245
     63  CA        21.8040   50.0010  105.6490 C.3   147  GLU147      0.1567
     64  C         22.3060   51.2750  104.9890 C.2   147  GLU147      0.2260
     65  O         22.9490   52.1150  105.6300 O.2   147  GLU147     -0.2867
     66  CB        20.6070   50.3290  106.5500 C.3   147  GLU147      0.0388
     67  CG        19.4260   50.9190  105.8030 C.3   147  GLU147      0.1160
     68  CD        18.2820   51.2890  106.7290 C.2   147  GLU147      0.3649
     69  OE1       17.9440   50.4830  107.6290 O.co2 147  GLU147     -0.2457
     70  OE2       17.7280   52.3970  106.5530 O.co2 147  GLU147     -0.2457
     71  N         18.8880   40.5540  105.2130 N.3   188  ARG188     -0.1245
     72  CA        18.8630   40.9310  106.6300 C.3   188  ARG188      0.1563
     73  C         18.7610   39.6480  107.4560 C.2   188  ARG188      0.2260
     74  O         18.4240   38.5970  106.9130 O.2   188  ARG188     -0.2867
     75  CB        17.7020   41.8900  106.9580 C.3   188  ARG188      0.0307
     76  CG        17.8910   42.6120  108.3340 C.3   188  ARG188      0.0489
     77  CD        16.7570   43.5930  108.7160 C.3   188  ARG188      0.2205
     78  NE        16.6980   44.7480  107.8280 N.pl3 188  ARG188     -0.0865
     79  CZ        15.7160   44.9780  106.9610 C.cat 188  ARG188      0.5346
     80  NH1       14.6900   44.1360  106.8660 N.pl3 188  ARG188      0.1354
     81  NH2       15.7610   46.0510  106.1880 N.pl3 188  ARG188      0.1354
     82  N         13.2900   46.3070  100.8680 N.3   211  PHE211     -0.1227
     83  CA        13.7990   46.6500  102.1930 C.3   211  PHE211      0.1736
     84  C         12.8430   46.1670  103.3020 C.2   211  PHE211      0.2595
     85  O         13.2830   45.8300  104.4050 O.2   211  PHE211     -0.2718
     86  CB        14.0410   48.1640  102.2840 C.3   211  PHE211      0.0547
     87  CG        14.5580   48.6270  103.6250 C.ar  211  PHE211     -0.0202
     88  CD1       15.8970   48.4530  103.9720 C.ar  211  PHE211     -0.0042
     89  CD2       13.7070   49.2520  104.5340 C.ar  211  PHE211     -0.0042
     90  CE1       16.3760   48.8820  105.2090 C.ar  211  PHE211     -0.0003
     91  CE2       14.1730   49.6860  105.7720 C.ar  211  PHE211     -0.0003
     92  CZ        15.5070   49.4930  106.1150 C.ar  211  PHE211     -0.0000
     93  N         11.5460   46.1120  102.9960 N.am  212  ILE212     -0.1980
     94  CA        10.5340   45.6860  103.9740 C.3   212  ILE212      0.1595
     95  C          9.8400   44.3750  103.5850 C.2   212  ILE212      0.2287
     96  O          9.6770   43.4720  104.4160 O.2   212  ILE212     -0.2864
     97  CB         9.4470   46.7760  104.1740 C.3   212  ILE212      0.0276
     98  CG1       10.0620   48.0400  104.7710 C.3   212  ILE212      0.0022
     99  CG2        8.3390   46.2750  105.0910 C.3   212  ILE212      0.0022
    100  CD1       10.7990   47.7850  106.0710 C.3   212  ILE212      0.0001
    101  N          6.6780   37.4570  106.8980 N.3   251  LYS251     -0.1245
    102  CA         8.0810   37.1290  106.6730 C.3   251  LYS251      0.1561
    103  C          8.6350   36.4740  107.9220 C.2   251  LYS251      0.2260
    104  O          7.9440   36.3560  108.9230 O.2   251  LYS251     -0.2867
    105  CB         8.9000   38.3640  106.3080 C.3   251  LYS251      0.0271
    106  CG         8.6430   39.5650  107.1910 C.3   251  LYS251      0.0035
    107  CD         9.4290   40.7890  106.6720 C.3   251  LYS251      0.0206
    108  CE         9.1150   42.0450  107.4950 C.3   251  LYS251      0.1093
    109  NZ         9.9930   43.2020  107.1290 N.3   251  LYS251     -0.1314
    110  N          5.5700   40.9580  115.5700 N.3   281  TYR281     -0.1241
    111  CA         6.7610   40.1050  115.6000 C.3   281  TYR281      0.1605
    112  C          6.7200   39.1840  116.7960 C.2   281  TYR281      0.2264
    113  O          6.5320   39.6510  117.9240 O.2   281  TYR281     -0.2867
    114  CB         8.0460   40.9450  115.6880 C.3   281  TYR281      0.0534
    115  CG         8.4780   41.5760  114.3980 C.ar  281  TYR281     -0.0201
    116  CD1        9.7000   41.2470  113.8260 C.ar  281  TYR281     -0.0009
    117  CD2        7.6730   42.5000  113.7490 C.ar  281  TYR281     -0.0009
    118  CE1       10.1160   41.8220  112.6460 C.ar  281  TYR281      0.0417
    119  CE2        8.0730   43.0800  112.5500 C.ar  281  TYR281      0.0417
    120  CZ         9.3050   42.7300  112.0070 C.ar  281  TYR281      0.1957
    121  OH         9.7320   43.2820  110.8200 O.3   281  TYR281     -0.2866
    122  N         11.3370   47.4230  120.1300 N.3   341  ASP341     -0.1239
    123  CA        12.5020   48.1880  119.6590 C.3   341  ASP341      0.1674
    124  C         12.9160   49.2460  120.6690 C.2   341  ASP341      0.2266
    125  O         13.4060   50.3070  120.2900 O.2   341  ASP341     -0.2867
    126  CB        12.2140   48.8690  118.3070 C.3   341  ASP341      0.1410
    127  CG        12.2270   47.9010  117.1320 C.2   341  ASP341      0.3668
    128  OD1       12.2340   46.6760  117.3560 O.co2 341  ASP341     -0.2456
    129  OD2       12.2330   48.3750  115.9760 O.co2 341  ASP341     -0.2456
@<TRIPOS>BOND
     1    82    83    1
     2    83    86    1
     3    83    84    1
     4    86    87    1
     5    93    84   am
     6    93    94    1
     7    84    85    2
     8    95    94    1
     9    95    96    2
    10    87    88   ar
    11    87    89   ar
    12    88    90   ar
    13    94    97    1
    14    97    98    1
    15    97    99    1
    16    89    91   ar
    17    98   100    1
    18    64    65    2
    19    64    63    1
    20    90    92   ar
    21    71    72    1
    22    63    62    1
    23    63    66    1
    24    91    92   ar
    25    67    66    1
    26    67    68    1
    27    81    79    1
    28   105   102    1
    29   105   106    1
    30    70    68   ar
    31    72    75    1
    32    72    73    1
    33   107   106    1
    34   107   108    1
    35   102   101    1
    36   102   103    1
    37    68    69   ar
    38    80    79    1
    39    74    73    2
    40    75    76    1
    41    79    78    2
    42   109   108    1
    43    78    77    1
    44   103   104    2
    45    76    77    1
    46    53    52    1
    47    34    35    1
    48    37    36    2
    49    52    50   ar
    50    52    51   ar
    51    35    36    1
    52    35    38    1
    53    50    48   ar
    54    38    39    1
    55    51    49   ar
    56   121   120    1
    57    48    47   ar
    58    33    31    1
    59    39    41   am
    60    39    40    2
    61    49    47   ar
    62   120   119   ar
    63   120   118   ar
    64    47    46    1
    65    42    43    1
    66   119   117   ar
    67    31    30    2
    68    31    32    1
    69   118   116   ar
    70    45    44    2
    71    30    29    1
    72    46    43    1
    73    43    44    1
    74    44    54   am
    75   117   115   ar
    76    61    59   ar
    77   116   115   ar
    78    57    56    2
    79    26    25    2
    80    58    59    1
    81    58    55    1
    82    22    20    1
    83    27    28    1
    84    27    24    1
    85    59    60   ar
    86   115   114    1
    87    29    28    1
    88    25    24    1
    89    21    20    1
    90    56    55    1
    91    54    55    1
    92    20    19    2
    93    24    23    1
    94   110   111    1
    95   111   114    1
    96   111   112    1
    97    19    18    1
    98   129   127   ar
    99    18    17    1
   100   112   113    2
   101   127   128   ar
   102   127   126    1
   103    17    16    1
   104     9    11   ar
   105     9     7   ar
   106    11    10   ar
   107   126   123    1
   108    16    13    1
   109     7     6   ar
   110    10     8   ar
   111    13    14    1
   112    13    12    1
   113   123   122    1
   114   123   124    1
   115     6     8   ar
   116     6     5    1
   117   125   124    2
   118    14    15    2
   119     3     4    2
   120     3     2    1
   121     5     2    1
   122     2     1    1
