@<TRIPOS>MOLECULE
tmp/5ayeC00.pdb
 107 101 0 0 0
SMALL
GASTEIGER

@<TRIPOS>ATOM
      1  N          9.8700  -17.2330  -43.8470 N.3    67  ARG67      -0.1245
      2  CA         8.8920  -18.2370  -43.5850 C.3    67  ARG67       0.1563
      3  C          7.5210  -17.7540  -43.9570 C.2    67  ARG67       0.2260
      4  O          7.0350  -16.7640  -43.4600 O.2    67  ARG67      -0.2867
      5  CB         8.9310  -18.7470  -42.1640 C.3    67  ARG67       0.0307
      6  CG         7.7930  -19.6550  -41.8290 C.3    67  ARG67       0.0489
      7  CD         7.6140  -19.9720  -40.3710 C.3    67  ARG67       0.2205
      8  NE         6.5000  -20.8440  -40.1180 N.pl3  67  ARG67      -0.0865
      9  CZ         6.3200  -21.5740  -39.0380 C.cat  67  ARG67       0.5346
     10  NH1        7.1750  -21.5450  -38.0570 N.pl3  67  ARG67       0.1354
     11  NH2        5.2630  -22.3120  -38.9370 N.pl3  67  ARG67       0.1354
     12  N          3.9010  -24.9620  -44.2940 N.3    75  MET75      -0.1245
     13  CA         5.0190  -24.1310  -43.8630 C.3    75  MET75       0.1570
     14  C          6.1080  -24.1450  -44.9340 C.2    75  MET75       0.2261
     15  O          6.6090  -25.2130  -45.2860 O.2    75  MET75      -0.2867
     16  CB         5.5740  -24.6290  -42.5240 C.3    75  MET75       0.0387
     17  CG         4.5300  -24.7890  -41.4300 C.3    75  MET75       0.0595
     18  SD         5.2590  -25.4560  -39.9060 S.3    75  MET75      -0.1393
     19  CE         5.5510  -27.1580  -40.4340 C.3    75  MET75       0.0692
     20  N         10.5210  -24.2600  -42.0290 N.3   114  TYR114     -0.1227
     21  CA        10.2460  -23.0270  -41.3180 C.3   114  TYR114      0.1736
     22  C         11.4420  -22.4610  -40.5790 C.2   114  TYR114      0.2595
     23  O         12.3840  -23.1070  -40.4530 O.2   114  TYR114     -0.2718
     24  CB         9.0590  -23.1800  -40.3840 C.3   114  TYR114      0.0548
     25  CG         9.1150  -24.2440  -39.3080 C.ar  114  TYR114     -0.0200
     26  CD1        8.8190  -25.5370  -39.5790 C.ar  114  TYR114     -0.0009
     27  CD2        9.4090  -23.9190  -38.0140 C.ar  114  TYR114     -0.0009
     28  CE1        8.8320  -26.4800  -38.6090 C.ar  114  TYR114      0.0417
     29  CE2        9.4140  -24.8640  -37.0250 C.ar  114  TYR114      0.0417
     30  CZ         9.1020  -26.1490  -37.3360 C.ar  114  TYR114      0.1957
     31  OH         9.1170  -27.0870  -36.3850 O.3   114  TYR114     -0.2866
     32  N         11.3380  -21.2210  -40.1350 N.am  115  ASP115     -0.1974
     33  CA        12.3020  -20.5160  -39.2860 C.3   115  ASP115      0.1709
     34  C         13.7450  -20.5930  -39.7890 C.2   115  ASP115      0.2293
     35  O         14.6260  -21.1390  -39.1090 O.2   115  ASP115     -0.2864
     36  CB        12.2140  -21.0410  -37.8600 C.3   115  ASP115      0.1436
     37  CG        10.8280  -20.8110  -37.2440 C.2   115  ASP115      0.3671
     38  OD1        9.9140  -20.3660  -37.9770 O.co2 115  ASP115     -0.2456
     39  OD2       10.6500  -21.0990  -36.0370 O.co2 115  ASP115     -0.2456
     40  N         15.3430  -28.5710  -33.7920 N.3   162  ARG162     -0.1245
     41  CA        14.8830  -27.3010  -34.2550 C.3   162  ARG162      0.1563
     42  C         15.8230  -26.1740  -33.8180 C.2   162  ARG162      0.2260
     43  O         16.6520  -26.3840  -32.9680 O.2   162  ARG162     -0.2867
     44  CB        13.4800  -27.0680  -33.7190 C.3   162  ARG162      0.0307
     45  CG        12.7420  -25.9050  -34.2990 C.3   162  ARG162      0.0489
     46  CD        11.2300  -26.0320  -34.2080 C.3   162  ARG162      0.2205
     47  NE        10.8500  -26.4200  -32.8850 N.pl3 162  ARG162     -0.0865
     48  CZ        10.1990  -27.5120  -32.5800 C.cat 162  ARG162      0.5346
     49  NH1        9.8130  -28.3500  -33.5030 N.pl3 162  ARG162      0.1354
     50  NH2        9.9440  -27.7500  -31.3470 N.pl3 162  ARG162      0.1354
     51  N          6.3020  -32.9450  -31.1420 N.3   185  GLY185     -0.1210
     52  CA         5.2250  -31.9950  -31.0180 C.3   185  GLY185      0.1956
     53  C          5.5750  -30.6050  -30.5300 C.2   185  GLY185      0.2612
     54  O          6.5550  -30.0300  -30.9510 O.2   185  GLY185     -0.2717
     55  N          4.7180  -30.0610  -29.6850 N.am  186  HIS186     -0.1961
     56  CA         4.9570  -28.7400  -29.1160 C.3   186  HIS186      0.1787
     57  C          5.7780  -28.9570  -27.8660 C.2   186  HIS186      0.2620
     58  O          5.2750  -29.0190  -26.7720 O.2   186  HIS186     -0.2715
     59  CB         3.6860  -27.9430  -28.8330 C.3   186  HIS186      0.0785
     60  CG         2.7850  -27.7890  -30.0090 C.ar  186  HIS186      0.0821
     61  ND1        3.0510  -26.9260  -31.0390 N.ar  186  HIS186     -0.2267
     62  CD2        1.6200  -28.3880  -30.3160 C.ar  186  HIS186      0.1154
     63  CE1        2.0890  -26.9980  -31.9240 C.ar  186  HIS186      0.1986
     64  NE2        1.2180  -27.8800  -31.5140 N.ar  186  HIS186     -0.2212
     65  N          7.0590  -29.0840  -28.1030 N.am  187  THR187     -0.1951
     66  CA         8.0520  -29.5260  -27.1330 C.3   187  THR187      0.1897
     67  C          8.0050  -28.7860  -25.7940 C.2   187  THR187      0.2313
     68  O          8.1340  -27.5670  -25.7570 O.2   187  THR187     -0.2863
     69  CB         9.4600  -29.3850  -27.7610 C.3   187  THR187      0.1794
     70  OG1        9.4240  -29.9180  -29.0960 O.3   187  THR187     -0.2208
     71  CG2       10.5010  -30.1220  -26.9510 C.3   187  THR187      0.0378
     72  N         11.5430  -23.6030  -21.7890 N.3   220  LYS220     -0.1245
     73  CA        12.5240  -23.9950  -22.7990 C.3   220  LYS220      0.1561
     74  C         13.2030  -22.7940  -23.4570 C.2   220  LYS220      0.2260
     75  O         12.6830  -21.6700  -23.4430 O.2   220  LYS220     -0.2867
     76  CB        11.8640  -24.8650  -23.8780 C.3   220  LYS220      0.0271
     77  CG        10.6300  -24.2360  -24.5280 C.3   220  LYS220      0.0035
     78  CD        10.1710  -25.0320  -25.7550 C.3   220  LYS220      0.0206
     79  CE         8.9190  -24.4250  -26.3900 C.3   220  LYS220      0.1093
     80  NZ         8.2760  -25.4090  -27.2920 N.3   220  LYS220     -0.1314
     81  N          6.5050  -16.5810  -25.4720 N.3   250  TYR250     -0.1241
     82  CA         7.8530  -16.4890  -26.0550 C.3   250  TYR250      0.1605
     83  C          8.4070  -15.0730  -25.9760 C.2   250  TYR250      0.2264
     84  O          7.8830  -14.1710  -26.6150 O.2   250  TYR250     -0.2867
     85  CB         7.8450  -16.9120  -27.5310 C.3   250  TYR250      0.0534
     86  CG         7.7380  -18.3910  -27.8120 C.ar  250  TYR250     -0.0201
     87  CD1        6.5490  -19.0810  -27.6000 C.ar  250  TYR250     -0.0009
     88  CD2        8.8250  -19.0970  -28.3260 C.ar  250  TYR250     -0.0009
     89  CE1        6.4470  -20.4430  -27.8920 C.ar  250  TYR250      0.0417
     90  CE2        8.7370  -20.4510  -28.6080 C.ar  250  TYR250      0.0417
     91  CZ         7.5470  -21.1200  -28.3840 C.ar  250  TYR250      0.1957
     92  OH         7.4560  -22.4630  -28.6650 O.3   250  TYR250     -0.2866
     93  N         -0.7550  -17.5750  -33.1600 N.3   286  VAL286     -0.1245
     94  CA        -0.2630  -18.0980  -31.8960 C.3   286  VAL286      0.1561
     95  C         -0.0600  -16.9040  -30.9880 C.2   286  VAL286      0.2260
     96  O          0.7630  -16.0480  -31.2900 O.2   286  VAL286     -0.2867
     97  CB         1.0610  -18.8730  -32.0550 C.3   286  VAL286      0.0252
     98  CG1        1.5670  -19.3510  -30.7040 C.3   286  VAL286      0.0019
     99  CG2        0.8810  -20.0440  -33.0170 C.3   286  VAL286      0.0019
    100  N          3.3520  -15.4370  -34.4330 N.3   312  ASP312     -0.1239
    101  CA         3.4020  -16.3220  -35.6030 C.3   312  ASP312      0.1674
    102  C          2.5160  -15.7990  -36.7400 C.2   312  ASP312      0.2266
    103  O          1.9100  -16.5870  -37.4730 O.2   312  ASP312     -0.2867
    104  CB         2.9940  -17.7560  -35.2180 C.3   312  ASP312      0.1410
    105  CG         4.1040  -18.5050  -34.4850 C.2   312  ASP312      0.3668
    106  OD1        5.0870  -17.8640  -34.0610 O.co2 312  ASP312     -0.2456
    107  OD2        4.0120  -19.7370  -34.3450 O.co2 312  ASP312     -0.2456
@<TRIPOS>BOND
     1    15    14    2
     2    14    13    1
     3    12    13    1
     4     3     2    1
     5     3     4    2
     6    13    16    1
     7     1     2    1
     8     2     5    1
     9    16    17    1
    10     5     6    1
    11    20    21    1
    12     6     7    1
    13    17    18    1
    14    21    22    1
    15    21    24    1
    16    22    23    2
    17    22    32   am
    18    19    18    1
    19    24    25    1
    20     7     8    1
    21    32    33    1
    22     8     9    2
    23    34    33    1
    24    34    35    2
    25    26    25   ar
    26    26    28   ar
    27    25    27   ar
    28    33    36    1
    29     9    11    1
    30     9    10    1
    31    28    30   ar
    32    27    29   ar
    33    38    37   ar
    34    36    37    1
    35   103   102    2
    36    30    29   ar
    37    30    31    1
    38    37    39   ar
    39   102   101    1
    40   101   104    1
    41   101   100    1
    42   104   105    1
    43   105   107   ar
    44   105   106   ar
    45    45    46    1
    46    45    44    1
    47    41    42    1
    48    41    40    1
    49    41    44    1
    50    46    47    1
    51    42    43    2
    52    49    48    1
    53    93    94    1
    54    99    97    1
    55    47    48    2
    56    48    50    1
    57    97    94    1
    58    97    98    1
    59    63    64   ar
    60    63    61   ar
    61    94    95    1
    62    64    62   ar
    63    96    95    2
    64    51    52    1
    65    61    60   ar
    66    52    53    1
    67    54    53    2
    68    53    55   am
    69    62    60   ar
    70    60    59    1
    71    55    56    1
    72    56    59    1
    73    56    57    1
    74    70    69    1
    75    92    91    1
    76    90    91   ar
    77    90    88   ar
    78    91    89   ar
    79    88    86   ar
    80    65    57   am
    81    65    66    1
    82    89    87   ar
    83    57    58    2
    84    86    87   ar
    85    86    85    1
    86    69    66    1
    87    69    71    1
    88    85    82    1
    89    80    79    1
    90    66    67    1
    91    84    83    2
    92    79    78    1
    93    82    83    1
    94    82    81    1
    95    67    68    2
    96    78    77    1
    97    77    76    1
    98    76    73    1
    99    74    75    2
   100    74    73    1
   101    73    72    1
