@<TRIPOS>MOLECULE
tmp/5ayeC01.pdb
 143 136 0 0 0
SMALL
GASTEIGER

@<TRIPOS>ATOM
      1  N          9.1150  -15.1060  -38.3770 N.3    49  ASN49      -0.1240
      2  CA        10.3360  -15.8590  -38.0660 C.3    49  ASN49       0.1653
      3  C         11.2890  -15.9860  -39.2570 C.2    49  ASN49       0.2266
      4  O         11.5840  -17.0970  -39.7030 O.2    49  ASN49      -0.2867
      5  CB         9.9640  -17.2540  -37.5450 C.3    49  ASN49       0.1155
      6  CG         9.2240  -17.1960  -36.2110 C.2    49  ASN49       0.2627
      7  OD1        8.9270  -16.1120  -35.7100 O.2    49  ASN49      -0.2716
      8  ND2        8.9210  -18.3590  -35.6350 N.am   49  ASN49      -0.0877
      9  N          9.8700  -17.2330  -43.8470 N.3    67  ARG67      -0.1245
     10  CA         8.8920  -18.2370  -43.5850 C.3    67  ARG67       0.1563
     11  C          7.5210  -17.7540  -43.9570 C.2    67  ARG67       0.2260
     12  O          7.0350  -16.7640  -43.4600 O.2    67  ARG67      -0.2867
     13  CB         8.9310  -18.7470  -42.1640 C.3    67  ARG67       0.0307
     14  CG         7.7930  -19.6550  -41.8290 C.3    67  ARG67       0.0489
     15  CD         7.6140  -19.9720  -40.3710 C.3    67  ARG67       0.2205
     16  NE         6.5000  -20.8440  -40.1180 N.pl3  67  ARG67      -0.0865
     17  CZ         6.3200  -21.5740  -39.0380 C.cat  67  ARG67       0.5346
     18  NH1        7.1750  -21.5450  -38.0570 N.pl3  67  ARG67       0.1354
     19  NH2        5.2630  -22.3120  -38.9370 N.pl3  67  ARG67       0.1354
     20  N         10.5210  -24.2600  -42.0290 N.3   114  TYR114     -0.1227
     21  CA        10.2460  -23.0270  -41.3180 C.3   114  TYR114      0.1736
     22  C         11.4420  -22.4610  -40.5790 C.2   114  TYR114      0.2595
     23  O         12.3840  -23.1070  -40.4530 O.2   114  TYR114     -0.2718
     24  CB         9.0590  -23.1800  -40.3840 C.3   114  TYR114      0.0548
     25  CG         9.1150  -24.2440  -39.3080 C.ar  114  TYR114     -0.0200
     26  CD1        8.8190  -25.5370  -39.5790 C.ar  114  TYR114     -0.0009
     27  CD2        9.4090  -23.9190  -38.0140 C.ar  114  TYR114     -0.0009
     28  CE1        8.8320  -26.4800  -38.6090 C.ar  114  TYR114      0.0417
     29  CE2        9.4140  -24.8640  -37.0250 C.ar  114  TYR114      0.0417
     30  CZ         9.1020  -26.1490  -37.3360 C.ar  114  TYR114      0.1957
     31  OH         9.1170  -27.0870  -36.3850 O.3   114  TYR114     -0.2866
     32  N         11.3380  -21.2210  -40.1350 N.am  115  ASP115     -0.1974
     33  CA        12.3020  -20.5160  -39.2860 C.3   115  ASP115      0.1709
     34  C         13.7450  -20.5930  -39.7890 C.2   115  ASP115      0.2293
     35  O         14.6260  -21.1390  -39.1090 O.2   115  ASP115     -0.2864
     36  CB        12.2140  -21.0410  -37.8600 C.3   115  ASP115      0.1436
     37  CG        10.8280  -20.8110  -37.2440 C.2   115  ASP115      0.3671
     38  OD1        9.9140  -20.3660  -37.9770 O.co2 115  ASP115     -0.2456
     39  OD2       10.6500  -21.0990  -36.0370 O.co2 115  ASP115     -0.2456
     40  N         15.3430  -28.5710  -33.7920 N.3   162  ARG162     -0.1231
     41  CA        14.8830  -27.3010  -34.2550 C.3   162  ARG162      0.1694
     42  C         15.8230  -26.1740  -33.8180 C.2   162  ARG162      0.2592
     43  O         16.6520  -26.3840  -32.9680 O.2   162  ARG162     -0.2718
     44  CB        13.4800  -27.0680  -33.7190 C.3   162  ARG162      0.0321
     45  CG        12.7420  -25.9050  -34.2990 C.3   162  ARG162      0.0489
     46  CD        11.2300  -26.0320  -34.2080 C.3   162  ARG162      0.2205
     47  NE        10.8500  -26.4200  -32.8850 N.pl3 162  ARG162     -0.0865
     48  CZ        10.1990  -27.5120  -32.5800 C.cat 162  ARG162      0.5346
     49  NH1        9.8130  -28.3500  -33.5030 N.pl3 162  ARG162      0.1354
     50  NH2        9.9440  -27.7500  -31.3470 N.pl3 162  ARG162      0.1354
     51  N         15.6540  -24.9820  -34.3910 N.am  163  ASN163     -0.1974
     52  CA        16.4770  -23.8200  -34.0400 C.3   163  ASN163      0.1688
     53  C         17.9600  -24.0560  -34.3310 C.2   163  ASN163      0.2292
     54  O         18.8210  -23.8050  -33.4840 O.2   163  ASN163     -0.2864
     55  CB        16.2840  -23.4300  -32.5590 C.3   163  ASN163      0.1181
     56  CG        14.8150  -23.1720  -32.2000 C.2   163  ASN163      0.2629
     57  OD1       14.2040  -22.2200  -32.6820 O.2   163  ASN163     -0.2716
     58  ND2       14.2630  -24.0010  -31.3270 N.am  163  ASN163     -0.0877
     59  N          4.7180  -30.0610  -29.6850 N.3   186  HIS186     -0.1241
     60  CA         4.9570  -28.7400  -29.1160 C.3   186  HIS186      0.1621
     61  C          5.7780  -28.9570  -27.8660 C.2   186  HIS186      0.2264
     62  O          5.2750  -29.0190  -26.7720 O.2   186  HIS186     -0.2867
     63  CB         3.6860  -27.9430  -28.8330 C.3   186  HIS186      0.0745
     64  CG         2.7850  -27.7890  -30.0090 C.ar  186  HIS186      0.0817
     65  ND1        3.0510  -26.9260  -31.0390 N.ar  186  HIS186     -0.2268
     66  CD2        1.6200  -28.3880  -30.3160 C.ar  186  HIS186      0.1154
     67  CE1        2.0890  -26.9980  -31.9240 C.ar  186  HIS186      0.1986
     68  NE2        1.2180  -27.8800  -31.5140 N.ar  186  HIS186     -0.2212
     69  N         11.5430  -23.6030  -21.7890 N.3   220  LYS220     -0.1245
     70  CA        12.5240  -23.9950  -22.7990 C.3   220  LYS220      0.1561
     71  C         13.2030  -22.7940  -23.4570 C.2   220  LYS220      0.2260
     72  O         12.6830  -21.6700  -23.4430 O.2   220  LYS220     -0.2867
     73  CB        11.8640  -24.8650  -23.8780 C.3   220  LYS220      0.0271
     74  CG        10.6300  -24.2360  -24.5280 C.3   220  LYS220      0.0035
     75  CD        10.1710  -25.0320  -25.7550 C.3   220  LYS220      0.0206
     76  CE         8.9190  -24.4250  -26.3900 C.3   220  LYS220      0.1093
     77  NZ         8.2760  -25.4090  -27.2920 N.3   220  LYS220     -0.1314
     78  N         15.6750  -17.0250  -27.6700 N.3   239  HIS239     -0.1241
     79  CA        14.3220  -16.9430  -27.1550 C.3   239  HIS239      0.1621
     80  C         14.1600  -17.8410  -25.9330 C.2   239  HIS239      0.2264
     81  O         14.9230  -18.7790  -25.7410 O.2   239  HIS239     -0.2867
     82  CB        13.2950  -17.3030  -28.2380 C.3   239  HIS239      0.0745
     83  CG        13.2520  -18.7570  -28.6060 C.ar  239  HIS239      0.0817
     84  ND1       13.9800  -19.2830  -29.6490 N.ar  239  HIS239     -0.2268
     85  CD2       12.5130  -19.7800  -28.1100 C.ar  239  HIS239      0.1154
     86  CE1       13.7200  -20.5760  -29.7610 C.ar  239  HIS239      0.1986
     87  NE2       12.8280  -20.9000  -28.8480 N.ar  239  HIS239     -0.2212
     88  N          1.9940  -20.9550  -24.0760 N.3   248  PHE248     -0.1241
     89  CA         3.3770  -20.5040  -24.0030 C.3   248  PHE248      0.1605
     90  C          3.4750  -18.9940  -24.2020 C.2   248  PHE248      0.2264
     91  O          2.6640  -18.3900  -24.9020 O.2   248  PHE248     -0.2867
     92  CB         4.2460  -21.2140  -25.0570 C.3   248  PHE248      0.0534
     93  CG         4.5130  -22.6780  -24.7740 C.ar  248  PHE248     -0.0203
     94  CD1        4.2790  -23.2240  -23.5130 C.ar  248  PHE248     -0.0042
     95  CD2        5.0230  -23.5040  -25.7750 C.ar  248  PHE248     -0.0042
     96  CE1        4.5340  -24.5650  -23.2610 C.ar  248  PHE248     -0.0003
     97  CE2        5.2770  -24.8540  -25.5300 C.ar  248  PHE248     -0.0003
     98  CZ         5.0310  -25.3840  -24.2740 C.ar  248  PHE248     -0.0000
     99  N          6.5050  -16.5810  -25.4720 N.3   250  TYR250     -0.1241
    100  CA         7.8530  -16.4890  -26.0550 C.3   250  TYR250      0.1605
    101  C          8.4070  -15.0730  -25.9760 C.2   250  TYR250      0.2264
    102  O          7.8830  -14.1710  -26.6150 O.2   250  TYR250     -0.2867
    103  CB         7.8450  -16.9120  -27.5310 C.3   250  TYR250      0.0534
    104  CG         7.7380  -18.3910  -27.8120 C.ar  250  TYR250     -0.0201
    105  CD1        6.5490  -19.0810  -27.6000 C.ar  250  TYR250     -0.0009
    106  CD2        8.8250  -19.0970  -28.3260 C.ar  250  TYR250     -0.0009
    107  CE1        6.4470  -20.4430  -27.8920 C.ar  250  TYR250      0.0417
    108  CE2        8.7370  -20.4510  -28.6080 C.ar  250  TYR250      0.0417
    109  CZ         7.5470  -21.1200  -28.3840 C.ar  250  TYR250      0.1957
    110  OH         7.4560  -22.4630  -28.6650 O.3   250  TYR250     -0.2866
    111  N         -0.7550  -17.5750  -33.1600 N.3   286  VAL286     -0.1245
    112  CA        -0.2630  -18.0980  -31.8960 C.3   286  VAL286      0.1561
    113  C         -0.0600  -16.9040  -30.9880 C.2   286  VAL286      0.2260
    114  O          0.7630  -16.0480  -31.2900 O.2   286  VAL286     -0.2867
    115  CB         1.0610  -18.8730  -32.0550 C.3   286  VAL286      0.0252
    116  CG1        1.5670  -19.3510  -30.7040 C.3   286  VAL286      0.0019
    117  CG2        0.8810  -20.0440  -33.0170 C.3   286  VAL286      0.0019
    118  N          3.8080  -14.2280  -28.8150 N.3   289  VAL289     -0.1245
    119  CA         5.0690  -14.6650  -29.3780 C.3   289  VAL289      0.1561
    120  C          5.8770  -13.4770  -29.9170 C.2   289  VAL289      0.2260
    121  O          5.3780  -12.7010  -30.7300 O.2   289  VAL289     -0.2867
    122  CB         4.8460  -15.6950  -30.5160 C.3   289  VAL289      0.0252
    123  CG1        6.1580  -16.0430  -31.1760 C.3   289  VAL289      0.0019
    124  CG2        4.1960  -16.9550  -29.9660 C.3   289  VAL289      0.0019
    125  N          9.6330  -13.5480  -31.5800 N.3   291  PHE291     -0.1241
    126  CA        10.5720  -14.6110  -31.9410 C.3   291  PHE291      0.1605
    127  C         11.6130  -14.1220  -32.9660 C.2   291  PHE291      0.2264
    128  O         11.3130  -14.0000  -34.1480 O.2   291  PHE291     -0.2867
    129  CB         9.7780  -15.8080  -32.4890 C.3   291  PHE291      0.0534
    130  CG        10.5590  -17.1010  -32.5570 C.ar  291  PHE291     -0.0203
    131  CD1       11.3700  -17.3850  -33.6470 C.ar  291  PHE291     -0.0042
    132  CD2       10.4660  -18.0420  -31.5350 C.ar  291  PHE291     -0.0042
    133  CE1       12.0800  -18.5890  -33.7160 C.ar  291  PHE291     -0.0003
    134  CE2       11.1770  -19.2410  -31.5920 C.ar  291  PHE291     -0.0003
    135  CZ        11.9820  -19.5100  -32.6850 C.ar  291  PHE291     -0.0000
    136  N          3.3520  -15.4370  -34.4330 N.3   312  ASP312     -0.1239
    137  CA         3.4020  -16.3220  -35.6030 C.3   312  ASP312      0.1674
    138  C          2.5160  -15.7990  -36.7400 C.2   312  ASP312      0.2266
    139  O          1.9100  -16.5870  -37.4730 O.2   312  ASP312     -0.2867
    140  CB         2.9940  -17.7560  -35.2180 C.3   312  ASP312      0.1410
    141  CG         4.1040  -18.5050  -34.4850 C.2   312  ASP312      0.3668
    142  OD1        5.0870  -17.8640  -34.0610 O.co2 312  ASP312     -0.2456
    143  OD2        4.0120  -19.7370  -34.3450 O.co2 312  ASP312     -0.2456
@<TRIPOS>BOND
     1    11    10    1
     2    11    12    2
     3     9    10    1
     4    10    13    1
     5    13    14    1
     6    20    21    1
     7    14    15    1
     8    21    22    1
     9    21    24    1
    10    22    23    2
    11    22    32   am
    12    24    25    1
    13    15    16    1
    14    32    33    1
    15    16    17    2
    16    34    33    1
    17    34    35    2
    18     4     3    2
    19    26    25   ar
    20    26    28   ar
    21    25    27   ar
    22    33    36    1
    23     3     2    1
    24    17    19    1
    25    17    18    1
    26    28    30   ar
    27     1     2    1
    28     2     5    1
    29    27    29   ar
    30    38    37   ar
    31    36    37    1
    32     5     6    1
    33   139   138    2
    34    30    29   ar
    35    30    31    1
    36    37    39   ar
    37   138   137    1
    38     6     7    2
    39     6     8   am
    40   137   140    1
    41   137   136    1
    42   140   141    1
    43   141   143   ar
    44   141   142   ar
    45    51    52    1
    46    51    42   am
    47    53    52    1
    48    53    54    2
    49    45    46    1
    50    45    44    1
    51    41    42    1
    52    41    40    1
    53    41    44    1
    54    46    47    1
    55   128   127    2
    56    52    55    1
    57    42    43    2
    58   133   131   ar
    59   133   135   ar
    60   131   130   ar
    61    49    48    1
    62   111   112    1
    63   117   115    1
    64   127   126    1
    65    47    48    2
    66   135   134   ar
    67    57    56    2
    68    48    50    1
    69    55    56    1
    70   130   129    1
    71   130   132   ar
    72   129   126    1
    73    56    58   am
    74   115   112    1
    75   115   116    1
    76   126   125    1
    77    67    68   ar
    78    67    65   ar
    79   112   113    1
    80   134   132   ar
    81    68    66   ar
    82   114   113    2
    83   123   122    1
    84    65    64   ar
    85   121   120    2
    86   122   124    1
    87   122   119    1
    88    66    64   ar
    89    64    63    1
    90   120   119    1
    91    86    84   ar
    92    86    87   ar
    93    59    60    1
    94    84    83   ar
    95   119   118    1
    96    60    63    1
    97    60    61    1
    98    87    85   ar
    99   110   109    1
   100   108   109   ar
   101   108   106   ar
   102    83    82    1
   103    83    85   ar
   104   109   107   ar
   105   106   104   ar
   106    82    79    1
   107   107   105   ar
   108    61    62    2
   109   104   105   ar
   110   104   103    1
   111    78    79    1
   112   103   100    1
   113    77    76    1
   114    79    80    1
   115   102   101    2
   116    76    75    1
   117   100   101    1
   118   100    99    1
   119    80    81    2
   120    95    97   ar
   121    95    93   ar
   122    75    74    1
   123    97    98   ar
   124    92    93    1
   125    92    89    1
   126    91    90    2
   127    93    94   ar
   128    74    73    1
   129    98    96   ar
   130    90    89    1
   131    88    89    1
   132    73    70    1
   133    94    96   ar
   134    71    72    2
   135    71    70    1
   136    70    69    1
