@<TRIPOS>MOLECULE
tmp/5aygA00.pdb
 216 209 0 0 0
SMALL
GASTEIGER

@<TRIPOS>ATOM
      1  N          9.6110  -29.0440  -30.0700 N.3    23  GLN23      -0.1231
      2  CA        10.0090  -27.9150  -29.2260 C.3    23  GLN23       0.1698
      3  C          9.8030  -26.5590  -29.8850 C.2    23  GLN23       0.2592
      4  O          9.0860  -25.7180  -29.3510 O.2    23  GLN23      -0.2718
      5  CB        11.4780  -28.0540  -28.8170 C.3    23  GLN23       0.0381
      6  CG        11.9490  -27.0080  -27.8230 C.3    23  GLN23       0.0905
      7  CD        13.3500  -27.2780  -27.3160 C.2    23  GLN23       0.2608
      8  OE1       13.9530  -28.3010  -27.6330 O.2    23  GLN23      -0.2717
      9  NE2       13.8750  -26.3580  -26.5190 N.am   23  GLN23      -0.0878
     10  N         10.4120  -26.3430  -31.0420 N.am   24  LEU24      -0.1980
     11  CA        10.1470  -25.1360  -31.8030 C.3    24  LEU24       0.1596
     12  C          9.4350  -25.5500  -33.0740 C.2    24  LEU24       0.2287
     13  O          9.9580  -26.3430  -33.8510 O.2    24  LEU24      -0.2864
     14  CB        11.4470  -24.4080  -32.1380 C.3    24  LEU24       0.0297
     15  CG        12.3030  -23.9810  -30.9450 C.3    24  LEU24       0.0022
     16  CD1       13.5290  -23.2140  -31.4070 C.3    24  LEU24       0.0001
     17  CD2       11.4890  -23.1480  -29.9710 C.3    24  LEU24       0.0001
     18  N         27.8340  -18.9760  -22.1080 N.3    54  TRP54      -0.1241
     19  CA        27.9180  -20.4030  -21.8330 C.3    54  TRP54       0.1605
     20  C         26.7880  -20.9310  -20.9580 C.2    54  TRP54       0.2264
     21  O         26.2970  -22.0180  -21.2580 O.2    54  TRP54      -0.2867
     22  CB        29.2840  -20.8920  -21.3200 C.3    54  TRP54       0.0550
     23  CG        30.3250  -21.1390  -22.3900 C.ar   54  TRP54       0.0003
     24  CD1       31.5790  -20.5760  -22.4650 C.ar   54  TRP54       0.0946
     25  CD2       30.2210  -22.0350  -23.5130 C.ar   54  TRP54       0.0152
     26  NE1       32.2440  -21.0460  -23.5740 N.ar   54  TRP54      -0.2442
     27  CE2       31.4410  -21.9360  -24.2400 C.ar   54  TRP54       0.0810
     28  CE3       29.2160  -22.9080  -23.9800 C.ar   54  TRP54       0.0012
     29  CZ2       31.6870  -22.6890  -25.4090 C.ar   54  TRP54       0.0191
     30  CZ3       29.4470  -23.6440  -25.1640 C.ar   54  TRP54       0.0001
     31  CH2       30.6880  -23.5360  -25.8530 C.ar   54  TRP54       0.0015
     32  N         23.7640  -20.7420  -23.3490 N.3    57  CYS57      -0.1235
     33  CA        23.8550  -21.7320  -24.4070 C.3    57  CYS57       0.1677
     34  C         23.6480  -23.1210  -23.8250 C.2    57  CYS57       0.2270
     35  O         22.9200  -23.9180  -24.4210 O.2    57  CYS57      -0.2867
     36  CB        25.1760  -21.6030  -25.1750 C.3    57  CYS57       0.0956
     37  SG        25.2250  -20.1300  -26.2220 S.3    57  CYS57      -0.0801
     38  N         19.8750  -23.7770  -23.1210 N.3    60  HIS60      -0.1226
     39  CA        19.1920  -24.1250  -24.3540 C.3    60  HIS60       0.1752
     40  C         19.5430  -25.5290  -24.8070 C.2    60  HIS60       0.2595
     41  O         18.6910  -26.2530  -25.3110 O.2    60  HIS60      -0.2718
     42  CB        19.5130  -23.1140  -25.4460 C.3    60  HIS60       0.0759
     43  CG        19.1400  -21.7130  -25.0890 C.ar   60  HIS60       0.0818
     44  ND1       17.9400  -21.3950  -24.4990 N.ar   60  HIS60      -0.2268
     45  CD2       19.8100  -20.5490  -25.2310 C.ar   60  HIS60       0.1154
     46  CE1       17.8850  -20.0930  -24.2950 C.ar   60  HIS60       0.1986
     47  NE2       19.0080  -19.5570  -24.7300 N.ar   60  HIS60      -0.2212
     48  N         20.8070  -25.8900  -24.6380 N.am   61  LEU61      -0.1980
     49  CA        21.3140  -27.2130  -24.9690 C.3    61  LEU61       0.1596
     50  C         20.6990  -28.3350  -24.1400 C.2    61  LEU61       0.2287
     51  O         20.3670  -29.3860  -24.6660 O.2    61  LEU61      -0.2864
     52  CB        22.8200  -27.2230  -24.7760 C.3    61  LEU61       0.0297
     53  CG        23.6480  -27.4590  -26.0230 C.3    61  LEU61       0.0022
     54  CD1       23.4150  -28.8750  -26.5080 C.3    61  LEU61       0.0001
     55  CD2       23.2560  -26.4570  -27.0860 C.3    61  LEU61       0.0001
     56  N         17.0170  -28.8180  -25.0650 N.3    64  ALA64      -0.1245
     57  CA        16.8770  -29.4670  -26.3610 C.3    64  ALA64       0.1562
     58  C         17.1870  -30.9560  -26.2720 C.2    64  ALA64       0.2260
     59  O         16.4900  -31.7240  -26.9200 O.2    64  ALA64      -0.2867
     60  CB        17.7060  -28.7790  -27.4540 C.3    64  ALA64       0.0290
     61  N         23.1150  -35.3450  -28.7090 N.3    95  MET95      -0.1245
     62  CA        23.7580  -34.1540  -29.2420 C.3    95  MET95       0.1570
     63  C         23.7850  -34.1260  -30.7650 C.2    95  MET95       0.2261
     64  O         23.5730  -33.0920  -31.3690 O.2    95  MET95      -0.2867
     65  CB        25.1780  -34.0440  -28.7050 C.3    95  MET95       0.0387
     66  CG        25.3730  -32.8800  -27.7580 C.3    95  MET95       0.0595
     67  SD        24.8720  -31.3210  -28.4970 S.3    95  MET95      -0.1393
     68  CE        26.2030  -31.0570  -29.6650 C.3    95  MET95       0.0692
     69  N         20.1970  -33.0110  -31.8170 N.3    98  VAL98      -0.1231
     70  CA        20.0750  -31.5670  -31.6050 C.3    98  VAL98       0.1692
     71  C         20.7000  -30.8030  -32.7700 C.2    98  VAL98       0.2591
     72  O         20.0950  -29.8650  -33.2610 O.2    98  VAL98      -0.2718
     73  CB        20.7140  -31.1230  -30.2570 C.3    98  VAL98       0.0266
     74  CG1       20.8890  -29.6090  -30.1480 C.3    98  VAL98       0.0020
     75  CG2       19.8900  -31.6010  -29.0740 C.3    98  VAL98       0.0020
     76  N         21.8940  -31.2070  -33.1910 N.am   99  LEU99      -0.1980
     77  CA        22.5900  -30.5580  -34.3050 C.3    99  LEU99       0.1596
     78  C         21.8330  -30.5750  -35.6500 C.2    99  LEU99       0.2287
     79  O         21.8430  -29.5820  -36.3790 O.2    99  LEU99      -0.2864
     80  CB        23.9940  -31.1440  -34.4640 C.3    99  LEU99       0.0297
     81  CG        25.1310  -30.1530  -34.8070 C.3    99  LEU99       0.0022
     82  CD1       25.3400  -29.1550  -33.6700 C.3    99  LEU99       0.0001
     83  CD2       26.3940  -30.9540  -35.1210 C.3    99  LEU99       0.0001
     84  N         18.6560  -28.3950  -35.0620 N.3   102  MET102     -0.1245
     85  CA        19.0960  -27.0040  -35.1080 C.3   102  MET102      0.1570
     86  C         19.0250  -26.3690  -36.5100 C.2   102  MET102      0.2261
     87  O         18.7450  -25.1870  -36.6330 O.2   102  MET102     -0.2867
     88  CB        20.5240  -26.8030  -34.4650 C.3   102  MET102      0.0387
     89  CG        20.5840  -26.8090  -32.9300 C.3   102  MET102      0.0595
     90  SD        22.2630  -27.0780  -32.3370 S.3   102  MET102     -0.1393
     91  CE        23.0440  -25.5950  -32.9630 C.3   102  MET102      0.0692
     92  N         16.3160  -23.9020  -37.4530 N.3   105  ALA105     -0.1231
     93  CA        16.4820  -22.5450  -36.9460 C.3   105  ALA105      0.1694
     94  C         17.5510  -21.7110  -37.6540 C.2   105  ALA105      0.2592
     95  O         17.8260  -20.6050  -37.1860 O.2   105  ALA105     -0.2718
     96  CB        16.6240  -22.5620  -35.4190 C.3   105  ALA105      0.0304
     97  N         18.1110  -22.1870  -38.7710 N.am  106  TYR106     -0.1976
     98  CA        19.0950  -21.4580  -39.5990 C.3   106  TYR106      0.1639
     99  C         18.4180  -20.8640  -40.8210 C.2   106  TYR106      0.2290
    100  O         17.7130  -21.5890  -41.5110 O.2   106  TYR106     -0.2864
    101  CB        20.1970  -22.4140  -40.0920 C.3   106  TYR106      0.0560
    102  CG        21.2630  -21.7400  -40.9380 C.ar  106  TYR106     -0.0198
    103  CD1       22.2810  -20.9610  -40.3680 C.ar  106  TYR106     -0.0009
    104  CD2       21.2400  -21.8620  -42.2850 C.ar  106  TYR106     -0.0009
    105  CE1       23.2520  -20.3460  -41.1660 C.ar  106  TYR106      0.0417
    106  CE2       22.2020  -21.2580  -43.0830 C.ar  106  TYR106      0.0417
    107  CZ        23.2030  -20.5030  -42.5040 C.ar  106  TYR106      0.1957
    108  OH        24.1270  -19.9330  -43.3290 O.3   106  TYR106     -0.2866
    109  N         20.6770  -17.2110  -37.3610 N.3   113  VAL113     -0.1231
    110  CA        20.1510  -18.2800  -36.5260 C.3   113  VAL113      0.1692
    111  C         19.1750  -17.6990  -35.5350 C.2   113  VAL113      0.2592
    112  O         19.3820  -16.5900  -35.0630 O.2   113  VAL113     -0.2718
    113  CB        21.2270  -19.1200  -35.7980 C.3   113  VAL113      0.0266
    114  CG1       22.0950  -19.8720  -36.8220 C.3   113  VAL113      0.0020
    115  CG2       22.0870  -18.2930  -34.8440 C.3   113  VAL113      0.0020
    116  N         18.1460  -18.4730  -35.2110 N.am  114  PHE114     -0.1962
    117  CA        17.2480  -18.1230  -34.1300 C.3   114  PHE114      0.1771
    118  C         17.9660  -18.3190  -32.8060 C.2   114  PHE114      0.2620
    119  O         18.5040  -19.3990  -32.5760 O.2   114  PHE114     -0.2715
    120  CB        16.0360  -19.0240  -34.1510 C.3   114  PHE114      0.0574
    121  CG        14.9860  -18.6520  -33.1600 C.ar  114  PHE114     -0.0200
    122  CD1       14.2380  -17.4920  -33.3530 C.ar  114  PHE114     -0.0042
    123  CD2       14.7520  -19.4500  -32.0400 C.ar  114  PHE114     -0.0042
    124  CE1       13.2620  -17.1450  -32.4310 C.ar  114  PHE114     -0.0003
    125  CE2       13.7740  -19.1080  -31.1180 C.ar  114  PHE114     -0.0003
    126  CZ        13.0230  -17.9580  -31.3320 C.ar  114  PHE114     -0.0000
    127  N         17.9300  -17.2980  -31.9520 N.am  115  PHE115     -0.1960
    128  CA        18.4970  -17.3780  -30.6040 C.3   115  PHE115      0.1771
    129  C         17.7440  -16.4160  -29.6930 C.2   115  PHE115      0.2619
    130  O         17.8270  -15.2010  -29.8970 O.2   115  PHE115     -0.2715
    131  CB        19.9860  -17.0200  -30.6950 C.3   115  PHE115      0.0574
    132  CG        20.7250  -17.1230  -29.3930 C.ar  115  PHE115     -0.0200
    133  CD1       21.0370  -18.3700  -28.8720 C.ar  115  PHE115     -0.0042
    134  CD2       21.0890  -15.9760  -28.6730 C.ar  115  PHE115     -0.0042
    135  CE1       21.6960  -18.4970  -27.6560 C.ar  115  PHE115     -0.0003
    136  CE2       21.7710  -16.0870  -27.4690 C.ar  115  PHE115     -0.0003
    137  CZ        22.0700  -17.3520  -26.9520 C.ar  115  PHE115     -0.0000
    138  N         17.0360  -16.9490  -28.6960 N.am  116  GLU116     -0.1977
    139  CA        16.4000  -16.1350  -27.6490 C.3   116  GLU116      0.1602
    140  C         15.4690  -15.0550  -28.2450 C.2   116  GLU116      0.2287
    141  O         15.5810  -13.8790  -27.9250 O.2   116  GLU116     -0.2864
    142  CB        17.4750  -15.5240  -26.7310 C.3   116  GLU116      0.0415
    143  CG        18.3690  -16.5810  -26.0930 C.3   116  GLU116      0.1163
    144  CD        19.1670  -16.0900  -24.8910 C.2   116  GLU116      0.3649
    145  OE1       19.3750  -14.8600  -24.7580 O.co2 116  GLU116     -0.2457
    146  OE2       19.5630  -16.9190  -24.0300 O.co2 116  GLU116     -0.2457
    147  N         27.7140  -14.4190  -30.9230 N.3   125  PHE125     -0.1241
    148  CA        28.3930  -15.3360  -30.0150 C.3   125  PHE125      0.1605
    149  C         29.8770  -15.0340  -29.8020 C.2   125  PHE125      0.2264
    150  O         30.6120  -15.8710  -29.2960 O.2   125  PHE125     -0.2867
    151  CB        28.1910  -16.7650  -30.5060 C.3   125  PHE125      0.0534
    152  CG        26.7740  -17.0600  -30.8900 C.ar  125  PHE125     -0.0203
    153  CD1       25.8440  -17.4100  -29.9290 C.ar  125  PHE125     -0.0042
    154  CD2       26.3640  -16.9510  -32.2050 C.ar  125  PHE125     -0.0042
    155  CE1       24.5340  -17.6640  -30.2750 C.ar  125  PHE125     -0.0003
    156  CE2       25.0560  -17.2050  -32.5580 C.ar  125  PHE125     -0.0003
    157  CZ        24.1400  -17.5620  -31.5920 C.ar  125  PHE125     -0.0000
    158  N         32.0270  -15.9220  -26.5600 N.3   128  LEU128     -0.1245
    159  CA        32.3860  -17.3040  -26.3200 C.3   128  LEU128      0.1561
    160  C         33.9090  -17.5230  -26.6420 C.2   128  LEU128      0.2260
    161  O         34.5810  -18.3120  -25.9850 O.2   128  LEU128     -0.2867
    162  CB        31.5370  -18.2640  -27.1570 C.3   128  LEU128      0.0270
    163  CG        30.0680  -18.4090  -26.7620 C.3   128  LEU128      0.0019
    164  CD1       29.3850  -19.4540  -27.6260 C.3   128  LEU128      0.0001
    165  CD2       29.9340  -18.7640  -25.2920 C.3   128  LEU128      0.0001
    166  N         34.1080  -23.2910  -33.8160 N.3   133  LEU133     -0.1231
    167  CA        32.9910  -24.1510  -33.3970 C.3   133  LEU133      0.1693
    168  C         31.7070  -23.5730  -33.9760 C.2   133  LEU133      0.2591
    169  O         31.0400  -24.2640  -34.7490 O.2   133  LEU133     -0.2718
    170  CB        32.8690  -24.2810  -31.8560 C.3   133  LEU133      0.0284
    171  CG        31.6550  -25.0000  -31.2320 C.3   133  LEU133      0.0019
    172  CD1       31.5870  -26.4760  -31.6130 C.3   133  LEU133      0.0001
    173  CD2       31.6000  -24.8150  -29.7260 C.3   133  LEU133      0.0001
    174  N         31.4420  -22.3040  -33.6890 N.am  134  ILE134     -0.1980
    175  CA        30.3100  -21.5900  -34.2640 C.3   134  ILE134      0.1595
    176  C         30.3200  -21.5900  -35.7940 C.2   134  ILE134      0.2287
    177  O         29.2670  -21.5730  -36.4140 O.2   134  ILE134     -0.2864
    178  CB        30.2810  -20.1320  -33.7690 C.3   134  ILE134      0.0276
    179  CG1       30.0860  -20.0990  -32.2570 C.3   134  ILE134      0.0022
    180  CG2       29.1680  -19.3510  -34.4470 C.3   134  ILE134      0.0022
    181  CD1       28.7090  -20.5440  -31.8210 C.3   134  ILE134      0.0001
    182  N         29.1420  -25.0780  -37.0450 N.3   137  ILE137     -0.1231
    183  CA        27.7030  -25.2110  -36.7620 C.3   137  ILE137      0.1692
    184  C         26.9590  -24.4500  -37.8660 C.2   137  ILE137      0.2592
    185  O         26.0310  -25.0150  -38.4500 O.2   137  ILE137     -0.2718
    186  CB        27.2550  -24.7130  -35.3500 C.3   137  ILE137      0.0266
    187  CG1       27.9630  -25.3650  -34.1310 C.3   137  ILE137      0.0019
    188  CG2       25.7590  -24.8910  -35.1020 C.3   137  ILE137      0.0020
    189  CD1       28.5680  -26.7320  -34.3330 C.3   137  ILE137      0.0001
    190  N         27.4570  -23.2690  -38.2230 N.am  138  PHE138     -0.1976
    191  CA        26.8640  -22.4190  -39.2590 C.3   138  PHE138      0.1639
    192  C         27.0720  -22.9210  -40.6960 C.2   138  PHE138      0.2290
    193  O         26.2680  -22.6200  -41.5670 O.2   138  PHE138     -0.2864
    194  CB        27.4250  -20.9980  -39.1490 C.3   138  PHE138      0.0560
    195  CG        26.5770  -20.0660  -38.3320 C.ar  138  PHE138     -0.0200
    196  CD1       26.5040  -20.1940  -36.9570 C.ar  138  PHE138     -0.0042
    197  CD2       25.8650  -19.0500  -38.9400 C.ar  138  PHE138     -0.0042
    198  CE1       25.7310  -19.3330  -36.2060 C.ar  138  PHE138     -0.0003
    199  CE2       25.0890  -18.1860  -38.1940 C.ar  138  PHE138     -0.0003
    200  CZ        25.0220  -18.3280  -36.8250 C.ar  138  PHE138     -0.0000
    201  N         24.9140  -26.2410  -40.7100 N.3   141  SER141     -0.1217
    202  CA        23.5290  -25.7820  -40.8330 C.3   141  SER141      0.1889
    203  C         23.1620  -25.3210  -42.1990 C.2   141  SER141      0.2288
    204  O         22.1190  -25.7110  -42.7150 O.2   141  SER141     -0.2866
    205  CB        23.1450  -24.7410  -39.7810 C.3   141  SER141      0.2089
    206  OG        23.3770  -25.2500  -38.4850 O.3   141  SER141     -0.2183
    207  N         32.3410  -30.1680  -29.8050 N.3   216  HIS216     -0.1241
    208  CA        31.4820  -29.5640  -28.7950 C.3   216  HIS216      0.1621
    209  C         31.8510  -30.1050  -27.4190 C.2   216  HIS216      0.2264
    210  O         31.8750  -29.3660  -26.4360 O.2   216  HIS216     -0.2867
    211  CB        30.0100  -29.8480  -29.0980 C.3   216  HIS216      0.0745
    212  CG        29.0720  -29.0510  -28.1810 C.ar  216  HIS216      0.0817
    213  ND1       28.8950  -27.7380  -28.3500 N.ar  216  HIS216     -0.2268
    214  CD2       28.3720  -29.5620  -27.1110 C.ar  216  HIS216      0.1154
    215  CE1       28.0670  -27.4140  -27.3700 C.ar  216  HIS216      0.1986
    216  NE2       27.7650  -28.4900  -26.6460 N.ar  216  HIS216     -0.2212
@<TRIPOS>BOND
     1   108   107    1
     2   106   107   ar
     3   106   104   ar
     4   204   203    2
     5   107   105   ar
     6   104   102   ar
     7   203   202    1
     8   193   192    2
     9   100    99    2
    10   105   103   ar
    11   102   103   ar
    12   102   101    1
    13   202   201    1
    14   202   205    1
    15    99    98    1
    16   192   191    1
    17   101    98    1
    18   205   206    1
    19    98    97    1
    20   191   194    1
    21   191   190    1
    22   194   195    1
    23   197   195   ar
    24   197   199   ar
    25    97    94   am
    26   185   184    2
    27   195   196   ar
    28   190   184   am
    29   199   200   ar
    30   184   183    1
    31    94    95    2
    32    94    93    1
    33    92    93    1
    34   109   110    1
    35   182   183    1
    36   196   198   ar
    37    93    96    1
    38   200   198   ar
    39   114   113    1
    40   183   186    1
    41    87    86    2
    42   110   113    1
    43   110   111    1
    44    86    85    1
    45   177   176    2
    46    79    78    2
    47   113   115    1
    48   176   175    1
    49    78    77    1
    50   111   116   am
    51   111   112    2
    52   186   188    1
    53   186   187    1
    54   116   117    1
    55    83    81    1
    56    85    84    1
    57    85    88    1
    58    81    80    1
    59    81    82    1
    60   169   168    2
    61    88    89    1
    62    80    77    1
    63   180   178    1
    64   189   187    1
    65    77    76    1
    66   175   178    1
    67   175   174    1
    68   120   117    1
    69   120   121    1
    70   117   118    1
    71   168   174   am
    72   168   167    1
    73    13    12    2
    74   166   167    1
    75   178   179    1
    76   167   170    1
    77   122   121   ar
    78   122   124   ar
    79    72    71    2
    80    76    71   am
    81   121   123   ar
    82    12    11    1
    83    91    90    1
    84    89    90    1
    85   118   119    2
    86   118   127   am
    87    71    70    1
    88   156   154   ar
    89   156   157   ar
    90   124   126   ar
    91   179   181    1
    92   154   152   ar
    93    14    11    1
    94    14    15    1
    95   123   125   ar
    96   127   128    1
    97   170   171    1
    98    69    70    1
    99    11    10    1
   100   172   171    1
   101    70    73    1
   102   157   155   ar
   103    16    15    1
   104    64    63    2
   105   126   125   ar
   106   171   173    1
   107    10     3   am
   108    15    17    1
   109   147   148    1
   110   152   151    1
   111   152   153   ar
   112    63    62    1
   113   131   128    1
   114   131   132    1
   115   128   129    1
   116   151   148    1
   117   155   153   ar
   118    73    74    1
   119    73    75    1
   120     1     2    1
   121   148   149    1
   122   130   129    2
   123     3     4    2
   124     3     2    1
   125   207   208    1
   126   149   150    2
   127   129   138   am
   128    68    67    1
   129   132   133   ar
   130   132   134   ar
   131    62    61    1
   132    62    65    1
   133     2     5    1
   134   211   208    1
   135   211   212    1
   136   133   135   ar
   137     5     6    1
   138   208   209    1
   139    65    66    1
   140   138   139    1
   141   134   136   ar
   142    67    66    1
   143   213   212   ar
   144   213   215   ar
   145   140   141    2
   146   140   139    1
   147   212   214   ar
   148     6     7    1
   149   135   137   ar
   150   139   142    1
   151     8     7    2
   152   164   163    1
   153   136   137   ar
   154    60    57    1
   155   209   210    2
   156   215   216   ar
   157     7     9   am
   158   162   163    1
   159   162   159    1
   160   214   216   ar
   161    55    53    1
   162    59    58    2
   163   163   165    1
   164   142   143    1
   165   160   159    1
   166   160   161    2
   167   158   159    1
   168    54    53    1
   169    57    58    1
   170    57    56    1
   171    37    36    1
   172   143   144    1
   173    53    52    1
   174    31    29   ar
   175    31    30   ar
   176    42    43    1
   177    42    39    1
   178    29    27   ar
   179    41    40    2
   180    45    43   ar
   181    45    47   ar
   182    36    33    1
   183    30    28   ar
   184    43    44   ar
   185    49    52    1
   186    49    48    1
   187    49    50    1
   188   144   145   ar
   189   144   146   ar
   190    40    48   am
   191    40    39    1
   192    47    46   ar
   193    51    50    2
   194    44    46   ar
   195    35    34    2
   196    33    34    1
   197    33    32    1
   198    39    38    1
   199    27    26   ar
   200    27    25   ar
   201    28    25   ar
   202    26    24   ar
   203    25    23   ar
   204    24    23   ar
   205    23    22    1
   206    18    19    1
   207    19    22    1
   208    19    20    1
   209    21    20    2
