@<TRIPOS>MOLECULE
tmp/5ayjB03.pdb
 105 98 0 0 0
SMALL
GASTEIGER

@<TRIPOS>ATOM
      1  N          4.0110   43.8420   67.8620 N.3   109  ILE109     -0.1245
      2  CA         3.2240   44.4750   68.9070 C.3   109  ILE109      0.1561
      3  C          4.2300   45.1630   69.8160 C.2   109  ILE109      0.2260
      4  O          5.2450   44.5640   70.1860 O.2   109  ILE109     -0.2867
      5  CB         2.3850   43.4700   69.7090 C.3   109  ILE109      0.0252
      6  CG1        1.3150   42.8080   68.8380 C.3   109  ILE109      0.0019
      7  CG2        1.7300   44.1580   70.9260 C.3   109  ILE109      0.0019
      8  CD1        0.6600   41.5720   69.5100 C.3   109  ILE109      0.0001
      9  N          4.2150   47.4440   73.4210 N.3   111  GLU111     -0.1245
     10  CA         3.4850   47.9170   74.5770 C.3   111  GLU111      0.1567
     11  C          4.3980   48.8160   75.3900 C.2   111  GLU111      0.2260
     12  O          5.4650   48.3850   75.8370 O.2   111  GLU111     -0.2867
     13  CB         3.0090   46.7370   75.4090 C.3   111  GLU111      0.0388
     14  CG         2.0430   45.8210   74.6770 C.3   111  GLU111      0.1160
     15  CD         1.7600   44.5640   75.4640 C.2   111  GLU111      0.3649
     16  OE1        2.6900   43.7460   75.6320 O.co2 111  GLU111     -0.2457
     17  OE2        0.6190   44.4020   75.9280 O.co2 111  GLU111     -0.2457
     18  N         -1.4470   52.1960   79.5200 N.3   140  TYR140     -0.1241
     19  CA        -0.2430   52.2910   78.7170 C.3   140  TYR140      0.1605
     20  C         -0.5670   52.3020   77.2210 C.2   140  TYR140      0.2264
     21  O         -1.5540   51.7150   76.7850 O.2   140  TYR140     -0.2867
     22  CB         0.7040   51.1390   79.0530 C.3   140  TYR140      0.0534
     23  CG         0.0970   49.7780   78.8250 C.ar  140  TYR140     -0.0201
     24  CD1       -0.6980   49.1730   79.7920 C.ar  140  TYR140     -0.0009
     25  CD2        0.3220   49.0900   77.6450 C.ar  140  TYR140     -0.0009
     26  CE1       -1.2590   47.9270   79.5970 C.ar  140  TYR140      0.0417
     27  CE2       -0.2420   47.8150   77.4370 C.ar  140  TYR140      0.0417
     28  CZ        -1.0300   47.2480   78.4200 C.ar  140  TYR140      0.1957
     29  OH        -1.6140   46.0020   78.2470 O.3   140  TYR140     -0.2866
     30  N         -0.1480   51.4880   73.2080 N.3   142  THR142     -0.1203
     31  CA         0.1960   50.3260   72.4130 C.3   142  THR142      0.1994
     32  C          0.3500   50.6760   70.9370 C.2   142  THR142      0.2618
     33  O         -0.1850   51.6780   70.4470 O.2   142  THR142     -0.2717
     34  CB        -0.8730   49.2070   72.5390 C.3   142  THR142      0.1784
     35  OG1       -2.0770   49.6140   71.8780 O.3   142  THR142     -0.2211
     36  CG2       -1.1770   48.8770   73.9620 C.3   142  THR142      0.0376
     37  N          1.0550   49.8060   70.2310 N.am  143  ALA143     -0.1965
     38  CA         1.1900   49.9070   68.7830 C.3   143  ALA143      0.1728
     39  C          1.2150   48.5030   68.2050 C.2   143  ALA143      0.2616
     40  O          1.6550   47.5430   68.8600 O.2   143  ALA143     -0.2715
     41  CB         2.4410   50.6690   68.3940 C.3   143  ALA143      0.0334
     42  N          0.7480   48.4150   66.9660 N.am  144  TYR144     -0.1974
     43  CA         0.6590   47.1820   66.2170 C.3   144  TYR144      0.1639
     44  C          1.0030   47.5050   64.7730 C.2   144  TYR144      0.2290
     45  O          0.5650   48.5420   64.2480 O.2   144  TYR144     -0.2864
     46  CB        -0.7450   46.6040   66.3260 C.3   144  TYR144      0.0560
     47  CG        -0.9850   45.3690   65.5170 C.ar  144  TYR144     -0.0198
     48  CD1       -0.2130   44.2410   65.7110 C.ar  144  TYR144     -0.0009
     49  CD2       -1.9990   45.3210   64.5790 C.ar  144  TYR144     -0.0009
     50  CE1       -0.4350   43.1130   65.0120 C.ar  144  TYR144      0.0417
     51  CE2       -2.2330   44.1900   63.8600 C.ar  144  TYR144      0.0417
     52  CZ        -1.4500   43.0870   64.0800 C.ar  144  TYR144      0.1957
     53  OH        -1.6750   41.9530   63.3670 O.3   144  TYR144     -0.2866
     54  N         -2.1350   49.7220   63.8400 N.3   161  GLN161     -0.1245
     55  CA        -3.1010   50.1270   64.8440 C.3   161  GLN161      0.1566
     56  C         -2.3870   50.6670   66.0690 C.2   161  GLN161      0.2260
     57  O         -1.3760   50.1150   66.5110 O.2   161  GLN161     -0.2867
     58  CB        -4.0050   48.9610   65.2160 C.3   161  GLN161      0.0367
     59  CG        -5.1830   49.3670   66.0840 C.3   161  GLN161      0.0905
     60  CD        -6.2050   48.2480   66.2350 C.2   161  GLN161      0.2608
     61  OE1       -7.3740   48.3860   65.8630 O.2   161  GLN161     -0.2717
     62  NE2       -5.7670   47.1420   66.7840 N.am  161  GLN161     -0.0878
     63  N         -4.2670   50.9240   76.4480 N.3   165  ALA165     -0.1245
     64  CA        -4.7180   49.7090   77.1340 C.3   165  ALA165      0.1562
     65  C         -4.7760   49.9230   78.6450 C.2   165  ALA165      0.2260
     66  O         -3.9610   50.6730   79.2130 O.2   165  ALA165     -0.2867
     67  CB        -3.7810   48.5240   76.8080 C.3   165  ALA165      0.0290
     68  N         -9.9600   49.4290   76.8200 N.3   201  ASN201     -0.1240
     69  CA        -8.9140   49.3400   75.8250 C.3   201  ASN201      0.1653
     70  C         -9.4410   50.0570   74.6110 C.2   201  ASN201      0.2266
     71  O        -10.5280   49.7400   74.1340 O.2   201  ASN201     -0.2867
     72  CB        -8.5750   47.8870   75.4870 C.3   201  ASN201      0.1155
     73  CG        -7.9480   47.1460   76.6450 C.2   201  ASN201      0.2627
     74  OD1       -7.0520   47.6560   77.3110 O.2   201  ASN201     -0.2716
     75  ND2       -8.4120   45.9310   76.8900 N.am  201  ASN201     -0.0877
     76  N         -8.4950   51.4230   70.6810 N.3   203  LYS203     -0.1245
     77  CA        -7.5570   51.3000   69.5760 C.3   203  LYS203      0.1561
     78  C         -7.9940   52.1180   68.3630 C.2   203  LYS203      0.2260
     79  O         -9.1530   52.0210   67.9300 O.2   203  LYS203     -0.2867
     80  CB        -7.4160   49.8330   69.1490 C.3   203  LYS203      0.0271
     81  CG        -7.1570   48.8260   70.2560 C.3   203  LYS203      0.0035
     82  CD        -5.7650   48.9200   70.8060 C.3   203  LYS203      0.0206
     83  CE        -5.4310   47.7460   71.7290 C.3   203  LYS203      0.1093
     84  NZ        -5.4710   46.3870   71.0750 N.3   203  LYS203     -0.1314
     85  N        -11.8090   51.6220   67.8020 N.3   264  TYR264     -0.1241
     86  CA       -12.3570   50.3900   68.3010 C.3   264  TYR264      0.1605
     87  C        -12.2680   50.3730   69.8280 C.2   264  TYR264      0.2264
     88  O        -11.2530   50.7960   70.4050 O.2   264  TYR264     -0.2867
     89  CB       -11.5980   49.2140   67.7200 C.3   264  TYR264      0.0534
     90  CG       -11.9150   47.8840   68.3820 C.ar  264  TYR264     -0.0201
     91  CD1      -13.1190   47.2380   68.1450 C.ar  264  TYR264     -0.0009
     92  CD2      -11.0080   47.2740   69.2300 C.ar  264  TYR264     -0.0009
     93  CE1      -13.4070   46.0160   68.7290 C.ar  264  TYR264      0.0417
     94  CE2      -11.2800   46.0480   69.8120 C.ar  264  TYR264      0.0417
     95  CZ       -12.4830   45.4280   69.5640 C.ar  264  TYR264      0.1957
     96  OH       -12.7630   44.2200   70.1580 O.3   264  TYR264     -0.2866
     97  N        -12.7060   47.8640   73.2920 N.3   266  GLU266     -0.1245
     98  CA       -12.9810   46.6610   74.0680 C.3   266  GLU266      0.1567
     99  C        -13.1090   47.0910   75.5290 C.2   266  GLU266      0.2260
    100  O        -12.1200   47.4590   76.1560 O.2   266  GLU266     -0.2867
    101  CB       -11.8920   45.6050   73.8810 C.3   266  GLU266      0.0388
    102  CG       -12.1430   44.3090   74.6060 C.3   266  GLU266      0.1160
    103  CD       -11.0180   43.3030   74.5080 C.2   266  GLU266      0.3649
    104  OE1      -10.2130   43.3610   73.5780 O.co2 266  GLU266     -0.2457
    105  OE2      -11.0460   42.3680   75.3400 O.co2 266  GLU266     -0.2457
@<TRIPOS>BOND
     1    53    52    1
     2    54    55    1
     3    51    52   ar
     4    51    49   ar
     5    52    50   ar
     6    45    44    2
     7    49    47   ar
     8    44    43    1
     9    55    58    1
    10    55    56    1
    11    50    48   ar
    12    58    59    1
    13    47    48   ar
    14    47    46    1
    15    61    60    2
    16    56    57    2
    17    59    60    1
    18    43    46    1
    19    43    42    1
    20    60    62   am
    21    42    39   am
    22    89    86    1
    23    89    90    1
    24    85    86    1
    25     1     2    1
    26    79    78    2
    27    91    90   ar
    28    91    93   ar
    29    39    38    1
    30    39    40    2
    31    86    87    1
    32    78    77    1
    33    90    92   ar
    34    41    38    1
    35    93    95   ar
    36    38    37    1
    37     6     8    1
    38     6     5    1
    39     2     5    1
    40     2     3    1
    41    80    77    1
    42    80    81    1
    43    92    94   ar
    44    95    94   ar
    45    95    96    1
    46    77    76    1
    47     5     7    1
    48     3     4    2
    49    87    88    2
    50    37    32   am
    51    81    82    1
    52    33    32    2
    53    82    83    1
    54    32    31    1
    55    84    83    1
    56    35    34    1
    57    31    34    1
    58    31    30    1
    59    34    36    1
    60    97    98    1
    61     9    10    1
    62   104   103   ar
    63   101    98    1
    64   101   102    1
    65    98    99    1
    66    71    70    2
    67   103   102    1
    68   103   105   ar
    69    10    11    1
    70    10    13    1
    71    70    69    1
    72    14    13    1
    73    14    15    1
    74    11    12    2
    75    15    16   ar
    76    15    17   ar
    77    72    69    1
    78    72    73    1
    79    99   100    2
    80    69    68    1
    81    63    64    1
    82    73    75   am
    83    73    74    2
    84    21    20    2
    85    67    64    1
    86    64    65    1
    87    20    19    1
    88    27    25   ar
    89    27    28   ar
    90    25    23   ar
    91    29    28    1
    92    28    26   ar
    93    65    66    2
    94    19    22    1
    95    19    18    1
    96    23    22    1
    97    23    24   ar
    98    26    24   ar
