@<TRIPOS>MOLECULE
tmp/5ayjC01.pdb
 105 98 0 0 0
SMALL
GASTEIGER

@<TRIPOS>ATOM
      1  N         -5.6900   44.1350  108.8880 N.3   109  ILE109     -0.1245
      2  CA        -4.8450   44.7130  107.8640 C.3   109  ILE109      0.1561
      3  C         -5.7200   45.4690  106.8760 C.2   109  ILE109      0.2260
      4  O         -6.6730   44.9080  106.3540 O.2   109  ILE109     -0.2867
      5  CB        -4.0590   43.6700  107.0920 C.3   109  ILE109      0.0252
      6  CG1       -3.0420   42.9770  108.0010 C.3   109  ILE109      0.0019
      7  CG2       -3.3880   44.3400  105.8880 C.3   109  ILE109      0.0019
      8  CD1       -2.4800   41.6940  107.4280 C.3   109  ILE109      0.0001
      9  N         -5.5750   47.7600  103.3430 N.3   111  GLU111     -0.1245
     10  CA        -4.8350   48.2650  102.1980 C.3   111  GLU111      0.1567
     11  C         -5.7030   49.1630  101.3530 C.2   111  GLU111      0.2260
     12  O         -6.7290   48.7110  100.8560 O.2   111  GLU111     -0.2867
     13  CB        -4.3310   47.1220  101.3390 C.3   111  GLU111      0.0388
     14  CG        -3.3470   46.1810  102.0000 C.3   111  GLU111      0.1160
     15  CD        -3.0140   44.9850  101.1040 C.2   111  GLU111      0.3649
     16  OE1       -3.9550   44.3370  100.6100 O.co2 111  GLU111     -0.2457
     17  OE2       -1.8240   44.7130  100.8650 O.co2 111  GLU111     -0.2457
     18  N          0.3100   52.1460   97.2330 N.3   140  TYR140     -0.1241
     19  CA        -0.8690   52.3510   98.0440 C.3   140  TYR140      0.1605
     20  C         -0.5560   52.3360   99.5360 C.2   140  TYR140      0.2264
     21  O          0.4050   51.7010  100.0000 O.2   140  TYR140     -0.2867
     22  CB        -1.9180   51.2740   97.7090 C.3   140  TYR140      0.0534
     23  CG        -1.4110   49.8630   97.9210 C.ar  140  TYR140     -0.0201
     24  CD1       -0.6330   49.2210   96.9530 C.ar  140  TYR140     -0.0009
     25  CD2       -1.6800   49.1830   99.1020 C.ar  140  TYR140     -0.0009
     26  CE1       -0.1590   47.9420   97.1500 C.ar  140  TYR140      0.0417
     27  CE2       -1.2300   47.8900   99.3090 C.ar  140  TYR140      0.0417
     28  CZ        -0.4570   47.2750   98.3310 C.ar  140  TYR140      0.1957
     29  OH         0.0040   45.9940   98.5240 O.3   140  TYR140     -0.2866
     30  N         -1.0170   51.5190  103.4990 N.3   142  THR142     -0.1203
     31  CA        -1.4090   50.3710  104.3000 C.3   142  THR142      0.1994
     32  C         -1.5130   50.7370  105.7660 C.2   142  THR142      0.2618
     33  O         -0.9290   51.7180  106.2100 O.2   142  THR142     -0.2717
     34  CB        -0.4160   49.1910  104.1750 C.3   142  THR142      0.1784
     35  OG1        0.8460   49.5360  104.7710 O.3   142  THR142     -0.2211
     36  CG2       -0.2190   48.8090  102.7240 C.3   142  THR142      0.0376
     37  N         -2.2780   49.9390  106.4970 N.am  143  ALA143     -0.1965
     38  CA        -2.3740   50.0810  107.9480 C.3   143  ALA143      0.1728
     39  C         -2.5330   48.7150  108.5620 C.2   143  ALA143      0.2616
     40  O         -3.0980   47.7970  107.9620 O.2   143  ALA143     -0.2715
     41  CB        -3.5260   50.9630  108.3430 C.3   143  ALA143      0.0334
     42  N         -2.0290   48.5950  109.7780 N.am  144  TYR144     -0.1974
     43  CA        -2.0690   47.3440  110.4950 C.3   144  TYR144      0.1639
     44  C         -2.4080   47.6510  111.9460 C.2   144  TYR144      0.2290
     45  O         -1.8820   48.6040  112.5050 O.2   144  TYR144     -0.2864
     46  CB        -0.7270   46.6300  110.3530 C.3   144  TYR144      0.0560
     47  CG        -0.5640   45.3790  111.1790 C.ar  144  TYR144     -0.0198
     48  CD1       -1.4120   44.2890  111.0150 C.ar  144  TYR144     -0.0009
     49  CD2        0.4820   45.2640  112.0860 C.ar  144  TYR144     -0.0009
     50  CE1       -1.2410   43.1270  111.7580 C.ar  144  TYR144      0.0417
     51  CE2        0.6620   44.1110  112.8340 C.ar  144  TYR144      0.0417
     52  CZ        -0.2000   43.0470  112.6680 C.ar  144  TYR144      0.1957
     53  OH        -0.0170   41.9060  113.4110 O.3   144  TYR144     -0.2866
     54  N          0.8280   49.7250  112.9290 N.3   161  GLN161     -0.1245
     55  CA         1.8460   50.0440  111.9310 C.3   161  GLN161      0.1566
     56  C          1.2060   50.6270  110.6730 C.2   161  GLN161      0.2260
     57  O          0.1990   50.1200  110.1870 O.2   161  GLN161     -0.2867
     58  CB         2.6650   48.7940  111.5920 C.3   161  GLN161      0.0367
     59  CG         3.8450   49.0650  110.6450 C.3   161  GLN161      0.0905
     60  CD         4.7540   47.8630  110.4290 C.2   161  GLN161      0.2608
     61  OE1        4.3410   46.8660  109.8590 O.2   161  GLN161     -0.2717
     62  NE2        6.0250   47.9820  110.8420 N.am  161  GLN161     -0.0878
     63  N          3.0700   50.8390  100.2960 N.3   165  ALA165     -0.1245
     64  CA         3.4470   49.5900   99.6510 C.3   165  ALA165      0.1562
     65  C          3.4880   49.7720   98.1410 C.2   165  ALA165      0.2260
     66  O          2.7200   50.5570   97.5850 O.2   165  ALA165     -0.2867
     67  CB         2.4780   48.5150  100.0290 C.3   165  ALA165      0.0290
     68  N          8.6560   48.9010   99.9600 N.3   201  ASN201     -0.1240
     69  CA         7.6020   48.8480  100.9580 C.3   201  ASN201      0.1653
     70  C          8.2120   49.5370  102.1690 C.2   201  ASN201      0.2266
     71  O          9.2930   49.1540  102.6260 O.2   201  ASN201     -0.2867
     72  CB         7.1860   47.4200  101.3140 C.3   201  ASN201      0.1155
     73  CG         6.5290   46.6810  100.1740 C.2   201  ASN201      0.2627
     74  OD1        5.6900   47.2190   99.4610 O.2   201  ASN201     -0.2716
     75  ND2        6.8770   45.4070  100.0290 N.am  201  ASN201     -0.0877
     76  N          7.3850   51.0150  106.0860 N.3   203  LYS203     -0.1245
     77  CA         6.4380   50.8730  107.2110 C.3   203  LYS203      0.1561
     78  C          6.9160   51.6700  108.4050 C.2   203  LYS203      0.2260
     79  O          8.0920   51.5820  108.7620 O.2   203  LYS203     -0.2867
     80  CB         6.2700   49.4060  107.6320 C.3   203  LYS203      0.0271
     81  CG         5.8050   48.4180  106.5480 C.3   203  LYS203      0.0035
     82  CD         4.4240   48.7080  106.0220 C.3   203  LYS203      0.0206
     83  CE         3.9830   47.6510  105.0000 C.3   203  LYS203      0.1093
     84  NZ         4.0170   46.2480  105.5250 N.3   203  LYS203     -0.1314
     85  N         10.5910   51.0310  108.8910 N.3   264  TYR264     -0.1241
     86  CA        11.0610   49.7260  108.4430 C.3   264  TYR264      0.1605
     87  C         10.9780   49.6640  106.9220 C.2   264  TYR264      0.2264
     88  O          9.9780   50.1070  106.3200 O.2   264  TYR264     -0.2867
     89  CB        10.2380   48.5950  109.0820 C.3   264  TYR264      0.0534
     90  CG        10.4900   47.2470  108.4430 C.ar  264  TYR264     -0.0201
     91  CD1       11.6660   46.5500  108.6960 C.ar  264  TYR264     -0.0009
     92  CD2        9.5720   46.6770  107.5650 C.ar  264  TYR264     -0.0009
     93  CE1       11.9170   45.3320  108.1140 C.ar  264  TYR264      0.0417
     94  CE2        9.8240   45.4530  106.9570 C.ar  264  TYR264      0.0417
     95  CZ        10.9980   44.7840  107.2410 C.ar  264  TYR264      0.1957
     96  OH        11.2790   43.5560  106.6640 O.3   264  TYR264     -0.2866
     97  N         11.3430   47.1690  103.4670 N.3   266  GLU266     -0.1245
     98  CA        11.5140   45.9460  102.7060 C.3   266  GLU266      0.1567
     99  C         11.6460   46.3920  101.2550 C.2   266  GLU266      0.2260
    100  O         10.6900   46.8960  100.6680 O.2   266  GLU266     -0.2867
    101  CB        10.3340   45.0010  102.9040 C.3   266  GLU266      0.0388
    102  CG        10.6140   43.6330  102.5050 C.3   266  GLU266      0.1160
    103  CD         9.4460   42.6550  102.7720 C.2   266  GLU266      0.3649
    104  OE1        9.0510   42.3730  103.9090 O.co2 266  GLU266     -0.2457
    105  OE2        8.9420   42.1300  101.7720 O.co2 266  GLU266     -0.2457
@<TRIPOS>BOND
     1    24    26   ar
     2    24    23   ar
     3    26    28   ar
     4    18    19    1
     5    66    65    2
     6    22    23    1
     7    22    19    1
     8    23    25   ar
     9    19    20    1
    10    65    64    1
    11    28    29    1
    12    28    27   ar
    13    25    27   ar
    14    74    73    2
    15    20    21    2
    16    64    67    1
    17    64    63    1
    18    68    69    1
    19    75    73   am
    20    73    72    1
    21    16    15   ar
    22   100    99    2
    23    12    11    2
    24    17    15   ar
    25    69    72    1
    26    69    70    1
    27    15    14    1
    28    99    98    1
    29    13    14    1
    30    13    10    1
    31    11    10    1
    32   105   103   ar
    33    70    71    2
    34    10     9    1
    35   102   103    1
    36   102   101    1
    37    98   101    1
    38    98    97    1
    39    36    34    1
    40   103   104   ar
    41    30    31    1
    42    34    31    1
    43    34    35    1
    44    31    32    1
    45    83    84    1
    46    83    82    1
    47    32    33    2
    48    32    37   am
    49     7     5    1
    50    82    81    1
    51    76    77    1
    52    88    87    2
    53     4     3    2
    54    37    38    1
    55    81    80    1
    56    96    95    1
    57     3     2    1
    58    87    86    1
    59    94    95   ar
    60    94    92   ar
    61     5     2    1
    62     5     6    1
    63    77    80    1
    64    77    78    1
    65    95    93   ar
    66     8     6    1
    67    92    90   ar
    68     2     1    1
    69    38    41    1
    70    38    39    1
    71    40    39    2
    72    93    91   ar
    73    78    79    2
    74    90    91   ar
    75    90    89    1
    76    86    85    1
    77    86    89    1
    78    39    42   am
    79    42    43    1
    80    61    60    2
    81    57    56    2
    82    46    43    1
    83    46    47    1
    84    60    59    1
    85    60    62   am
    86    43    44    1
    87    59    58    1
    88    56    55    1
    89    48    47   ar
    90    48    50   ar
    91    47    49   ar
    92    58    55    1
    93    50    52   ar
    94    55    54    1
    95    44    45    2
    96    49    51   ar
    97    52    51   ar
    98    52    53    1
