@<TRIPOS>MOLECULE
tmp/5aynA03.pdb
 98 93 0 0 0
SMALL
GASTEIGER

@<TRIPOS>ATOM
      1  N         22.3170  -10.1870  -41.3970 N.3   287  ILE287     -0.1231
      2  CA        22.4620  -11.5710  -40.9490 C.3   287  ILE287      0.1692
      3  C         23.5950  -11.7560  -39.9350 C.2   287  ILE287      0.2592
      4  O         23.4080  -12.3230  -38.8520 O.2   287  ILE287     -0.2718
      5  CB        22.7120  -12.5080  -42.1210 C.3   287  ILE287      0.0266
      6  CG1       21.4750  -12.5650  -43.0160 C.3   287  ILE287      0.0019
      7  CG2       23.0500  -13.9060  -41.6070 C.3   287  ILE287      0.0020
      8  CD1       20.2600  -13.1410  -42.3310 C.3   287  ILE287      0.0001
      9  N         24.7670  -11.2550  -40.2930 N.am  288  SER288     -0.1952
     10  CA        25.9640  -11.4230  -39.4830 C.3   288  SER288      0.1924
     11  C         25.8560  -10.7470  -38.1130 C.2   288  SER288      0.2314
     12  O         26.3260  -11.2940  -37.1070 O.2   288  SER288     -0.2863
     13  CB        27.1800  -10.8820  -40.2450 C.3   288  SER288      0.2116
     14  OG        28.3650  -11.0080  -39.4790 O.3   288  SER288     -0.2180
     15  N         23.6110  -12.9230  -35.9860 N.3   291  ARG291     -0.1231
     16  CA        24.3180  -14.1310  -35.5550 C.3   291  ARG291      0.1694
     17  C         25.2980  -13.8300  -34.4330 C.2   291  ARG291      0.2592
     18  O         25.4320  -14.6140  -33.5020 O.2   291  ARG291     -0.2718
     19  CB        25.0780  -14.7930  -36.7220 C.3   291  ARG291      0.0321
     20  CG        24.2150  -15.5980  -37.6660 C.3   291  ARG291      0.0489
     21  CD        24.9820  -16.0960  -38.8980 C.3   291  ARG291      0.2205
     22  NE        25.9140  -17.1800  -38.5940 N.pl3 291  ARG291     -0.0865
     23  CZ        26.4610  -17.9720  -39.5140 C.cat 291  ARG291      0.5346
     24  NH1       26.1560  -17.8080  -40.7970 N.pl3 291  ARG291      0.1354
     25  NH2       27.3030  -18.9330  -39.1540 N.pl3 291  ARG291      0.1354
     26  N         25.9900  -12.7050  -34.5270 N.am  292  TRP292     -0.1976
     27  CA        26.9490  -12.3560  -33.5010 C.3   292  TRP292      0.1640
     28  C         26.2350  -12.0560  -32.1890 C.2   292  TRP292      0.2290
     29  O         26.6610  -12.5180  -31.1450 O.2   292  TRP292     -0.2864
     30  CB        27.8130  -11.1680  -33.9340 C.3   292  TRP292      0.0576
     31  CG        29.0130  -11.5820  -34.7330 C.ar  292  TRP292      0.0006
     32  CD1       29.1690  -11.4990  -36.0900 C.ar  292  TRP292      0.0946
     33  CD2       30.2250  -12.1630  -34.2260 C.ar  292  TRP292      0.0152
     34  NE1       30.4080  -11.9840  -36.4570 N.ar  292  TRP292     -0.2442
     35  CE2       31.0740  -12.3980  -35.3340 C.ar  292  TRP292      0.0810
     36  CE3       30.6780  -12.5020  -32.9460 C.ar  292  TRP292      0.0012
     37  CZ2       32.3460  -12.9580  -35.1980 C.ar  292  TRP292      0.0191
     38  CZ3       31.9480  -13.0580  -32.8130 C.ar  292  TRP292      0.0001
     39  CH2       32.7650  -13.2790  -33.9330 C.ar  292  TRP292      0.0015
     40  N         24.8380  -15.3050  -30.7130 N.3   295  GLY295     -0.1210
     41  CA        25.9650  -16.0560  -30.1970 C.3   295  GLY295      0.1956
     42  C         26.4650  -15.4510  -28.8940 C.2   295  GLY295      0.2611
     43  O         26.8060  -16.1720  -27.9650 O.2   295  GLY295     -0.2717
     44  N         26.4950  -14.1240  -28.8160 N.am  296  PHE296     -0.1976
     45  CA        26.9320  -13.4380  -27.5960 C.3   296  PHE296      0.1639
     46  C         26.0080  -13.7890  -26.4240 C.2   296  PHE296      0.2290
     47  O         26.4670  -14.0480  -25.3100 O.2   296  PHE296     -0.2864
     48  CB        26.9720  -11.9290  -27.8270 C.3   296  PHE296      0.0560
     49  CG        27.5090  -11.1380  -26.6610 C.ar  296  PHE296     -0.0200
     50  CD1       28.8740  -11.0890  -26.4030 C.ar  296  PHE296     -0.0042
     51  CD2       26.6590  -10.4190  -25.8490 C.ar  296  PHE296     -0.0042
     52  CE1       29.3660  -10.3490  -25.3350 C.ar  296  PHE296     -0.0003
     53  CE2       27.1440   -9.6760  -24.7820 C.ar  296  PHE296     -0.0003
     54  CZ        28.4960   -9.6390  -24.5240 C.ar  296  PHE296     -0.0000
     55  N         26.9760  -17.4240  -25.4610 N.3   299  VAL299     -0.1231
     56  CA        28.2350  -17.5520  -24.7330 C.3   299  VAL299      0.1692
     57  C         28.1270  -17.0110  -23.3030 C.2   299  VAL299      0.2592
     58  O         28.5200  -17.6880  -22.3370 O.2   299  VAL299     -0.2718
     59  CB        29.3800  -16.8210  -25.4590 C.3   299  VAL299      0.0266
     60  CG1       30.5780  -16.6230  -24.5180 C.3   299  VAL299      0.0020
     61  CG2       29.7820  -17.5830  -26.7140 C.3   299  VAL299      0.0020
     62  N         27.5840  -15.8020  -23.1710 N.am  300  THR300     -0.1953
     63  CA        27.4510  -15.1650  -21.8540 C.3   300  THR300      0.1897
     64  C         26.5550  -15.9670  -20.9100 C.2   300  THR300      0.2313
     65  O         26.8300  -16.0590  -19.7060 O.2   300  THR300     -0.2863
     66  CB        26.8980  -13.7160  -21.9570 C.3   300  THR300      0.1794
     67  OG1       25.6630  -13.7130  -22.6910 O.3   300  THR300     -0.2208
     68  CG2       27.9040  -12.8000  -22.6580 C.3   300  THR300      0.0378
     69  N         28.4940  -19.0830  -19.7510 N.3   303  ILE303     -0.1245
     70  CA        29.3300  -18.6890  -18.6410 C.3   303  ILE303      0.1561
     71  C         28.4990  -18.5270  -17.3750 C.2   303  ILE303      0.2260
     72  O         28.9090  -18.9720  -16.2970 O.2   303  ILE303     -0.2867
     73  CB        30.0770  -17.3600  -18.9250 C.3   303  ILE303      0.0252
     74  CG1       31.0540  -17.5280  -20.0920 C.3   303  ILE303      0.0019
     75  CG2       30.8040  -16.8970  -17.6690 C.3   303  ILE303      0.0019
     76  CD1       31.6150  -16.2140  -20.6480 C.3   303  ILE303      0.0001
     77  N         26.8350  -11.6310  -16.3000 N.3   322  CYS322     -0.1235
     78  CA        26.6480  -12.3160  -17.5800 C.3   322  CYS322      0.1677
     79  C         25.2020  -12.3390  -18.0780 C.2   322  CYS322      0.2270
     80  O         24.9540  -12.2860  -19.2830 O.2   322  CYS322     -0.2867
     81  CB        27.1620  -13.7520  -17.4830 C.3   322  CYS322      0.0956
     82  SG        28.9370  -13.8250  -17.5020 S.3   322  CYS322     -0.0801
     83  N         24.8470   -8.8540  -19.5010 N.3   325  LEU325     -0.1245
     84  CA        25.5110   -8.8150  -20.8030 C.3   325  LEU325      0.1561
     85  C         24.6900   -9.5360  -21.8700 C.2   325  LEU325      0.2260
     86  O         24.6020   -9.0820  -23.0100 O.2   325  LEU325     -0.2867
     87  CB        26.8960   -9.4550  -20.7310 C.3   325  LEU325      0.0270
     88  CG        28.0250   -8.7210  -20.0250 C.3   325  LEU325      0.0019
     89  CD1       29.2770   -9.6030  -20.0040 C.3   325  LEU325      0.0001
     90  CD2       28.2960   -7.3880  -20.7210 C.3   325  LEU325      0.0001
     91  N         21.2810  -20.3850  -37.2050 N.3   400  ILE400     -0.1245
     92  CA        22.4320  -20.5540  -38.0730 C.3   400  ILE400      0.1561
     93  C         21.9920  -21.3490  -39.3030 C.2   400  ILE400      0.2260
     94  O         22.2170  -20.9190  -40.4280 O.2   400  ILE400     -0.2867
     95  CB        23.6020  -21.2280  -37.3380 C.3   400  ILE400      0.0252
     96  CG1       24.2410  -20.2070  -36.3860 C.3   400  ILE400      0.0019
     97  CG2       24.6430  -21.7160  -38.3250 C.3   400  ILE400      0.0019
     98  CD1       25.3560  -20.7440  -35.5140 C.3   400  ILE400      0.0001
@<TRIPOS>BOND
     1     6     8    1
     2     6     5    1
     3     5     7    1
     4     5     2    1
     5     1     2    1
     6     2     3    1
     7    24    23    1
     8    94    93    2
     9     9     3   am
    10     9    10    1
    11    13    10    1
    12    13    14    1
    13     3     4    2
    14    23    25    1
    15    23    22    2
    16    10    11    1
    17    93    92    1
    18    21    22    1
    19    21    20    1
    20    97    95    1
    21    11    12    2
    22    92    95    1
    23    92    91    1
    24    20    19    1
    25    95    96    1
    26    19    16    1
    27    34    32   ar
    28    34    35   ar
    29    96    98    1
    30    32    31   ar
    31    15    16    1
    32    16    17    1
    33    35    37   ar
    34    35    33   ar
    35    37    39   ar
    36    31    33   ar
    37    31    30    1
    38    26    17   am
    39    26    27    1
    40    17    18    2
    41    33    36   ar
    42    30    27    1
    43    39    38   ar
    44    27    28    1
    45    36    38   ar
    46    28    29    2
    47    40    41    1
    48    41    42    1
    49    42    44   am
    50    42    43    2
    51    44    45    1
    52    48    45    1
    53    48    49    1
    54    45    46    1
    55    61    59    1
    56    49    50   ar
    57    49    51   ar
    58    46    47    2
    59    50    52   ar
    60    51    53   ar
    61    55    56    1
    62    59    56    1
    63    59    60    1
    64    52    54   ar
    65    53    54   ar
    66    56    57    1
    67    57    62   am
    68    57    58    2
    69    62    63    1
    70    86    85    2
    71    67    66    1
    72    68    66    1
    73    66    63    1
    74    85    84    1
    75    63    64    1
    76    64    65    2
    77    84    87    1
    78    84    83    1
    79    87    88    1
    80    90    88    1
    81    76    74    1
    82    74    73    1
    83    88    89    1
    84    69    70    1
    85    80    79    2
    86    73    70    1
    87    73    75    1
    88    70    71    1
    89    79    78    1
    90    78    81    1
    91    78    77    1
    92    82    81    1
    93    71    72    2
