@<TRIPOS>MOLECULE
tmp/5aynA05.pdb
 80 75 0 0 0
SMALL
GASTEIGER

@<TRIPOS>ATOM
      1  N         18.4830   -3.4200   -7.9970 N.3   261  LEU261     -0.1245
      2  CA        19.3800   -2.7630   -8.9410 C.3   261  LEU261      0.1561
      3  C         19.6520   -3.6550  -10.1740 C.2   261  LEU261      0.2260
      4  O         19.5840   -3.1750  -11.2970 O.2   261  LEU261     -0.2867
      5  CB        20.6830   -2.3660   -8.2450 C.3   261  LEU261      0.0270
      6  CG        21.8270   -1.7880   -9.0860 C.3   261  LEU261      0.0019
      7  CD1       21.4130   -0.5270   -9.8310 C.3   261  LEU261      0.0001
      8  CD2       23.0320   -1.5080   -8.1940 C.3   261  LEU261      0.0001
      9  N         18.8880   -2.8010  -14.0530 N.3   265  LEU265     -0.1245
     10  CA        19.9600   -2.6640  -15.0200 C.3   265  LEU265      0.1561
     11  C         19.6230   -3.3340  -16.3580 C.2   265  LEU265      0.2260
     12  O         20.2960   -3.0860  -17.3580 O.2   265  LEU265     -0.2867
     13  CB        21.2570   -3.2180  -14.4470 C.3   265  LEU265      0.0270
     14  CG        21.9370   -2.2410  -13.4730 C.3   265  LEU265      0.0019
     15  CD1       23.1330   -2.8670  -12.7880 C.3   265  LEU265      0.0001
     16  CD2       22.3410   -0.9490  -14.2070 C.3   265  LEU265      0.0001
     17  N         21.1110   -2.4250  -20.4350 N.3   269  PHE269     -0.1241
     18  CA        21.8050   -3.2990  -21.3560 C.3   269  PHE269      0.1605
     19  C         20.9770   -3.4720  -22.6180 C.2   269  PHE269      0.2264
     20  O         21.5290   -3.5780  -23.7230 O.2   269  PHE269     -0.2867
     21  CB        22.1540   -4.6160  -20.6530 C.3   269  PHE269      0.0534
     22  CG        23.2960   -4.4610  -19.6820 C.ar  269  PHE269     -0.0203
     23  CD1       23.0720   -3.9790  -18.3940 C.ar  269  PHE269     -0.0042
     24  CD2       24.5980   -4.7000  -20.0850 C.ar  269  PHE269     -0.0042
     25  CE1       24.1260   -3.7910  -17.5070 C.ar  269  PHE269     -0.0003
     26  CE2       25.6510   -4.5150  -19.2100 C.ar  269  PHE269     -0.0003
     27  CZ        25.4140   -4.0550  -17.9180 C.ar  269  PHE269     -0.0000
     28  N         28.4940  -19.0830  -19.7510 N.3   303  ILE303     -0.1245
     29  CA        29.3300  -18.6890  -18.6410 C.3   303  ILE303      0.1561
     30  C         28.4990  -18.5270  -17.3750 C.2   303  ILE303      0.2260
     31  O         28.9090  -18.9720  -16.2970 O.2   303  ILE303     -0.2867
     32  CB        30.0770  -17.3600  -18.9250 C.3   303  ILE303      0.0252
     33  CG1       31.0540  -17.5280  -20.0920 C.3   303  ILE303      0.0019
     34  CG2       30.8040  -16.8970  -17.6690 C.3   303  ILE303      0.0019
     35  CD1       31.6150  -16.2140  -20.6480 C.3   303  ILE303      0.0001
     36  N         27.9110  -12.7950   -8.6410 N.3   317  TYR317     -0.1227
     37  CA        27.9450  -11.5290   -9.3700 C.3   317  TYR317      0.1736
     38  C         28.3910  -11.7080  -10.8120 C.2   317  TYR317      0.2595
     39  O         28.0440  -10.8970  -11.6770 O.2   317  TYR317     -0.2718
     40  CB        28.8440  -10.5330   -8.6520 C.3   317  TYR317      0.0548
     41  CG        28.2490  -10.1620   -7.3360 C.ar  317  TYR317     -0.0200
     42  CD1       26.9370   -9.7100   -7.2660 C.ar  317  TYR317     -0.0009
     43  CD2       28.9590  -10.3270   -6.1550 C.ar  317  TYR317     -0.0009
     44  CE1       26.3530   -9.3890   -6.0640 C.ar  317  TYR317      0.0417
     45  CE2       28.3840  -10.0100   -4.9330 C.ar  317  TYR317      0.0417
     46  CZ        27.0760   -9.5410   -4.8940 C.ar  317  TYR317      0.1957
     47  OH        26.4780   -9.2210   -3.6910 O.3   317  TYR317     -0.2866
     48  N         29.1550  -12.7660  -11.0660 N.am  318  VAL318     -0.1980
     49  CA        29.5010  -13.1230  -12.4360 C.3   318  VAL318      0.1595
     50  C         28.2610  -13.7040  -13.1200 C.2   318  VAL318      0.2287
     51  O         27.9800  -13.3650  -14.2660 O.2   318  VAL318     -0.2864
     52  CB        30.6930  -14.1070  -12.4910 C.3   318  VAL318      0.0276
     53  CG1       30.9020  -14.6210  -13.9140 C.3   318  VAL318      0.0022
     54  CG2       31.9520  -13.3910  -12.0140 C.3   318  VAL318      0.0022
     55  N         26.1120  -10.5870  -13.7570 N.3   321  GLY321     -0.1210
     56  CA        26.7510   -9.7610  -14.7630 C.3   321  GLY321      0.1956
     57  C         26.6110  -10.3310  -16.1640 C.2   321  GLY321      0.2612
     58  O         26.2950   -9.6130  -17.1010 O.2   321  GLY321     -0.2717
     59  N         26.8350  -11.6310  -16.3000 N.am  322  CYS322     -0.1970
     60  CA        26.6480  -12.3160  -17.5800 C.3   322  CYS322      0.1712
     61  C         25.2020  -12.3390  -18.0780 C.2   322  CYS322      0.2296
     62  O         24.9540  -12.2860  -19.2830 O.2   322  CYS322     -0.2864
     63  CB        27.1620  -13.7520  -17.4830 C.3   322  CYS322      0.0983
     64  SG        28.9370  -13.8250  -17.5020 S.3   322  CYS322     -0.0798
     65  N         23.0800   -9.9370  -17.4550 N.3   324  LEU324     -0.1231
     66  CA        22.9380   -8.5730  -17.9650 C.3   324  LEU324      0.1693
     67  C         23.6160   -8.3690  -19.3420 C.2   324  LEU324      0.2591
     68  O         23.0180   -7.7790  -20.2480 O.2   324  LEU324     -0.2718
     69  CB        23.4870   -7.5730  -16.9400 C.3   324  LEU324      0.0284
     70  CG        22.6550   -7.4430  -15.6580 C.3   324  LEU324      0.0019
     71  CD1       23.4390   -6.7080  -14.5930 C.3   324  LEU324      0.0001
     72  CD2       21.3200   -6.7380  -15.9240 C.3   324  LEU324      0.0001
     73  N         24.8470   -8.8540  -19.5010 N.am  325  LEU325     -0.1980
     74  CA        25.5110   -8.8150  -20.8030 C.3   325  LEU325      0.1596
     75  C         24.6900   -9.5360  -21.8700 C.2   325  LEU325      0.2287
     76  O         24.6020   -9.0820  -23.0100 O.2   325  LEU325     -0.2864
     77  CB        26.8960   -9.4550  -20.7310 C.3   325  LEU325      0.0297
     78  CG        28.0250   -8.7210  -20.0250 C.3   325  LEU325      0.0022
     79  CD1       29.2770   -9.6030  -20.0040 C.3   325  LEU325      0.0001
     80  CD2       28.2960   -7.3880  -20.7210 C.3   325  LEU325      0.0001
@<TRIPOS>BOND
     1    20    19    2
     2    76    75    2
     3    19    18    1
     4    75    74    1
     5    18    21    1
     6    18    17    1
     7    74    77    1
     8    74    73    1
     9    77    78    1
    10    80    78    1
    11    21    22    1
    12    35    33    1
    13    68    67    2
    14    33    32    1
    15    24    22   ar
    16    24    26   ar
    17    78    79    1
    18    28    29    1
    19    22    23   ar
    20    73    67   am
    21    67    66    1
    22    62    61    2
    23    26    27   ar
    24    32    29    1
    25    32    34    1
    26    29    30    1
    27    23    25   ar
    28    61    60    1
    29    66    65    1
    30    66    69    1
    31    27    25   ar
    32    60    63    1
    33    60    59    1
    34    64    63    1
    35    30    31    2
    36    12    11    2
    37    58    57    2
    38    69    70    1
    39    11    10    1
    40    59    57   am
    41    57    56    1
    42    72    70    1
    43    70    71    1
    44    10    13    1
    45    10     9    1
    46    56    55    1
    47    13    14    1
    48    51    50    2
    49    16    14    1
    50    53    52    1
    51    14    15    1
    52    50    49    1
    53    52    49    1
    54    52    54    1
    55    49    48    1
    56    39    38    2
    57     4     3    2
    58    48    38   am
    59    38    37    1
    60     3     2    1
    61     7     6    1
    62    37    40    1
    63    37    36    1
    64     6     5    1
    65     6     8    1
    66     2     5    1
    67     2     1    1
    68    40    41    1
    69    41    42   ar
    70    41    43   ar
    71    42    44   ar
    72    43    45   ar
    73    44    46   ar
    74    45    46   ar
    75    46    47    1
