@<TRIPOS>MOLECULE
tmp/5aynA01.pdb
 106 102 0 0 0
SMALL
GASTEIGER

@<TRIPOS>ATOM
      1  N         -8.8690   -8.1430   -4.5880 N.3    33  PHE33      -0.1228
      2  CA        -8.9430   -9.5020   -4.0470 C.3    33  PHE33       0.1721
      3  C         -7.7380   -9.7870   -3.1670 C.2    33  PHE33       0.2437
      4  O         -6.9020  -10.6040   -3.5330 O.2    33  PHE33      -0.2733
      5  CB        -9.0010  -10.5460   -5.1640 C.3    33  PHE33       0.0547
      6  CG       -10.0830  -10.3090   -6.1590 C.ar   33  PHE33      -0.0202
      7  CD1      -11.3700  -10.7480   -5.9160 C.ar   33  PHE33      -0.0042
      8  CD2       -9.8140   -9.6470   -7.3420 C.ar   33  PHE33      -0.0042
      9  CE1      -12.3780  -10.5270   -6.8390 C.ar   33  PHE33      -0.0003
     10  CE2      -10.8120   -9.4260   -8.2680 C.ar   33  PHE33      -0.0003
     11  CZ       -12.1020   -9.8660   -8.0110 C.ar   33  PHE33      -0.0000
     12  N         -7.6640   -9.1310   -1.9980 N.am   34  PRO34      -0.2729
     13  CA        -6.4320   -9.0530   -1.2060 C.3    34  PRO34       0.1401
     14  C         -5.8280  -10.4230   -0.9310 C.2    34  PRO34       0.2269
     15  O         -6.5520  -11.3740   -0.6440 O.2    34  PRO34      -0.2865
     16  CB        -6.8880   -8.3780    0.0910 C.3    34  PRO34       0.0296
     17  CG        -8.1590   -7.6930   -0.2590 C.3    34  PRO34       0.0237
     18  CD        -8.8180   -8.5850   -1.2620 C.3    34  PRO34       0.0939
     19  N         -4.9060  -12.7810   -2.7880 N.3    36  LYS36      -0.1245
     20  CA        -5.1300  -13.8500   -3.7600 C.3    36  LYS36       0.1561
     21  C         -4.3250  -13.6710   -5.0370 C.2    36  LYS36       0.2260
     22  O         -4.8420  -13.1960   -6.0500 O.2    36  LYS36      -0.2867
     23  CB        -6.6170  -13.9500   -4.0910 C.3    36  LYS36       0.0271
     24  CG        -7.5010  -13.9880   -2.8570 C.3    36  LYS36       0.0035
     25  CD        -6.9680  -14.9920   -1.8460 C.3    36  LYS36       0.0206
     26  CE        -7.5860  -14.8020   -0.4790 C.3    36  LYS36       0.1093
     27  NZ        -6.9790  -15.7510    0.5050 N.3    36  LYS36      -0.1314
     28  N         -5.6070  -15.0050   -8.3440 N.3    39  VAL39      -0.1245
     29  CA        -6.5600  -14.2490   -9.1510 C.3    39  VAL39       0.1561
     30  C         -5.8440  -13.4400  -10.2300 C.2    39  VAL39       0.2260
     31  O         -6.2410  -13.4760  -11.4010 O.2    39  VAL39      -0.2867
     32  CB        -7.4280  -13.3100   -8.2840 C.3    39  VAL39       0.0252
     33  CG1       -8.2050  -12.3750   -9.1480 C.3    39  VAL39       0.0019
     34  CG2       -8.3820  -14.1210   -7.4310 C.3    39  VAL39       0.0019
     35  N         -4.6730  -15.8220  -12.8060 N.3    42  PHE42      -0.1241
     36  CA        -5.8000  -16.2400  -13.6130 C.3    42  PHE42       0.1605
     37  C         -6.1270  -15.2040  -14.7030 C.2    42  PHE42       0.2264
     38  O         -6.4070  -15.5740  -15.8490 O.2    42  PHE42      -0.2867
     39  CB        -7.0150  -16.4840  -12.7160 C.3    42  PHE42       0.0534
     40  CG        -8.1090  -17.2670  -13.3760 C.ar   42  PHE42      -0.0203
     41  CD1       -7.8230  -18.1530  -14.3990 C.ar   42  PHE42      -0.0042
     42  CD2       -9.4230  -17.1170  -12.9710 C.ar   42  PHE42      -0.0042
     43  CE1       -8.8350  -18.8790  -15.0100 C.ar   42  PHE42      -0.0003
     44  CE2      -10.4370  -17.8330  -13.5810 C.ar   42  PHE42      -0.0003
     45  CZ       -10.1420  -18.7140  -14.6020 C.ar   42  PHE42      -0.0000
     46  N         -6.0190  -15.8870  -18.8420 N.3    46  ILE46      -0.1245
     47  CA        -7.1420  -15.7270  -19.7530 C.3    46  ILE46       0.1561
     48  C         -6.7770  -14.8120  -20.9250 C.2    46  ILE46       0.2260
     49  O         -7.1050  -15.0940  -22.0800 O.2    46  ILE46      -0.2867
     50  CB        -8.3740  -15.1690  -19.0130 C.3    46  ILE46       0.0252
     51  CG1       -8.8740  -16.1920  -17.9860 C.3    46  ILE46       0.0019
     52  CG2       -9.5030  -14.8070  -19.9940 C.3    46  ILE46       0.0019
     53  CD1       -9.8680  -15.6030  -16.9820 C.3    46  ILE46       0.0001
     54  N        -18.7800  -10.6570   -1.5020 N.3   101  ARG101     -0.1231
     55  CA       -17.8670  -11.7940   -1.4720 C.3   101  ARG101      0.1694
     56  C        -18.1420  -12.6510   -2.7000 C.2   101  ARG101      0.2591
     57  O        -18.8830  -12.2390   -3.5890 O.2   101  ARG101     -0.2718
     58  CB       -18.0410  -12.6080   -0.1830 C.3   101  ARG101      0.0321
     59  CG       -17.6770  -11.8370    1.1010 C.3   101  ARG101      0.0489
     60  CD       -16.1880  -11.8290    1.2290 C.3   101  ARG101      0.2205
     61  NE       -15.6210  -11.1440    2.3880 N.pl3 101  ARG101     -0.0865
     62  CZ       -15.6130   -9.8200    2.5580 C.cat 101  ARG101      0.5346
     63  NH1      -16.1310   -8.9770    1.6530 N.pl3 101  ARG101      0.1354
     64  NH2      -15.0590   -9.3400    3.6690 N.pl3 101  ARG101      0.1354
     65  N        -17.5710  -13.8450   -2.7340 N.am  102  GLU102     -0.1979
     66  CA       -17.6350  -14.6990   -3.9080 C.3   102  GLU102      0.1602
     67  C        -19.0730  -14.9260   -4.3450 C.2   102  GLU102      0.2287
     68  O        -19.9190  -15.3220   -3.5560 O.2   102  GLU102     -0.2864
     69  CB       -16.9440  -16.0430   -3.6370 C.3   102  GLU102      0.0415
     70  CG       -16.8490  -16.9640   -4.8370 C.3   102  GLU102      0.1163
     71  CD       -15.9610  -16.4150   -5.9370 C.2   102  GLU102      0.3649
     72  OE1      -15.0050  -15.6690   -5.6130 O.co2 102  GLU102     -0.2457
     73  OE2      -16.2250  -16.7250   -7.1210 O.co2 102  GLU102     -0.2457
     74  N        -19.9530  -11.2380   -8.9280 N.3   106  LEU106     -0.1231
     75  CA       -18.5440  -10.9100   -8.8330 C.3   106  LEU106      0.1693
     76  C        -17.7100  -11.6960   -9.8680 C.2   106  LEU106      0.2592
     77  O        -16.8230  -11.1340  -10.5130 O.2   106  LEU106     -0.2718
     78  CB       -18.0690  -11.1800   -7.4090 C.3   106  LEU106      0.0284
     79  CG       -16.8520  -10.4390   -6.8880 C.3   106  LEU106      0.0019
     80  CD1      -16.9320  -10.3330   -5.3750 C.3   106  LEU106      0.0001
     81  CD2      -15.6380  -11.2190   -7.2880 C.3   106  LEU106      0.0001
     82  N        -17.9930  -12.9890  -10.0260 N.am  107  SER107     -0.1952
     83  CA       -17.3160  -13.7950  -11.0430 C.3   107  SER107      0.1924
     84  C        -17.5640  -13.2600  -12.4530 C.2   107  SER107      0.2314
     85  O        -16.6410  -13.1370  -13.2530 O.2   107  SER107     -0.2863
     86  CB       -17.7650  -15.2500  -10.9710 C.3   107  SER107      0.2116
     87  OG       -17.0960  -15.9300   -9.9320 O.3   107  SER107     -0.2180
     88  N        -15.4830  -10.2920  -13.1580 N.3   110  PHE110     -0.1227
     89  CA       -14.0830  -10.6470  -13.3600 C.3   110  PHE110      0.1736
     90  C        -13.8430  -11.1610  -14.7790 C.2   110  PHE110      0.2595
     91  O        -12.8330  -10.8330  -15.4150 O.2   110  PHE110     -0.2718
     92  CB       -13.6120  -11.7020  -12.3430 C.3   110  PHE110      0.0547
     93  CG       -12.1910  -12.1340  -12.5640 C.ar  110  PHE110     -0.0202
     94  CD1      -11.1470  -11.3630  -12.1000 C.ar  110  PHE110     -0.0042
     95  CD2      -11.9010  -13.2780  -13.2910 C.ar  110  PHE110     -0.0042
     96  CE1       -9.8430  -11.7330  -12.3360 C.ar  110  PHE110     -0.0003
     97  CE2      -10.5870  -13.6520  -13.5310 C.ar  110  PHE110     -0.0003
     98  CZ        -9.5640  -12.8780  -13.0480 C.ar  110  PHE110     -0.0000
     99  N        -14.7620  -11.9840  -15.2580 N.am  111  ILE111     -0.1980
    100  CA       -14.6750  -12.5250  -16.6080 C.3   111  ILE111      0.1595
    101  C        -14.7840  -11.3880  -17.6300 C.2   111  ILE111      0.2287
    102  O        -14.0470  -11.3530  -18.6140 O.2   111  ILE111     -0.2864
    103  CB       -15.7710  -13.5830  -16.8550 C.3   111  ILE111      0.0276
    104  CG1      -15.5410  -14.7940  -15.9530 C.3   111  ILE111      0.0022
    105  CG2      -15.8210  -14.0050  -18.3580 C.3   111  ILE111      0.0022
    106  CD1      -16.7100  -15.7310  -15.9150 C.3   111  ILE111      0.0001
@<TRIPOS>BOND
     1    49    48    2
     2    48    47    1
     3    52    50    1
     4    47    50    1
     5    47    46    1
     6    50    51    1
     7   102   101    2
     8   105   103    1
     9    51    53    1
    10   101   100    1
    11   103   100    1
    12   103   104    1
    13   100    99    1
    14   104   106    1
    15    38    37    2
    16    91    90    2
    17    99    90   am
    18    43    45   ar
    19    43    41   ar
    20    90    89    1
    21    37    36    1
    22    45    44   ar
    23    41    40   ar
    24    36    35    1
    25    36    39    1
    26    44    42   ar
    27    97    95   ar
    28    97    98   ar
    29    40    42   ar
    30    40    39    1
    31    89    88    1
    32    89    92    1
    33    95    93   ar
    34    85    84    2
    35    98    96   ar
    36    93    92    1
    37    93    94   ar
    38    84    83    1
    39    96    94   ar
    40    31    30    2
    41    83    86    1
    42    83    82    1
    43    86    87    1
    44    77    76    2
    45    30    29    1
    46    82    76   am
    47    76    75    1
    48    29    28    1
    49    29    32    1
    50    33    32    1
    51    74    75    1
    52    75    78    1
    53    32    34    1
    54    10    11   ar
    55    10     8   ar
    56    11     9   ar
    57    78    79    1
    58     8     6   ar
    59    81    79    1
    60    73    71   ar
    61    79    80    1
    62     9     7   ar
    63     6     7   ar
    64     6     5    1
    65    22    21    2
    66    71    72   ar
    67    71    70    1
    68     5     2    1
    69    21    20    1
    70    70    69    1
    71     1     2    1
    72    67    66    1
    73    67    68    2
    74    23    20    1
    75    23    24    1
    76     2     3    1
    77    66    69    1
    78    66    65    1
    79    20    19    1
    80    57    56    2
    81     4     3    2
    82     3    12   am
    83    24    25    1
    84    65    56   am
    85    56    55    1
    86    12    18    1
    87    12    13    1
    88    25    26    1
    89    54    55    1
    90    55    58    1
    91    18    17    1
    92    13    14    1
    93    13    16    1
    94    14    15    2
    95    26    27    1
    96    17    16    1
    97    58    59    1
    98    59    60    1
    99    60    61    1
   100    63    62    1
   101    61    62    2
   102    62    64    1
