@<TRIPOS>MOLECULE
tmp/5aynA02.pdb
 97 92 0 0 0
SMALL
GASTEIGER

@<TRIPOS>ATOM
      1  N         21.1110   -2.4250  -20.4350 N.3   269  PHE269     -0.1241
      2  CA        21.8050   -3.2990  -21.3560 C.3   269  PHE269      0.1605
      3  C         20.9770   -3.4720  -22.6180 C.2   269  PHE269      0.2264
      4  O         21.5290   -3.5780  -23.7230 O.2   269  PHE269     -0.2867
      5  CB        22.1540   -4.6160  -20.6530 C.3   269  PHE269      0.0534
      6  CG        23.2960   -4.4610  -19.6820 C.ar  269  PHE269     -0.0203
      7  CD1       23.0720   -3.9790  -18.3940 C.ar  269  PHE269     -0.0042
      8  CD2       24.5980   -4.7000  -20.0850 C.ar  269  PHE269     -0.0042
      9  CE1       24.1260   -3.7910  -17.5070 C.ar  269  PHE269     -0.0003
     10  CE2       25.6510   -4.5150  -19.2100 C.ar  269  PHE269     -0.0003
     11  CZ        25.4140   -4.0550  -17.9180 C.ar  269  PHE269     -0.0000
     12  N         21.9110   -0.5970  -24.7170 N.3   272  ILE272     -0.1245
     13  CA        23.2310   -0.7530  -25.3180 C.3   272  ILE272      0.1561
     14  C         23.1660   -1.4800  -26.6610 C.2   272  ILE272      0.2260
     15  O         23.9560   -1.1920  -27.5650 O.2   272  ILE272     -0.2867
     16  CB        24.1800   -1.5090  -24.3690 C.3   272  ILE272      0.0252
     17  CG1       24.5030   -0.6400  -23.1530 C.3   272  ILE272      0.0019
     18  CG2       25.4600   -1.9300  -25.0920 C.3   272  ILE272      0.0019
     19  CD1       24.9940   -1.4270  -21.9520 C.3   272  ILE272      0.0001
     20  N         25.0690   -1.1490  -30.3540 N.3   276  SER276     -0.1217
     21  CA        25.9080   -2.2530  -30.8210 C.3   276  SER276      0.1889
     22  C         25.3420   -2.9590  -32.0560 C.2   276  SER276      0.2288
     23  O         26.0710   -3.2660  -32.9970 O.2   276  SER276     -0.2866
     24  CB        26.1200   -3.2830  -29.6980 C.3   276  SER276      0.2089
     25  OG        24.9480   -4.0440  -29.4520 O.3   276  SER276     -0.2183
     26  N         27.0350   -3.0840  -35.8790 N.3   280  LEU280     -0.1245
     27  CA        27.5110   -4.2980  -36.5400 C.3   280  LEU280      0.1561
     28  C         26.8140   -4.5170  -37.8660 C.2   280  LEU280      0.2260
     29  O         27.4080   -5.0730  -38.7780 O.2   280  LEU280     -0.2867
     30  CB        27.3260   -5.5330  -35.6600 C.3   280  LEU280      0.0270
     31  CG        28.4240   -5.8250  -34.6340 C.3   280  LEU280      0.0019
     32  CD1       28.2050   -7.2080  -34.0390 C.3   280  LEU280      0.0001
     33  CD2       29.8240   -5.7100  -35.2350 C.3   280  LEU280      0.0001
     34  N         28.8640   -5.4630  -40.8550 N.3   284  LEU284     -0.1245
     35  CA        28.8540   -6.8700  -41.2710 C.3   284  LEU284      0.1561
     36  C         27.5740   -7.2860  -41.9920 C.2   284  LEU284      0.2260
     37  O         27.4970   -8.3830  -42.5380 O.2   284  LEU284     -0.2867
     38  CB        29.0470   -7.7800  -40.0630 C.3   284  LEU284      0.0270
     39  CG        30.1190   -7.3500  -39.0680 C.3   284  LEU284      0.0019
     40  CD1       30.0090   -8.1900  -37.8030 C.3   284  LEU284      0.0001
     41  CD2       31.4890   -7.5000  -39.7240 C.3   284  LEU284      0.0001
     42  N         24.7670  -11.2550  -40.2930 N.3   288  SER288     -0.1217
     43  CA        25.9640  -11.4230  -39.4830 C.3   288  SER288      0.1889
     44  C         25.8560  -10.7470  -38.1130 C.2   288  SER288      0.2288
     45  O         26.3260  -11.2940  -37.1070 O.2   288  SER288     -0.2866
     46  CB        27.1800  -10.8820  -40.2450 C.3   288  SER288      0.2089
     47  OG        28.3650  -11.0080  -39.4790 O.3   288  SER288     -0.2183
     48  N         25.9900  -12.7050  -34.5270 N.3   292  TRP292     -0.1227
     49  CA        26.9490  -12.3560  -33.5010 C.3   292  TRP292      0.1737
     50  C         26.2350  -12.0560  -32.1890 C.2   292  TRP292      0.2595
     51  O         26.6610  -12.5180  -31.1450 O.2   292  TRP292     -0.2718
     52  CB        27.8130  -11.1680  -33.9340 C.3   292  TRP292      0.0564
     53  CG        29.0130  -11.5820  -34.7330 C.ar  292  TRP292      0.0003
     54  CD1       29.1690  -11.4990  -36.0900 C.ar  292  TRP292      0.0946
     55  CD2       30.2250  -12.1630  -34.2260 C.ar  292  TRP292      0.0152
     56  NE1       30.4080  -11.9840  -36.4570 N.ar  292  TRP292     -0.2442
     57  CE2       31.0740  -12.3980  -35.3340 C.ar  292  TRP292      0.0810
     58  CE3       30.6780  -12.5020  -32.9460 C.ar  292  TRP292      0.0012
     59  CZ2       32.3460  -12.9580  -35.1980 C.ar  292  TRP292      0.0191
     60  CZ3       31.9480  -13.0580  -32.8130 C.ar  292  TRP292      0.0001
     61  CH2       32.7650  -13.2790  -33.9330 C.ar  292  TRP292      0.0015
     62  N         25.1270  -11.3240  -32.2410 N.am  293  HIS293     -0.1975
     63  CA        24.4240  -10.9790  -31.0050 C.3   293  HIS293      0.1656
     64  C         23.7920  -12.2040  -30.3320 C.2   293  HIS293      0.2291
     65  O         23.8970  -12.3740  -29.1170 O.2   293  HIS293     -0.2864
     66  CB        23.3740   -9.9090  -31.2710 C.3   293  HIS293      0.0771
     67  CG        23.9350   -8.5210  -31.2830 C.ar  293  HIS293      0.0820
     68  ND1       24.7240   -8.0440  -32.3120 N.ar  293  HIS293     -0.2267
     69  CD2       23.8420   -7.5130  -30.3820 C.ar  293  HIS293      0.1154
     70  CE1       25.0690   -6.7940  -32.0550 C.ar  293  HIS293      0.1986
     71  NE2       24.5600   -6.4520  -30.8830 N.ar  293  HIS293     -0.2212
     72  N         26.4950  -14.1240  -28.8160 N.3   296  PHE296     -0.1241
     73  CA        26.9320  -13.4380  -27.5960 C.3   296  PHE296      0.1605
     74  C         26.0080  -13.7890  -26.4240 C.2   296  PHE296      0.2264
     75  O         26.4670  -14.0480  -25.3100 O.2   296  PHE296     -0.2867
     76  CB        26.9720  -11.9290  -27.8270 C.3   296  PHE296      0.0534
     77  CG        27.5090  -11.1380  -26.6610 C.ar  296  PHE296     -0.0203
     78  CD1       28.8740  -11.0890  -26.4030 C.ar  296  PHE296     -0.0042
     79  CD2       26.6590  -10.4190  -25.8490 C.ar  296  PHE296     -0.0042
     80  CE1       29.3660  -10.3490  -25.3350 C.ar  296  PHE296     -0.0003
     81  CE2       27.1440   -9.6760  -24.7820 C.ar  296  PHE296     -0.0003
     82  CZ        28.4960   -9.6390  -24.5240 C.ar  296  PHE296     -0.0000
     83  N         24.8470   -8.8540  -19.5010 N.3   325  LEU325     -0.1245
     84  CA        25.5110   -8.8150  -20.8030 C.3   325  LEU325      0.1561
     85  C         24.6900   -9.5360  -21.8700 C.2   325  LEU325      0.2260
     86  O         24.6020   -9.0820  -23.0100 O.2   325  LEU325     -0.2867
     87  CB        26.8960   -9.4550  -20.7310 C.3   325  LEU325      0.0270
     88  CG        28.0250   -8.7210  -20.0250 C.3   325  LEU325      0.0019
     89  CD1       29.2770   -9.6030  -20.0040 C.3   325  LEU325      0.0001
     90  CD2       28.2960   -7.3880  -20.7210 C.3   325  LEU325      0.0001
     91  N         22.1650   -7.6910  -24.0170 N.3   328  VAL328     -0.1245
     92  CA        22.6240   -7.0010  -25.2300 C.3   328  VAL328      0.1561
     93  C         22.4330   -7.9320  -26.4230 C.2   328  VAL328      0.2260
     94  O         21.9100   -7.5430  -27.4570 O.2   328  VAL328     -0.2867
     95  CB        24.1120   -6.5660  -25.1670 C.3   328  VAL328      0.0252
     96  CG1       24.4980   -5.8030  -26.4220 C.3   328  VAL328      0.0019
     97  CG2       24.3780   -5.7230  -23.9450 C.3   328  VAL328      0.0019
@<TRIPOS>BOND
     1    37    36    2
     2    36    35    1
     3    35    34    1
     4    35    38    1
     5    42    43    1
     6    46    43    1
     7    46    47    1
     8    38    39    1
     9    41    39    1
    10    43    44    1
    11    39    40    1
    12    29    28    2
    13    44    45    2
    14    28    27    1
    15    27    26    1
    16    27    30    1
    17    56    54   ar
    18    56    57   ar
    19    54    53   ar
    20    30    31    1
    21    57    59   ar
    22    57    55   ar
    23    33    31    1
    24    59    61   ar
    25    53    55   ar
    26    53    52    1
    27    31    32    1
    28    48    49    1
    29    55    58   ar
    30    52    49    1
    31    61    60   ar
    32    49    50    1
    33    23    22    2
    34    58    60   ar
    35    68    70   ar
    36    68    67   ar
    37    62    50   am
    38    62    63    1
    39    50    51    2
    40    22    21    1
    41    70    71   ar
    42    67    66    1
    43    67    69   ar
    44    66    63    1
    45    63    64    1
    46    71    69   ar
    47    21    20    1
    48    21    24    1
    49    64    65    2
    50    24    25    1
    51    72    73    1
    52    76    73    1
    53    76    77    1
    54    73    74    1
    55    15    14    2
    56    94    93    2
    57    77    78   ar
    58    77    79   ar
    59    14    13    1
    60    74    75    2
    61    93    92    1
    62    96    95    1
    63    78    80   ar
    64    79    81   ar
    65    80    82   ar
    66    13    12    1
    67    13    16    1
    68    92    95    1
    69    92    91    1
    70    95    97    1
    71    18    16    1
    72    81    82   ar
    73    16    17    1
    74     4     3    2
    75    17    19    1
    76    86    85    2
    77     3     2    1
    78    85    84    1
    79     2     5    1
    80     2     1    1
    81    84    87    1
    82    84    83    1
    83    87    88    1
    84    90    88    1
    85     5     6    1
    86     8     6   ar
    87     8    10   ar
    88    88    89    1
    89     6     7   ar
    90    10    11   ar
    91     7     9   ar
    92    11     9   ar
