@<TRIPOS>MOLECULE
tmp/5aytB00.pdb
 81 72 0 0 0
SMALL
GASTEIGER

@<TRIPOS>ATOM
      1  N        -19.3740   11.1350  -32.9690 N.3     4  MET4       -0.1245
      2  CA       -20.5990   10.3750  -33.1520 C.3     4  MET4        0.1570
      3  C        -21.0650   10.0930  -31.7350 C.2     4  MET4        0.2261
      4  O        -20.2470    9.8490  -30.8630 O.2     4  MET4       -0.2867
      5  CB       -20.3650    9.0600  -33.9200 C.3     4  MET4        0.0387
      6  CG       -21.6560    8.3540  -34.3040 C.3     4  MET4        0.0595
      7  SD       -22.2920    7.1220  -33.1370 S.3     4  MET4       -0.1393
      8  CE       -21.4000    5.6840  -33.7330 C.3     4  MET4        0.0692
      9  N        -23.7680    7.5710  -29.5230 N.3     6  LYS6       -0.1245
     10  CA       -24.6300    6.3950  -29.6080 C.3     6  LYS6        0.1561
     11  C        -25.3090    6.0920  -28.2770 C.2     6  LYS6        0.2260
     12  O        -24.6290    6.1120  -27.2490 O.2     6  LYS6       -0.2867
     13  CB       -23.8430    5.1450  -30.0770 C.3     6  LYS6        0.0271
     14  CG       -24.7480    3.9210  -30.2710 C.3     6  LYS6        0.0035
     15  CD       -24.0260    2.7950  -31.0290 C.3     6  LYS6        0.0206
     16  CE       -24.9820    1.6620  -31.4430 C.3     6  LYS6        0.1093
     17  NZ       -24.4050    0.9380  -32.6340 N.3     6  LYS6       -0.1314
     18  N        -27.9980    3.6950  -25.9510 N.3     8  LEU8       -0.1245
     19  CA       -28.6770    2.3960  -25.7870 C.3     8  LEU8        0.1561
     20  C        -29.5800    2.3920  -24.5670 C.2     8  LEU8        0.2260
     21  O        -29.2940    3.0890  -23.5780 O.2     8  LEU8       -0.2867
     22  CB       -27.6320    1.3070  -25.5550 C.3     8  LEU8        0.0270
     23  CG       -26.7960    0.8330  -26.7590 C.3     8  LEU8        0.0019
     24  CD1      -27.7020    0.6320  -27.9690 C.3     8  LEU8        0.0001
     25  CD2      -25.6400    1.7960  -27.0640 C.3     8  LEU8        0.0001
     26  N        -28.0590    6.2200  -33.0200 N.3    45  GLU45      -0.1245
     27  CA       -26.8410    6.9120  -33.3750 C.3    45  GLU45       0.1567
     28  C        -27.0970    8.3140  -33.8990 C.2    45  GLU45       0.2260
     29  O        -28.1520    8.5920  -34.4720 O.2    45  GLU45      -0.2867
     30  CB       -26.0870    6.1290  -34.4640 C.3    45  GLU45       0.0388
     31  CG       -25.5630    4.7720  -33.9950 C.3    45  GLU45       0.1160
     32  CD       -24.7860    3.9740  -35.0300 C.2    45  GLU45       0.3649
     33  OE1      -24.4760    4.4800  -36.1320 O.co2  45  GLU45      -0.2457
     34  OE2      -24.4370    2.8200  -34.7230 O.co2  45  GLU45      -0.2457
     35  N        -16.2680    8.2600  -30.5580 N.3    97  THR97      -0.1218
     36  CA       -17.6430    7.7510  -30.3780 C.3    97  THR97       0.1862
     37  C        -17.9560    7.8810  -28.9060 C.2    97  THR97       0.2287
     38  O        -17.2340    7.3260  -28.0960 O.2    97  THR97      -0.2866
     39  CB       -17.8090    6.3070  -30.8430 C.3    97  THR97       0.1770
     40  OG1      -17.6490    6.2870  -32.2640 O.3    97  THR97      -0.2211
     41  CG2      -19.1940    5.7290  -30.4880 C.3    97  THR97       0.0375
     42  N        -20.5420    6.7780  -26.2790 N.3    99  ALA99      -0.1245
     43  CA       -21.6290    5.8700  -26.1070 C.3    99  ALA99       0.1562
     44  C        -22.2240    6.0430  -24.7510 C.2    99  ALA99       0.2260
     45  O        -21.4740    6.2860  -23.7910 O.2    99  ALA99      -0.2867
     46  CB       -21.1260    4.4410  -26.2550 C.3    99  ALA99       0.0290
     47  N        -25.1510    4.2040  -22.0890 N.3   101  LEU101     -0.1245
     48  CA       -26.1170    3.1360  -21.8080 C.3   101  LEU101      0.1561
     49  C        -27.0060    3.5940  -20.6730 C.2   101  LEU101      0.2260
     50  O        -26.5190    3.9500  -19.5720 O.2   101  LEU101     -0.2867
     51  CB       -25.3820    1.8570  -21.3920 C.3   101  LEU101      0.0270
     52  CG       -26.2310    0.6840  -20.9490 C.3   101  LEU101      0.0019
     53  CD1      -26.9970    0.1440  -22.1330 C.3   101  LEU101      0.0001
     54  CD2      -25.2720   -0.3430  -20.3570 C.3   101  LEU101      0.0001
     55  N        -24.1820    4.7980  -17.8780 N.3   108  SER108     -0.1202
     56  CA       -22.7530    4.7440  -18.0620 C.3   108  SER108      0.2020
     57  C        -22.4100    5.4240  -19.3870 C.2   108  SER108      0.2619
     58  O        -23.2310    5.4330  -20.3300 O.2   108  SER108     -0.2717
     59  CB       -22.2050    3.3200  -18.0620 C.3   108  SER108      0.2103
     60  OG       -22.6820    2.6620  -19.1840 O.3   108  SER108     -0.2182
     61  N        -21.1990    5.9650  -19.4500 N.am  109  THR109     -0.1938
     62  CA       -20.7670    6.5590  -20.6850 C.3   109  THR109      0.2028
     63  C        -19.3400    6.1080  -20.9480 C.2   109  THR109      0.2642
     64  O        -18.5560    5.9580  -20.0140 O.2   109  THR109     -0.2714
     65  CB       -20.9730    8.0460  -20.7110 C.3   109  THR109      0.1808
     66  OG1      -20.6340    8.4860  -22.0270 O.3   109  THR109     -0.2208
     67  CG2      -20.0850    8.8100  -19.6700 C.3   109  THR109      0.0379
     68  N        -19.0140    5.8710  -22.2110 N.am  110  THR110     -0.1950
     69  CA       -17.7120    5.3690  -22.5890 C.3   110  THR110      0.1897
     70  C        -17.2810    6.1120  -23.8440 C.2   110  THR110      0.2313
     71  O        -18.1180    6.4330  -24.6600 O.2   110  THR110     -0.2863
     72  CB       -17.8620    3.8760  -22.8820 C.3   110  THR110      0.1794
     73  OG1      -18.2860    3.2250  -21.6770 O.3   110  THR110     -0.2208
     74  CG2      -16.6030    3.2310  -23.4040 C.3   110  THR110      0.0378
     75  N        -14.9340    5.7650  -27.2230 N.3   112  VAL112     -0.1245
     76  CA       -14.0830    4.9470  -28.1060 C.3   112  VAL112      0.1561
     77  C        -13.3870    5.9440  -29.0390 C.2   112  VAL112      0.2260
     78  O        -14.0690    6.6830  -29.7890 O.2   112  VAL112     -0.2867
     79  CB       -14.9440    3.9500  -28.8850 C.3   112  VAL112      0.0252
     80  CG1      -14.0810    3.0970  -29.7910 C.3   112  VAL112      0.0019
     81  CG2      -15.6990    3.0660  -27.8980 C.3   112  VAL112      0.0019
@<TRIPOS>BOND
     1    33    32   ar
     2    32    34   ar
     3    32    31    1
     4    29    28    2
     5    30    31    1
     6    30    27    1
     7     6     5    1
     8     6     7    1
     9     5     2    1
    10    28    27    1
    11     8     7    1
    12    27    26    1
    13     2     1    1
    14     2     3    1
    15    17    16    1
    16    40    39    1
    17     3     4    2
    18    16    15    1
    19    15    14    1
    20    39    41    1
    21    39    36    1
    22    35    36    1
    23    36    37    1
    24    14    13    1
    25    13    10    1
    26    80    79    1
    27    78    77    2
    28    10     9    1
    29    10    11    1
    30    77    76    1
    31    37    38    2
    32    79    76    1
    33    79    81    1
    34    11    12    2
    35    76    75    1
    36    24    23    1
    37    25    23    1
    38    23    22    1
    39    42    43    1
    40    46    43    1
    41    43    44    1
    42    18    19    1
    43    19    22    1
    44    19    20    1
    45    44    45    2
    46    71    70    2
    47    20    21    2
    48    70    69    1
    49    74    72    1
    50    72    69    1
    51    72    73    1
    52    69    68    1
    53    68    63   am
    54    53    52    1
    55    47    48    1
    56    66    65    1
    57    48    51    1
    58    48    49    1
    59    51    52    1
    60    52    54    1
    61    63    62    1
    62    63    64    2
    63    65    62    1
    64    65    67    1
    65    62    61    1
    66    49    50    2
    67    58    57    2
    68    61    57   am
    69    57    56    1
    70    60    59    1
    71    56    59    1
    72    56    55    1
