@<TRIPOS>MOLECULE
tmp/5ayvB00.pdb
 209 198 0 0 0
SMALL
GASTEIGER

@<TRIPOS>ATOM
      1  N        -40.9210    3.0480  -21.2250 N.3     6  LEU6       -0.1231
      2  CA       -40.4210    1.6850  -21.1910 C.3     6  LEU6        0.1693
      3  C        -40.0120    1.3490  -19.7670 C.2     6  LEU6        0.2593
      4  O        -38.9570    1.7790  -19.2970 O.2     6  LEU6       -0.2718
      5  CB       -39.2460    1.5310  -22.1610 C.3     6  LEU6        0.0284
      6  CG       -38.6300    0.1530  -22.4050 C.3     6  LEU6        0.0019
      7  CD1      -39.6860   -0.8490  -22.8140 C.3     6  LEU6        0.0001
      8  CD2      -37.5570    0.2700  -23.4880 C.3     6  LEU6        0.0001
      9  N        -40.8750    0.6050  -19.0810 N.am    7  GLY7       -0.1942
     10  CA       -40.7150    0.3230  -17.6680 C.3     7  GLY7        0.2014
     11  C        -41.8790    0.9540  -16.9300 C.2     7  GLY7        0.2639
     12  O        -42.0180    2.1760  -16.9250 O.2     7  GLY7       -0.2714
     13  N        -42.7210    0.1230  -16.3200 N.am    8  ALA8       -0.1963
     14  CA       -43.9500    0.6050  -15.6940 C.3     8  ALA8        0.1728
     15  C        -43.8780    0.5130  -14.1760 C.2     8  ALA8        0.2617
     16  O        -44.9030    0.3750  -13.5040 O.2     8  ALA8       -0.2715
     17  CB       -45.1540   -0.1710  -16.2160 C.3     8  ALA8        0.0334
     18  N        -42.6600    0.5890  -13.6480 N.am    9  GLY9       -0.1940
     19  CA       -42.4500    0.6980  -12.2130 C.3     9  GLY9        0.2014
     20  C        -42.8950    2.0400  -11.6540 C.2     9  GLY9        0.2640
     21  O        -43.6410    2.7820  -12.2980 O.2     9  GLY9       -0.2714
     22  N        -42.4480    2.3560  -10.4410 N.am   10  SER10      -0.1935
     23  CA       -42.9110    3.5670   -9.7690 C.3    10  SER10       0.2055
     24  C        -42.6000    4.8440  -10.5530 C.2    10  SER10       0.2642
     25  O        -43.4870    5.6680  -10.7640 O.2    10  SER10      -0.2714
     26  CB       -42.3180    3.6460   -8.3490 C.3    10  SER10       0.2130
     27  OG       -40.9030    3.5820   -8.3640 O.3    10  SER10      -0.2179
     28  N        -41.3600    5.0070  -10.9980 N.am   11  ILE11      -0.1977
     29  CA       -40.9780    6.2550  -11.6580 C.3    11  ILE11       0.1596
     30  C        -41.5440    6.3310  -13.0740 C.2    11  ILE11       0.2287
     31  O        -42.0260    7.3850  -13.5000 O.2    11  ILE11      -0.2864
     32  CB       -39.4520    6.4350  -11.6880 C.3    11  ILE11       0.0276
     33  CG1      -38.9160    6.5260  -10.2570 C.3    11  ILE11       0.0022
     34  CG2      -39.0730    7.6940  -12.4710 C.3    11  ILE11       0.0022
     35  CD1      -39.4050    7.7460   -9.5020 C.3    11  ILE11       0.0001
     36  N        -45.0790    0.6030  -21.4280 N.3    29  ILE29      -0.1231
     37  CA       -44.6660   -0.7510  -21.7690 C.3    29  ILE29       0.1692
     38  C        -44.0650   -1.3880  -20.5280 C.2    29  ILE29       0.2593
     39  O        -43.0670   -0.9080  -20.0000 O.2    29  ILE29      -0.2718
     40  CB       -43.6420   -0.7640  -22.9180 C.3    29  ILE29       0.0266
     41  CG1      -44.1830    0.0080  -24.1220 C.3    29  ILE29       0.0019
     42  CG2      -43.2910   -2.1960  -23.3080 C.3    29  ILE29       0.0020
     43  CD1      -43.1410    0.2900  -25.1850 C.3    29  ILE29       0.0001
     44  N        -44.6730   -2.4660  -20.0550 N.am   30  GLY30      -0.1942
     45  CA       -44.2060   -3.0850  -18.8300 C.3    30  GLY30       0.2014
     46  C        -44.6840   -4.5080  -18.6510 C.2    30  GLY30       0.2638
     47  O        -45.0670   -5.1750  -19.6130 O.2    30  GLY30      -0.2714
     48  N        -44.6610   -4.9650  -17.4030 N.am   31  ARG31      -0.1977
     49  CA       -44.9870   -6.3510  -17.0890 C.3    31  ARG31       0.1597
     50  C        -46.4940   -6.5550  -17.0000 C.2    31  ARG31       0.2287
     51  O        -47.2500   -5.6030  -16.7880 O.2    31  ARG31      -0.2864
     52  CB       -44.3090   -6.7770  -15.7860 C.3    31  ARG31       0.0334
     53  CG       -44.6890   -5.9430  -14.5710 C.3    31  ARG31       0.0492
     54  CD       -43.9220   -6.3950  -13.3350 C.3    31  ARG31       0.2205
     55  NE       -44.3120   -7.7280  -12.8800 N.pl3  31  ARG31      -0.0865
     56  CZ       -43.5200   -8.5350  -12.1780 C.cat  31  ARG31       0.5346
     57  NH1      -42.2890   -8.1470  -11.8700 N.pl3  31  ARG31       0.1354
     58  NH2      -43.9490   -9.7340  -11.7910 N.pl3  31  ARG31       0.1354
     59  N        -48.8840   -5.0330  -14.0450 N.3    34  GLN34      -0.1245
     60  CA       -49.0390   -3.5860  -14.0680 C.3    34  GLN34       0.1566
     61  C        -49.8700   -3.1680  -15.2740 C.2    34  GLN34       0.2260
     62  O        -50.7750   -2.3430  -15.1670 O.2    34  GLN34      -0.2867
     63  CB       -47.6700   -2.8950  -14.0930 C.3    34  GLN34       0.0367
     64  CG       -47.7280   -1.3730  -14.1350 C.3    34  GLN34       0.0905
     65  CD       -48.1660   -0.7520  -12.8170 C.2    34  GLN34       0.2608
     66  OE1      -48.7070   -1.4290  -11.9420 O.2    34  GLN34      -0.2717
     67  NE2      -47.9270    0.5460  -12.6700 N.am   34  GLN34      -0.0878
     68  N        -47.7680   -5.0680  -22.9580 N.3    59  ILE59      -0.1231
     69  CA       -46.5620   -5.8240  -22.6510 C.3    59  ILE59       0.1692
     70  C        -45.6490   -5.8980  -23.8710 C.2    59  ILE59       0.2592
     71  O        -44.5010   -6.3280  -23.7650 O.2    59  ILE59      -0.2718
     72  CB       -46.8880   -7.2520  -22.1690 C.3    59  ILE59       0.0266
     73  CG1      -47.6740   -8.0080  -23.2370 C.3    59  ILE59       0.0019
     74  CG2      -47.6680   -7.2010  -20.8570 C.3    59  ILE59       0.0020
     75  CD1      -47.9140   -9.4700  -22.9080 C.3    59  ILE59       0.0001
     76  N        -46.1720   -5.4770  -25.0220 N.am   60  TYR60      -0.1962
     77  CA       -45.4310   -5.5040  -26.2830 C.3    60  TYR60       0.1771
     78  C        -45.2350   -4.0930  -26.8230 C.2    60  TYR60       0.2619
     79  O        -46.1030   -3.2330  -26.6740 O.2    60  TYR60      -0.2715
     80  CB       -46.1590   -6.3550  -27.3290 C.3    60  TYR60       0.0574
     81  CG       -46.4340   -7.7800  -26.8970 C.ar   60  TYR60      -0.0198
     82  CD1      -45.4160   -8.5900  -26.4180 C.ar   60  TYR60      -0.0009
     83  CD2      -47.7170   -8.3070  -26.9550 C.ar   60  TYR60      -0.0009
     84  CE1      -45.6620   -9.8880  -26.0200 C.ar   60  TYR60       0.0417
     85  CE2      -47.9760   -9.6040  -26.5550 C.ar   60  TYR60       0.0417
     86  CZ       -46.9430  -10.3880  -26.0850 C.ar   60  TYR60       0.1957
     87  OH       -47.1860  -11.6820  -25.6870 O.3    60  TYR60      -0.2866
     88  N        -44.0940   -3.8590  -27.4570 N.am   61  ALA61      -0.1977
     89  CA       -43.8320   -2.5640  -28.0730 C.3    61  ALA61       0.1597
     90  C        -44.8010   -2.3230  -29.2220 C.2    61  ALA61       0.2287
     91  O        -44.9950   -3.2020  -30.0600 O.2    61  ALA61      -0.2864
     92  CB       -42.4000   -2.4930  -28.5670 C.3    61  ALA61       0.0319
     93  N        -36.9180    1.5780  -16.5980 N.3    73  VAL73      -0.1231
     94  CA       -36.7300    0.2960  -15.9260 C.3    73  VAL73       0.1692
     95  C        -35.5290    0.3360  -14.9860 C.2    73  VAL73       0.2591
     96  O        -34.6730    1.2090  -15.0970 O.2    73  VAL73      -0.2718
     97  CB       -36.5410   -0.8550  -16.9430 C.3    73  VAL73       0.0266
     98  CG1      -37.7430   -0.9510  -17.8540 C.3    73  VAL73       0.0020
     99  CG2      -35.2650   -0.6700  -17.7640 C.3    73  VAL73       0.0020
    100  N        -35.4710   -0.6000  -14.0450 N.am   74  LYS74      -0.1980
    101  CA       -34.2770   -0.7270  -13.2140 C.3    74  LYS74       0.1596
    102  C        -33.0950   -1.0410  -14.1320 C.2    74  LYS74       0.2287
    103  O        -33.2680   -1.6500  -15.1870 O.2    74  LYS74      -0.2864
    104  CB       -34.4650   -1.8040  -12.1410 C.3    74  LYS74       0.0298
    105  CG       -35.3400   -1.3410  -10.9700 C.3    74  LYS74       0.0038
    106  CD       -34.6650   -0.2240  -10.1720 C.3    74  LYS74       0.0206
    107  CE       -35.6250    0.4370   -9.1790 C.3    74  LYS74       0.1093
    108  NZ       -36.2190   -0.5540   -8.2390 N.3    74  LYS74      -0.1314
    109  N        -32.1930   -4.2030  -16.0460 N.3    77  SER77      -0.1217
    110  CA       -33.1360   -4.6510  -17.0690 C.3    77  SER77       0.1889
    111  C        -33.0960   -3.7870  -18.3200 C.2    77  SER77       0.2288
    112  O        -33.9300   -3.9450  -19.2100 O.2    77  SER77      -0.2866
    113  CB       -34.5600   -4.6650  -16.5130 C.3    77  SER77       0.2089
    114  OG       -34.7200   -5.6960  -15.5600 O.3    77  SER77      -0.2183
    115  N        -32.7750   -5.8400  -21.5150 N.3    80  THR80      -0.1203
    116  CA       -34.0150   -6.5530  -21.7980 C.3    80  THR80       0.1994
    117  C        -35.0620   -5.6000  -22.3700 C.2    80  THR80       0.2617
    118  O        -35.7750   -5.9320  -23.3210 O.2    80  THR80      -0.2717
    119  CB       -34.5810   -7.2370  -20.5400 C.3    80  THR80       0.1784
    120  OG1      -33.7070   -8.2990  -20.1400 O.3    80  THR80      -0.2211
    121  CG2      -35.9530   -7.8140  -20.8310 C.3    80  THR80       0.0376
    122  N        -35.1360   -4.4050  -21.7930 N.am   81  ALA81      -0.1979
    123  CA       -36.1180   -3.4150  -22.2070 C.3    81  ALA81       0.1597
    124  C        -35.8740   -2.9660  -23.6420 C.2    81  ALA81       0.2287
    125  O        -36.8080   -2.8990  -24.4390 O.2    81  ALA81      -0.2864
    126  CB       -36.0990   -2.2180  -21.2650 C.3    81  ALA81       0.0319
    127  N        -34.2990   -4.4690  -25.9790 N.3    83  GLU83      -0.1231
    128  CA       -34.5710   -5.5780  -26.8900 C.3    83  GLU83       0.1699
    129  C        -36.0710   -5.7330  -27.1150 C.2    83  GLU83       0.2592
    130  O        -36.5160   -5.9980  -28.2340 O.2    83  GLU83      -0.2718
    131  CB       -33.9740   -6.8780  -26.3510 C.3    83  GLU83       0.0402
    132  CG       -32.4740   -6.9870  -26.5500 C.3    83  GLU83       0.1161
    133  CD       -32.0960   -7.1520  -28.0110 C.2    83  GLU83       0.3649
    134  OE1      -32.4630   -8.1870  -28.6050 O.co2  83  GLU83      -0.2457
    135  OE2      -31.4390   -6.2450  -28.5660 O.co2  83  GLU83      -0.2457
    136  N        -36.8520   -5.5700  -26.0500 N.am   84  CYS84      -0.1970
    137  CA       -38.3060   -5.6190  -26.1700 C.3    84  CYS84       0.1712
    138  C        -38.8260   -4.4920  -27.0580 C.2    84  CYS84       0.2296
    139  O        -39.8380   -4.6480  -27.7380 O.2    84  CYS84      -0.2864
    140  CB       -38.9690   -5.5410  -24.7920 C.3    84  CYS84       0.0983
    141  SG       -38.9930   -7.1070  -23.8880 S.3    84  CYS84      -0.0798
    142  N        -44.3620    1.9350   -5.8790 N.3   126  LEU126     -0.1245
    143  CA       -45.5470    1.2450   -6.3680 C.3   126  LEU126      0.1561
    144  C        -46.1340    0.3990   -5.2440 C.2   126  LEU126      0.2260
    145  O        -45.5530   -0.6170   -4.8500 O.2   126  LEU126     -0.2867
    146  CB       -45.2060    0.3720   -7.5830 C.3   126  LEU126      0.0270
    147  CG       -46.3570   -0.1510   -8.4430 C.3   126  LEU126      0.0019
    148  CD1      -47.1740    1.0010   -9.0110 C.3   126  LEU126      0.0001
    149  CD2      -45.8090   -1.0190   -9.5670 C.3   126  LEU126      0.0001
    150  N        -50.5500   -2.8410   -7.8060 N.3   129  TRP129     -0.1241
    151  CA       -50.5880   -2.7220   -9.2570 C.3   129  TRP129      0.1605
    152  C        -51.5410   -1.5900   -9.6230 C.2   129  TRP129      0.2264
    153  O        -52.6960   -1.5820   -9.1990 O.2   129  TRP129     -0.2867
    154  CB       -51.0170   -4.0370   -9.9170 C.3   129  TRP129      0.0550
    155  CG       -50.1050   -5.1840   -9.6030 C.ar  129  TRP129      0.0003
    156  CD1      -50.4460   -6.3640   -8.9960 C.ar  129  TRP129      0.0946
    157  CD2      -48.6970   -5.2620   -9.8670 C.ar  129  TRP129      0.0152
    158  NE1      -49.3360   -7.1690   -8.8700 N.ar  129  TRP129     -0.2442
    159  CE2      -48.2520   -6.5180   -9.4000 C.ar  129  TRP129      0.0810
    160  CE3      -47.7720   -4.3960  -10.4600 C.ar  129  TRP129      0.0012
    161  CZ2      -46.9230   -6.9230   -9.5020 C.ar  129  TRP129      0.0191
    162  CZ3      -46.4520   -4.8010  -10.5600 C.ar  129  TRP129      0.0001
    163  CH2      -46.0420   -6.0580  -10.0870 C.ar  129  TRP129      0.0015
    164  N        -36.3020   -0.5210   -1.3330 N.3   253  GLN253     -0.1231
    165  CA       -37.5610   -1.1100   -1.7870 C.3   253  GLN253      0.1698
    166  C        -37.3140   -2.4700   -2.4320 C.2   253  GLN253      0.2592
    167  O        -38.0400   -3.4380   -2.1760 O.2   253  GLN253     -0.2718
    168  CB       -38.2760   -0.1890   -2.7820 C.3   253  GLN253      0.0381
    169  CG       -38.7460    1.1340   -2.1720 C.3   253  GLN253      0.0905
    170  CD       -39.5040    1.9970   -3.1690 C.2   253  GLN253      0.2608
    171  OE1      -40.1770    1.4830   -4.0640 O.2   253  GLN253     -0.2717
    172  NE2      -39.3940    3.3150   -3.0230 N.am  253  GLN253     -0.0878
    173  N        -36.2840   -2.5460   -3.2670 N.am  254  ASP254     -0.1974
    174  CA       -35.9500   -3.8140   -3.9130 C.3   254  ASP254      0.1709
    175  C        -35.5430   -4.8780   -2.8820 C.2   254  ASP254      0.2293
    176  O        -35.9540   -6.0370   -2.9870 O.2   254  ASP254     -0.2864
    177  CB       -34.8410   -3.6110   -4.9450 C.3   254  ASP254      0.1436
    178  CG       -35.3640   -3.0630   -6.2630 C.2   254  ASP254      0.3671
    179  OD1      -36.5860   -3.1560   -6.5080 O.co2 254  ASP254     -0.2456
    180  OD2      -34.5500   -2.5480   -7.0580 O.co2 254  ASP254     -0.2456
    181  N        -38.4050   -6.3850   -1.2300 N.3   257  ARG257     -0.1245
    182  CA       -39.1640   -7.2630   -2.1210 C.3   257  ARG257      0.1563
    183  C        -38.3830   -8.5230   -2.4850 C.2   257  ARG257      0.2260
    184  O        -38.8830   -9.3810   -3.2190 O.2   257  ARG257     -0.2867
    185  CB       -39.5600   -6.5190   -3.3930 C.3   257  ARG257      0.0307
    186  CG       -40.5520   -5.4010   -3.1510 C.3   257  ARG257      0.0489
    187  CD       -40.9810   -4.7560   -4.4480 C.3   257  ARG257      0.2205
    188  NE       -42.1870   -3.9510   -4.2750 N.pl3 257  ARG257     -0.0865
    189  CZ       -42.2760   -2.6700   -4.6100 C.cat 257  ARG257      0.5346
    190  NH1      -41.2280   -2.0570   -5.1360 N.pl3 257  ARG257      0.1354
    191  NH2      -43.4080   -2.0050   -4.4200 N.pl3 257  ARG257      0.1354
    192  N        -35.8110   -8.5740   -4.3290 N.3   259  ARG259     -0.1245
    193  CA       -35.4200   -8.4100   -5.7260 C.3   259  ARG259      0.1563
    194  C        -33.9320   -8.1650   -5.8700 C.2   259  ARG259      0.2260
    195  O        -33.2430   -7.8400   -4.9000 O.2   259  ARG259     -0.2867
    196  CB       -36.1520   -7.2290   -6.3780 C.3   259  ARG259      0.0307
    197  CG       -37.6330   -7.4050   -6.6260 C.3   259  ARG259      0.0489
    198  CD       -38.2090   -6.1360   -7.2660 C.3   259  ARG259      0.2205
    199  NE       -37.7950   -5.9760   -8.6610 N.pl3 259  ARG259     -0.0865
    200  CZ       -38.0500   -4.9010   -9.4040 C.cat 259  ARG259      0.5346
    201  NH1      -38.7060   -3.8710   -8.8840 N.pl3 259  ARG259      0.1354
    202  NH2      -37.6410   -4.8510  -10.6660 N.pl3 259  ARG259      0.1354
    203  N        -40.0620  -11.7380    0.4950 N.3   302  THR302     -0.1218
    204  CA       -40.7990  -10.4880    0.6020 C.3   302  THR302      0.1862
    205  C        -41.0080  -10.1690    2.0750 C.2   302  THR302      0.2287
    206  O        -41.6600  -10.9270    2.7920 O.2   302  THR302     -0.2866
    207  CB       -42.1590  -10.5590   -0.1130 C.3   302  THR302      0.1770
    208  OG1      -42.8960  -11.6830    0.3810 O.3   302  THR302     -0.2211
    209  CG2      -41.9650  -10.7120   -1.6130 C.3   302  THR302      0.0375
@<TRIPOS>BOND
     1    91    90    2
     2    90    89    1
     3   134   133   ar
     4    92    89    1
     5   135   133   ar
     6   130   129    2
     7    89    88    1
     8   133   132    1
     9   139   138    2
    10    88    78   am
    11    80    81    1
    12    80    77    1
    13   129   128    1
    14   129   136   am
    15   138   137    1
    16    83    81   ar
    17    83    85   ar
    18    81    82   ar
    19   128   131    1
    20   128   127    1
    21    78    79    2
    22    78    77    1
    23    85    86   ar
    24   132   131    1
    25    82    84   ar
    26    77    76    1
    27   137   136    1
    28   137   140    1
    29    86    84   ar
    30    86    87    1
    31    43    41    1
    32    76    70   am
    33   140   141    1
    34   125   124    2
    35    41    40    1
    36    70    71    2
    37    70    69    1
    38   124   123    1
    39     8     6    1
    40   118   117    2
    41    42    40    1
    42    73    75    1
    43    73    72    1
    44    68    69    1
    45    40    37    1
    46     7     6    1
    47    69    72    1
    48     6     5    1
    49   117   116    1
    50   117   122   am
    51   123   122    1
    52   123   126    1
    53    72    74    1
    54     5     2    1
    55   116   115    1
    56   116   119    1
    57    37    36    1
    58    37    38    1
    59     1     2    1
    60     2     3    1
    61   121   119    1
    62   119   120    1
    63    38    44   am
    64    38    39    2
    65    44    45    1
    66     3     4    2
    67     3     9   am
    68    47    46    2
    69   112   111    2
    70     9    10    1
    71    45    46    1
    72    46    48   am
    73   111   110    1
    74    98    97    1
    75    99    97    1
    76    10    11    1
    77    48    49    1
    78    49    50    1
    79    49    52    1
    80   110   113    1
    81   110   109    1
    82    50    51    2
    83    97    94    1
    84    11    12    2
    85    11    13   am
    86    93    94    1
    87   113   114    1
    88    13    14    1
    89    17    14    1
    90    94    95    1
    91    52    53    1
    92    14    15    1
    93    61    62    2
    94    61    60    1
    95   103   102    2
    96    96    95    2
    97    95   100   am
    98    53    54    1
    99    15    18   am
   100    15    16    2
   101    64    63    1
   102    64    65    1
   103   102   101    1
   104    63    60    1
   105    60    59    1
   106   100   101    1
   107    18    19    1
   108    31    30    2
   109    54    55    1
   110   101   104    1
   111    30    29    1
   112    55    56    2
   113    65    67   am
   114    65    66    2
   115    34    32    1
   116    21    20    2
   117    19    20    1
   118    56    57    1
   119    56    58    1
   120   104   105    1
   121    32    29    1
   122    32    33    1
   123    29    28    1
   124    20    22   am
   125    28    24   am
   126   105   106    1
   127    25    24    2
   128   202   200    1
   129   162   160   ar
   130   162   163   ar
   131    24    23    1
   132   160   157   ar
   133    22    23    1
   134    33    35    1
   135   106   107    1
   136   163   161   ar
   137   154   155    1
   138   154   151    1
   139   157   155   ar
   140   157   159   ar
   141    23    26    1
   142   152   151    1
   143   152   153    2
   144   155   156   ar
   145   149   147    1
   146   161   159   ar
   147   200   201    1
   148   200   199    2
   149   159   158   ar
   150   151   150    1
   151   107   108    1
   152   148   147    1
   153   156   158   ar
   154   199   198    1
   155   147   146    1
   156    27    26    1
   157   146   143    1
   158   198   197    1
   159   180   178   ar
   160   197   196    1
   161   179   178   ar
   162   196   193    1
   163   143   142    1
   164   143   144    1
   165   178   177    1
   166   194   193    1
   167   194   195    2
   168   193   192    1
   169   144   145    2
   170   190   189    1
   171   177   174    1
   172   189   191    1
   173   189   188    2
   174   187   188    1
   175   187   186    1
   176   171   170    2
   177   174   173    1
   178   174   175    1
   179   185   186    1
   180   185   182    1
   181   173   166   am
   182   184   183    2
   183   170   172   am
   184   170   169    1
   185   176   175    2
   186   168   169    1
   187   168   165    1
   188   183   182    1
   189   166   167    2
   190   166   165    1
   191   182   181    1
   192   165   164    1
   193   209   207    1
   194   207   208    1
   195   207   204    1
   196   203   204    1
   197   204   205    1
   198   205   206    2
