@<TRIPOS>MOLECULE
tmp/5ayvB01.pdb
 118 108 0 0 0
SMALL
GASTEIGER

@<TRIPOS>ATOM
      1  N        -31.7840    5.5750  -12.5850 N.3   100  ASN100     -0.1240
      2  CA       -30.6410    5.6490  -11.6850 C.3   100  ASN100      0.1653
      3  C        -29.4030    5.0440  -12.3370 C.2   100  ASN100      0.2266
      4  O        -29.5030    4.2770  -13.3000 O.2   100  ASN100     -0.2867
      5  CB       -30.9260    4.9000  -10.3820 C.3   100  ASN100      0.1155
      6  CG       -32.1310    5.4370   -9.6370 C.2   100  ASN100      0.2627
      7  OD1      -32.2840    6.6480   -9.4600 O.2   100  ASN100     -0.2716
      8  ND2      -32.9860    4.5290   -9.1740 N.am  100  ASN100     -0.0877
      9  N        -33.7910   12.4850  -12.4840 N.3   120  THR120     -0.1203
     10  CA       -34.9500   12.9630  -11.7430 C.3   120  THR120      0.1994
     11  C        -34.7640   12.6480  -10.2690 C.2   120  THR120      0.2619
     12  O        -34.2590   11.5840   -9.9120 O.2   120  THR120     -0.2717
     13  CB       -36.2700   12.3570  -12.2630 C.3   120  THR120      0.1784
     14  OG1      -37.3780   13.0820  -11.7080 O.3   120  THR120     -0.2211
     15  CG2      -36.3870   10.8850  -11.9060 C.3   120  THR120      0.0376
     16  N        -35.1460   13.5900   -9.4110 N.am  121  THR121     -0.1938
     17  CA       -34.9930   13.3710   -7.9750 C.3   121  THR121      0.2028
     18  C        -36.3590   13.1330   -7.3210 C.2   121  THR121      0.2642
     19  O        -36.5000   13.1790   -6.0960 O.2   121  THR121     -0.2714
     20  CB       -34.2450   14.5340   -7.2980 C.3   121  THR121      0.1808
     21  OG1      -34.9860   15.7540   -7.4350 O.3   121  THR121     -0.2208
     22  CG2      -32.8460   14.7050   -7.9120 C.3   121  THR121      0.0379
     23  N        -37.3640   12.8550   -8.1480 N.am  122  ASN122     -0.1957
     24  CA       -38.6390   12.3590   -7.6370 C.3   122  ASN122      0.1819
     25  C        -38.4540   11.0480   -6.8810 C.2   122  ASN122      0.2621
     26  O        -37.6260   10.2090   -7.2490 O.2   122  ASN122     -0.2715
     27  CB       -39.6440   12.1660   -8.7700 C.3   122  ASN122      0.1195
     28  CG       -40.2280   13.4720   -9.2470 C.2   122  ASN122      0.2630
     29  OD1      -40.9190   14.1510   -8.4980 O.2   122  ASN122     -0.2716
     30  ND2      -39.9440   13.8390  -10.4950 N.am  122  ASN122     -0.0877
     31  N        -39.2320   10.8850   -5.8190 N.am  123  GLY123     -0.1954
     32  CA       -39.2590    9.6480   -5.0570 C.3   123  GLY123      0.1869
     33  C        -40.6320    9.0290   -5.1860 C.2   123  GLY123      0.2309
     34  O        -41.6400    9.7120   -5.0140 O.2   123  GLY123     -0.2863
     35  N        -25.9710   12.7150   -9.9240 N.3   180  LYS180     -0.1245
     36  CA       -27.0410   11.8990   -9.3670 C.3   180  LYS180      0.1561
     37  C        -26.5020   10.5550   -8.8770 C.2   180  LYS180      0.2260
     38  O        -26.9580   10.0380   -7.8570 O.2   180  LYS180     -0.2867
     39  CB       -28.1500   11.6810  -10.3970 C.3   180  LYS180      0.0271
     40  CG       -29.3410   10.9000   -9.8720 C.3   180  LYS180      0.0035
     41  CD       -30.1570   11.7220   -8.8970 C.3   180  LYS180      0.0206
     42  CE       -31.2010   10.8710   -8.1740 C.3   180  LYS180      0.1093
     43  NZ       -31.8000    9.8170   -9.0380 N.3   180  LYS180     -0.1314
     44  N        -25.0980   11.1680   -5.5680 N.3   183  VAL183     -0.1231
     45  CA       -26.2120   11.3160   -4.6360 C.3   183  VAL183      0.1692
     46  C        -26.8110    9.9520   -4.2710 C.2   183  VAL183      0.2592
     47  O        -27.0270    9.6570   -3.0910 O.2   183  VAL183     -0.2718
     48  CB       -27.3110   12.2350   -5.2060 C.3   183  VAL183      0.0266
     49  CG1      -28.5930   12.1340   -4.3650 C.3   183  VAL183      0.0020
     50  CG2      -26.8020   13.6800   -5.2720 C.3   183  VAL183      0.0020
     51  N        -27.0600    9.1060   -5.2670 N.am  184  ASN184     -0.1974
     52  CA       -27.6070    7.7870   -4.9740 C.3   184  ASN184      0.1688
     53  C        -26.6150    6.9060   -4.2020 C.2   184  ASN184      0.2292
     54  O        -27.0270    6.0650   -3.4030 O.2   184  ASN184     -0.2864
     55  CB       -28.0460    7.0800   -6.2680 C.3   184  ASN184      0.1181
     56  CG       -29.3770    7.6020   -6.8040 C.2   184  ASN184      0.2629
     57  OD1      -29.4630    8.0580   -7.9430 O.2   184  ASN184     -0.2716
     58  ND2      -30.4150    7.5480   -5.9780 N.am  184  ASN184     -0.0877
     59  N        -27.4230    8.0020   -0.6430 N.3   187  ILE187     -0.1231
     60  CA       -28.7680    7.6850   -0.1710 C.3   187  ILE187      0.1692
     61  C        -29.0860    6.1980   -0.2610 C.2   187  ILE187      0.2592
     62  O        -29.5220    5.5870    0.7190 O.2   187  ILE187     -0.2718
     63  CB       -29.8340    8.4700   -0.9470 C.3   187  ILE187      0.0266
     64  CG1      -29.6860    9.9680   -0.6750 C.3   187  ILE187      0.0019
     65  CG2      -31.2340    7.9800   -0.5680 C.3   187  ILE187      0.0020
     66  CD1      -30.6120   10.8360   -1.5390 C.3   187  ILE187      0.0001
     67  N        -28.8670    5.6060   -1.4290 N.am  188  ASN188     -0.1974
     68  CA       -29.2060    4.2080   -1.6250 C.3   188  ASN188      0.1688
     69  C        -28.2260    3.2640   -0.9450 C.2   188  ASN188      0.2292
     70  O        -28.5160    2.0790   -0.7790 O.2   188  ASN188     -0.2864
     71  CB       -29.2810    3.8870   -3.1150 C.3   188  ASN188      0.1181
     72  CG       -30.2960    4.7490   -3.8410 C.2   188  ASN188      0.2629
     73  OD1      -30.3680    5.9610   -3.6250 O.2   188  ASN188     -0.2716
     74  ND2      -31.1050    4.1230   -4.6850 N.am  188  ASN188     -0.0877
     75  N        -35.1770    8.3690    3.6910 N.3   198  ASN198     -0.1240
     76  CA       -34.0930    9.2400    3.2610 C.3   198  ASN198      0.1653
     77  C        -33.7650   10.3640    4.2460 C.2   198  ASN198      0.2266
     78  O        -32.5990   10.7050    4.4290 O.2   198  ASN198     -0.2867
     79  CB       -34.4200    9.8490    1.8980 C.3   198  ASN198      0.1155
     80  CG       -34.4100    8.8270    0.7680 C.2   198  ASN198      0.2627
     81  OD1      -34.0430    7.6640    0.9460 O.2   198  ASN198     -0.2716
     82  ND2      -34.7920    9.2860   -0.4280 N.am  198  ASN198     -0.0877
     83  N        -32.0530   16.8010   -2.4940 N.3   240  THR240     -0.1218
     84  CA       -32.7710   15.5710   -2.7770 C.3   240  THR240      0.1862
     85  C        -33.2790   14.9280   -1.4900 C.2   240  THR240      0.2287
     86  O        -34.4250   14.4810   -1.4300 O.2   240  THR240     -0.2866
     87  CB       -31.8870   14.5790   -3.5470 C.3   240  THR240      0.1770
     88  OG1      -31.5550   15.1460   -4.8220 O.3   240  THR240     -0.2211
     89  CG2      -32.6300   13.2650   -3.7640 C.3   240  THR240      0.0375
     90  N        -37.2670   14.3240   -0.6580 N.3   244  THR244     -0.1218
     91  CA       -37.7090   12.9340   -0.6180 C.3   244  THR244      0.1862
     92  C        -37.5250   12.3490    0.7780 C.2   244  THR244      0.2287
     93  O        -37.3340   11.1370    0.9360 O.2   244  THR244     -0.2866
     94  CB       -36.9390   12.0430   -1.6390 C.3   244  THR244      0.1770
     95  OG1      -35.5460   11.9770   -1.2920 O.3   244  THR244     -0.2211
     96  CG2      -37.0780   12.5930   -3.0660 C.3   244  THR244      0.0375
     97  N        -39.4240    9.2670    1.7350 N.3   247  ASN247     -0.1240
     98  CA       -39.2970    8.1130    0.8530 C.3   247  ASN247      0.1653
     99  C        -38.3200    7.0670    1.3870 C.2   247  ASN247      0.2266
    100  O        -37.2880    7.4050    1.9660 O.2   247  ASN247     -0.2867
    101  CB       -38.8380    8.5680   -0.5340 C.3   247  ASN247      0.1155
    102  CG       -39.1150    7.5400   -1.6170 C.2   247  ASN247      0.2627
    103  OD1      -40.1620    6.8880   -1.6230 O.2   247  ASN247     -0.2716
    104  ND2      -38.1730    7.3950   -2.5450 N.am  247  ASN247     -0.0877
    105  N        -35.7100    4.6020   -0.1560 N.3   249  ASN249     -0.1225
    106  CA       -35.0570    4.6800   -1.4550 C.3   249  ASN249      0.1785
    107  C        -35.3100    3.4130   -2.2760 C.2   249  ASN249      0.2597
    108  O        -35.6590    2.3650   -1.7340 O.2   249  ASN249     -0.2718
    109  CB       -33.5560    4.9510   -1.2950 C.3   249  ASN249      0.1169
    110  CG       -32.7770    3.7170   -0.8980 C.2   249  ASN249      0.2627
    111  OD1      -32.4250    2.8990   -1.7490 O.2   249  ASN249     -0.2716
    112  ND2      -32.4830    3.5840    0.3950 N.am  249  ASN249     -0.0877
    113  N        -35.1480    3.5280   -3.5860 N.am  250  SER250     -0.1952
    114  CA       -35.5620    2.4710   -4.5000 C.3   250  SER250      0.1924
    115  C        -34.7930    1.1760   -4.2910 C.2   250  SER250      0.2314
    116  O        -35.3140    0.0860   -4.5340 O.2   250  SER250     -0.2863
    117  CB       -35.4060    2.9330   -5.9490 C.3   250  SER250      0.2116
    118  OG       -34.0530    3.2310   -6.2380 O.3   250  SER250     -0.2180
@<TRIPOS>BOND
     1     4     3    2
     2     1     2    1
     3     9    10    1
     4     3     2    1
     5    13    15    1
     6    13    10    1
     7    13    14    1
     8    10    11    1
     9     2     5    1
    10    30    28   am
    11    39    40    1
    12    39    36    1
    13     5     6    1
    14    11    12    2
    15    11    16   am
    16    35    36    1
    17    40    41    1
    18     6     7    2
    19     6     8   am
    20    16    17    1
    21    36    37    1
    22    28    27    1
    23    28    29    2
    24    43    42    1
    25    41    42    1
    26    37    38    2
    27    27    24    1
    28    23    24    1
    29    23    18   am
    30    17    18    1
    31    17    20    1
    32    57    56    2
    33    22    20    1
    34    24    25    1
    35    21    20    1
    36    18    19    2
    37    26    25    2
    38    25    31   am
    39    56    55    1
    40    56    58   am
    41    55    52    1
    42   118   117    1
    43   117   114    1
    44    31    32    1
    45    44    45    1
    46    50    48    1
    47    51    52    1
    48    51    46   am
    49    48    45    1
    50    48    49    1
    51    33    32    1
    52    33    34    2
    53    52    53    1
    54    88    87    1
    55    74    72   am
    56    45    46    1
    57   116   115    2
    58   114   115    1
    59   114   113    1
    60    46    47    2
    61    53    54    2
    62    72    73    2
    63    72    71    1
    64    89    87    1
    65   113   107   am
    66    87    84    1
    67    71    68    1
    68    96    94    1
    69    84    83    1
    70    84    85    1
    71   104   102   am
    72   107   108    2
    73   107   106    1
    74   111   110    2
    75    94    95    1
    76    94    91    1
    77    68    67    1
    78    68    69    1
    79   103   102    2
    80   102   101    1
    81    66    64    1
    82    85    86    2
    83   106   109    1
    84   106   105    1
    85    67    61   am
    86   109   110    1
    87    63    64    1
    88    63    65    1
    89    63    60    1
    90    69    70    2
    91   110   112   am
    92    90    91    1
    93    59    60    1
    94    91    92    1
    95   101    98    1
    96    82    80   am
    97    61    60    1
    98    61    62    2
    99    80    81    2
   100    80    79    1
   101    92    93    2
   102    98    99    1
   103    98    97    1
   104    99   100    2
   105    79    76    1
   106    76    75    1
   107    76    77    1
   108    77    78    2
