@<TRIPOS>MOLECULE
tmp/5ayyF00.pdb
 103 95 0 0 0
SMALL
GASTEIGER

@<TRIPOS>ATOM
      1  N          9.4800  -32.7460   14.6030 N.3   137  THR137     -0.1203
      2  CA         9.9870  -32.5400   13.2460 C.3   137  THR137      0.1994
      3  C          8.9340  -31.8710   12.3620 C.2   137  THR137      0.2618
      4  O          7.9080  -31.4360   12.8540 O.2   137  THR137     -0.2717
      5  CB        10.3780  -33.9060   12.6420 C.3   137  THR137      0.1784
      6  OG1        9.1890  -34.6840   12.4530 O.3   137  THR137     -0.2211
      7  CG2       11.3760  -34.6750   13.5710 C.3   137  THR137      0.0376
      8  N          9.1990  -31.7840   11.0620 N.am  138  ARG138     -0.1965
      9  CA         8.1410  -31.5320   10.0830 C.3   138  ARG138      0.1729
     10  C          7.4960  -32.8380    9.5280 C.2   138  ARG138      0.2616
     11  O          6.8920  -32.8220    8.4630 O.2   138  ARG138     -0.2715
     12  CB         8.6740  -30.6370    8.9610 C.3   138  ARG138      0.0348
     13  CG         8.8180  -29.1970    9.3790 C.3   138  ARG138      0.0492
     14  CD         9.6670  -28.4320    8.3950 C.3   138  ARG138      0.2205
     15  NE         9.1630  -28.5160    7.0130 N.pl3 138  ARG138     -0.0865
     16  CZ         9.8110  -29.0280    5.9430 C.cat 138  ARG138      0.5346
     17  NH1       11.0420  -29.5540    6.0040 N.pl3 138  ARG138      0.1354
     18  NH2        9.2190  -28.9900    4.7550 N.pl3 138  ARG138      0.1354
     19  N          7.5970  -33.9620   10.2470 N.am  139  LYS139     -0.1977
     20  CA         6.8970  -35.2040    9.8600 C.3   139  LYS139      0.1596
     21  C          5.5220  -35.2250   10.5450 C.2   139  LYS139      0.2287
     22  O          5.2330  -36.0330   11.4100 O.2   139  LYS139     -0.2864
     23  CB         7.7460  -36.4620   10.1230 C.3   139  LYS139      0.0298
     24  CG         9.1350  -36.3990    9.4690 C.3   139  LYS139      0.0038
     25  CD        10.0340  -37.5960    9.7780 C.3   139  LYS139      0.0206
     26  CE        11.5040  -37.2860    9.5170 C.3   139  LYS139      0.1093
     27  NZ        12.3050  -38.5380    9.4570 N.3   139  LYS139     -0.1314
     28  N         10.0930  -27.6510   17.7060 N.3   160  HIS160     -0.1226
     29  CA        11.0830  -27.4090   16.6620 C.3   160  HIS160      0.1752
     30  C         10.4570  -26.3670   15.7500 C.2   160  HIS160      0.2595
     31  O          9.3130  -25.9850   15.9280 O.2   160  HIS160     -0.2718
     32  CB        11.4740  -28.7000   15.8960 C.3   160  HIS160      0.0759
     33  CG        12.8970  -28.7180   15.4060 C.ar  160  HIS160      0.0818
     34  ND1       13.2980  -28.0790   14.2540 N.ar  160  HIS160     -0.2268
     35  CD2       14.0070  -29.3130   15.9010 C.ar  160  HIS160      0.1154
     36  CE1       14.5930  -28.2500   14.0740 C.ar  160  HIS160      0.1986
     37  NE2       15.0470  -29.0030   15.0550 N.ar  160  HIS160     -0.2212
     38  N         11.2560  -25.8470   14.8400 N.am  161  ARG161     -0.1980
     39  CA        10.8040  -25.2380   13.5830 C.3   161  ARG161      0.1597
     40  C          9.4810  -25.8510   13.1050 C.2   161  ARG161      0.2287
     41  O          9.4170  -27.0350   12.7200 O.2   161  ARG161     -0.2864
     42  CB        11.9100  -25.4210   12.5380 C.3   161  ARG161      0.0334
     43  CG        11.6350  -25.0910   11.0810 C.3   161  ARG161      0.0492
     44  CD        12.3540  -26.1120   10.2090 C.3   161  ARG161      0.2205
     45  NE        12.9050  -25.5500    8.9810 N.pl3 161  ARG161     -0.0865
     46  CZ        13.2400  -26.2740    7.9130 C.cat 161  ARG161      0.5346
     47  NH1       13.0750  -27.6020    7.8810 N.pl3 161  ARG161      0.1354
     48  NH2       13.7490  -25.6670    6.8600 N.pl3 161  ARG161      0.1354
     49  N         17.0550  -24.4210    7.3440 N.3   169  MET169     -0.1245
     50  CA        17.6530  -25.7250    7.5880 C.3   169  MET169      0.1570
     51  C         18.3220  -26.3050    6.3310 C.2   169  MET169      0.2261
     52  O         17.6510  -26.8060    5.4140 O.2   169  MET169     -0.2867
     53  CB        16.5990  -26.6640    8.1540 C.3   169  MET169      0.0387
     54  CG        17.1590  -27.9160    8.8040 C.3   169  MET169      0.0595
     55  SD        16.2070  -28.5040   10.2260 S.3   169  MET169     -0.1393
     56  CE        16.8500  -30.1770   10.2840 C.3   169  MET169      0.0692
     57  N         20.0240  -29.2000    4.6240 N.3   171  LYS171     -0.1245
     58  CA        19.8990  -30.6430    4.7600 C.3   171  LYS171      0.1561
     59  C         20.8390  -31.3750    3.7750 C.2   171  LYS171      0.2260
     60  O         21.5550  -30.7510    2.9910 O.2   171  LYS171     -0.2867
     61  CB        18.4230  -31.0610    4.5720 C.3   171  LYS171      0.0271
     62  CG        17.4340  -30.4450    5.5690 C.3   171  LYS171      0.0035
     63  CD        16.0070  -30.9300    5.3110 C.3   171  LYS171      0.0206
     64  CE        14.9970  -30.5090    6.3770 C.3   171  LYS171      0.1093
     65  NZ        15.0380  -31.4040    7.5640 N.3   171  LYS171     -0.1314
     66  N         22.2180  -30.2300    8.5690 N.3   201  GLU201     -0.1245
     67  CA        22.2460  -31.6930    8.7350 C.3   201  GLU201      0.1567
     68  C         23.6220  -32.2390    8.3810 C.2   201  GLU201      0.2260
     69  O         24.0550  -32.1460    7.2310 O.2   201  GLU201     -0.2867
     70  CB        21.2100  -32.4070    7.8550 C.3   201  GLU201      0.0388
     71  CG        19.7470  -32.1850    8.2570 C.3   201  GLU201      0.1160
     72  CD        18.8410  -33.3730    7.9460 C.2   201  GLU201      0.3649
     73  OE1       17.6790  -33.3410    8.4410 O.co2 201  GLU201     -0.2457
     74  OE2       19.2930  -34.3220    7.2330 O.co2 201  GLU201     -0.2457
     75  N         23.1060  -30.4490   13.2970 N.3   220  LEU220     -0.1245
     76  CA        22.3080  -31.6630   13.5030 C.3   220  LEU220      0.1561
     77  C         23.1140  -32.9330   13.1450 C.2   220  LEU220      0.2260
     78  O         23.7410  -32.9830   12.0820 O.2   220  LEU220     -0.2867
     79  CB        20.9940  -31.5940   12.7010 C.3   220  LEU220      0.0270
     80  CG        20.0170  -32.7660   12.9830 C.3   220  LEU220      0.0019
     81  CD1       18.5940  -32.3470   13.3030 C.3   220  LEU220      0.0001
     82  CD2       20.0170  -33.7530   11.8300 C.3   220  LEU220      0.0001
     83  N         22.1430  -30.9450   17.8140 N.3   246  GLU246     -0.1245
     84  CA        20.9400  -31.7770   17.7230 C.3   246  GLU246      0.1567
     85  C         21.2900  -33.1890   17.2460 C.2   246  GLU246      0.2260
     86  O         22.0960  -33.3750   16.3330 O.2   246  GLU246     -0.2867
     87  CB        19.9100  -31.1320   16.7800 C.3   246  GLU246      0.0388
     88  CG        18.5270  -31.7820   16.8250 C.3   246  GLU246      0.1160
     89  CD        17.4570  -31.0210   16.0500 C.2   246  GLU246      0.3649
     90  OE1       17.6410  -29.8210   15.7410 O.co2 246  GLU246     -0.2457
     91  OE2       16.4180  -31.6400   15.7140 O.co2 246  GLU246     -0.2457
     92  N         19.5410  -36.7000   15.6880 N.3   248  SER248     -0.1217
     93  CA        18.3250  -37.1390   15.0090 C.3   248  SER248      0.1889
     94  C         18.6650  -38.3110   14.1480 C.2   248  SER248      0.2288
     95  O         19.8130  -38.4700   13.7160 O.2   248  SER248     -0.2866
     96  CB        17.7390  -36.0270   14.1260 C.3   248  SER248      0.2089
     97  OG        16.3340  -36.1400   13.9870 O.3   248  SER248     -0.2183
     98  N         15.5020  -34.6960   18.2950 N.3   268  SER268     -0.1217
     99  CA        14.2370  -34.7340   17.5460 C.3   268  SER268      0.1889
    100  C         13.8690  -36.1690   17.1910 C.2   268  SER268      0.2288
    101  O         14.7250  -36.9530   16.7520 O.2   268  SER268     -0.2866
    102  CB        14.2980  -33.8610   16.2740 C.3   268  SER268      0.2089
    103  OG        15.4660  -34.0880   15.4950 O.3   268  SER268     -0.2183
@<TRIPOS>BOND
     1    60    59    2
     2    59    58    1
     3    61    58    1
     4    61    62    1
     5    57    58    1
     6    18    16    1
     7    63    62    1
     8    63    64    1
     9    52    51    2
    10    16    17    1
    11    16    15    2
    12    51    50    1
    13    64    65    1
    14    48    46    1
    15    15    14    1
    16    69    68    2
    17    74    72   ar
    18    49    50    1
    19    50    53    1
    20    70    71    1
    21    70    67    1
    22    47    46    1
    23    46    45    2
    24    72    71    1
    25    72    73   ar
    26    53    54    1
    27    68    67    1
    28    14    13    1
    29    11    10    2
    30    66    67    1
    31    54    55    1
    32    12    13    1
    33    12     9    1
    34    45    44    1
    35    27    26    1
    36    24    25    1
    37    24    23    1
    38    26    25    1
    39    10     9    1
    40    10    19   am
    41    20    23    1
    42    20    19    1
    43    20    21    1
    44     9     8    1
    45    44    43    1
    46    55    56    1
    47    21    22    2
    48     8     3   am
    49    43    42    1
    50    82    80    1
    51    78    77    2
    52     3     4    2
    53     3     2    1
    54     6     5    1
    55    42    39    1
    56     5     2    1
    57     5     7    1
    58    79    80    1
    59    79    76    1
    60    41    40    2
    61    80    81    1
    62    40    39    1
    63    77    76    1
    64     2     1    1
    65    75    76    1
    66    39    38    1
    67    95    94    2
    68    97    96    1
    69    36    34   ar
    70    36    37   ar
    71    96    93    1
    72    94    93    1
    73    34    33   ar
    74    38    30   am
    75    93    92    1
    76    37    35   ar
    77    33    32    1
    78    33    35   ar
    79   103   102    1
    80    91    89   ar
    81    90    89   ar
    82    30    31    2
    83    30    29    1
    84    32    29    1
    85    89    88    1
    86   102    99    1
    87    86    85    2
    88    29    28    1
    89   101   100    2
    90    87    88    1
    91    87    84    1
    92   100    99    1
    93    85    84    1
    94    99    98    1
    95    84    83    1
