@<TRIPOS>MOLECULE
tmp/5ayzG00.pdb
 168 158 0 0 0
SMALL
GASTEIGER

@<TRIPOS>ATOM
      1  N        -44.6390   33.1700    4.8880 N.3   136  GLY136     -0.1210
      2  CA       -43.5190   32.7840    5.7200 C.3   136  GLY136      0.1956
      3  C        -42.1820   33.1710    5.1130 C.2   136  GLY136      0.2613
      4  O        -42.0880   33.9250    4.1440 O.2   136  GLY136     -0.2717
      5  N        -41.1260   32.6240    5.6970 N.am  137  THR137     -0.1938
      6  CA       -39.7660   33.0000    5.3430 C.3   137  THR137      0.2028
      7  C        -38.9390   31.7290    5.2060 C.2   137  THR137      0.2642
      8  O        -39.4520   30.6110    5.2820 O.2   137  THR137     -0.2714
      9  CB       -39.1570   33.9040    6.4220 C.3   137  THR137      0.1808
     10  OG1      -38.9110   33.1000    7.5830 O.3   137  THR137     -0.2208
     11  CG2      -40.0870   35.0470    6.8090 C.3   137  THR137      0.0379
     12  N        -37.6380   31.9040    5.0340 N.am  138  ARG138     -0.1963
     13  CA       -36.6920   30.8070    5.1350 C.3   138  ARG138      0.1729
     14  C        -36.1350   30.6540    6.5470 C.2   138  ARG138      0.2616
     15  O        -35.1820   29.8910    6.7440 O.2   138  ARG138     -0.2715
     16  CB       -35.5550   31.0060    4.1360 C.3   138  ARG138      0.0348
     17  CG       -35.8170   30.3400    2.8160 C.3   138  ARG138      0.0492
     18  CD       -34.9520   30.9020    1.7060 C.3   138  ARG138      0.2205
     19  NE       -33.5280   30.5900    1.8410 N.pl3 138  ARG138     -0.0865
     20  CZ       -32.5890   31.4830    2.1400 C.cat 138  ARG138      0.5346
     21  NH1      -32.9020   32.7510    2.3490 N.pl3 138  ARG138      0.1354
     22  NH2      -31.3320   31.1100    2.2250 N.pl3 138  ARG138      0.1354
     23  N        -36.7020   31.3690    7.5270 N.am  139  LYS139     -0.1977
     24  CA       -36.3210   31.2020    8.9320 C.3   139  LYS139      0.1596
     25  C        -37.0100   29.9560    9.5000 C.2   139  LYS139      0.2287
     26  O        -37.9380   30.0200   10.3050 O.2   139  LYS139     -0.2864
     27  CB       -36.6670   32.4510    9.7310 C.3   139  LYS139      0.0298
     28  CG       -35.8480   33.6520    9.3220 C.3   139  LYS139      0.0038
     29  CD       -36.1220   34.8580   10.2080 C.3   139  LYS139      0.0206
     30  CE       -35.3130   36.0570    9.7650 C.3   139  LYS139      0.1093
     31  NZ       -35.6420   37.2300   10.6210 N.3   139  LYS139     -0.1314
     32  N        -44.0890   31.4070    0.6090 N.3   160  HIS160     -0.1226
     33  CA       -43.0000   32.1810    0.0100 C.3   160  HIS160      0.1752
     34  C        -42.0370   31.1870   -0.6260 C.2   160  HIS160      0.2595
     35  O        -42.3720   30.0040   -0.7340 O.2   160  HIS160     -0.2718
     36  CB       -42.2960   33.0680    1.0380 C.3   160  HIS160      0.0759
     37  CG       -41.7320   34.3390    0.4720 C.ar  160  HIS160      0.0818
     38  ND1      -40.9290   34.3680   -0.6490 N.ar  160  HIS160     -0.2268
     39  CD2      -41.8420   35.6250    0.8870 C.ar  160  HIS160      0.1154
     40  CE1      -40.5850   35.6180   -0.9100 C.ar  160  HIS160      0.1986
     41  NE2      -41.1230   36.4000    0.0080 N.ar  160  HIS160     -0.2212
     42  N        -40.8600   31.6110   -1.0640 N.am  161  ARG161     -0.1980
     43  CA       -40.0300   30.6760   -1.8070 C.3   161  ARG161      0.1597
     44  C        -39.5690   29.5450   -0.9040 C.2   161  ARG161      0.2287
     45  O        -39.2800   29.7470    0.2840 O.2   161  ARG161     -0.2864
     46  CB       -38.8270   31.3710   -2.4280 C.3   161  ARG161      0.0334
     47  CG       -37.9060   32.0010   -1.4590 C.3   161  ARG161      0.0492
     48  CD       -36.6450   32.4050   -2.1700 C.3   161  ARG161      0.2205
     49  NE       -35.7760   33.1050   -1.2470 N.pl3 161  ARG161     -0.0865
     50  CZ       -34.5130   33.4210   -1.4930 C.cat 161  ARG161      0.5346
     51  NH1      -33.8150   34.0780   -0.5640 N.pl3 161  ARG161      0.1354
     52  NH2      -33.9570   33.0860   -2.6580 N.pl3 161  ARG161      0.1354
     53  N        -33.4960   36.1590   -5.0850 N.3   169  MET169     -0.1245
     54  CA       -33.7510   37.2110   -4.1090 C.3   169  MET169      0.1570
     55  C        -32.4400   37.9280   -3.8150 C.2   169  MET169      0.2261
     56  O        -31.5020   37.3350   -3.2690 O.2   169  MET169     -0.2867
     57  CB       -34.3830   36.6570   -2.8350 C.3   169  MET169      0.0387
     58  CG       -34.8310   37.7150   -1.8450 C.3   169  MET169      0.0595
     59  SD       -36.1840   37.1400   -0.7670 S.3   169  MET169     -0.1393
     60  CE       -36.2520   38.5670    0.3130 C.3   169  MET169      0.0692
     61  N        -30.4790   40.5080   -1.7150 N.3   171  LYS171     -0.1245
     62  CA       -30.5520   41.0460   -0.3690 C.3   171  LYS171      0.1561
     63  C        -29.4870   42.1190   -0.1850 C.2   171  LYS171      0.2260
     64  O        -28.6350   42.3400   -1.0570 O.2   171  LYS171     -0.2867
     65  CB       -30.3960   39.9250    0.6680 C.3   171  LYS171      0.0271
     66  CG       -31.3890   38.8020    0.4660 C.3   171  LYS171      0.0035
     67  CD       -31.3370   37.7580    1.5540 C.3   171  LYS171      0.0206
     68  CE       -32.2700   36.5940    1.2100 C.3   171  LYS171      0.1093
     69  NZ       -33.3770   36.4250    2.1910 N.3   171  LYS171     -0.1314
     70  N        -34.5620   43.3220   -1.9590 N.3   201  GLU201     -0.1245
     71  CA       -34.7360   43.7670   -0.5840 C.3   201  GLU201      0.1567
     72  C        -34.1880   45.1880   -0.4530 C.2   201  GLU201      0.2260
     73  O        -33.0290   45.4410   -0.7970 O.2   201  GLU201     -0.2867
     74  CB       -33.9840   42.7860    0.3170 C.3   201  GLU201      0.0388
     75  CG       -34.3970   42.6430    1.7680 C.3   201  GLU201      0.1160
     76  CD       -33.5900   41.5170    2.4570 C.2   201  GLU201      0.3649
     77  OE1      -33.8900   40.3120    2.1910 O.co2 201  GLU201     -0.2457
     78  OE2      -32.6370   41.8410    3.2270 O.co2 201  GLU201     -0.2457
     79  N        -39.2450   44.2390   -1.8870 N.3   220  LEU220     -0.1245
     80  CA       -39.4560   44.0030   -0.4650 C.3   220  LEU220      0.1561
     81  C        -38.9450   45.2000    0.3190 C.2   220  LEU220      0.2260
     82  O        -37.7380   45.4450    0.3500 O.2   220  LEU220     -0.2867
     83  CB       -38.7330   42.7370   -0.0140 C.3   220  LEU220      0.0270
     84  CG       -39.0620   42.2180    1.3790 C.3   220  LEU220      0.0019
     85  CD1      -38.9180   40.6980    1.3960 C.3   220  LEU220      0.0001
     86  CD2      -38.1480   42.8520    2.4070 C.3   220  LEU220      0.0001
     87  N        -37.8670   46.5260    3.5720 N.3   222  ASP222     -0.1225
     88  CA       -37.3430   45.8000    4.7200 C.3   222  ASP222      0.1805
     89  C        -37.2790   46.7280    5.9260 C.2   222  ASP222      0.2597
     90  O        -36.6250   47.7720    5.8710 O.2   222  ASP222     -0.2718
     91  CB       -35.9590   45.2180    4.4130 C.3   222  ASP222      0.1424
     92  CG       -35.5240   44.1440    5.4340 C.2   222  ASP222      0.3668
     93  OD1      -36.2360   43.1260    5.5760 O.co2 222  ASP222     -0.2456
     94  OD2      -34.4860   44.3290    6.1180 O.co2 222  ASP222     -0.2456
     95  N        -37.9620   46.3370    7.0120 N.am  223  ASN223     -0.1974
     96  CA       -37.8300   46.9760    8.3230 C.3   223  ASN223      0.1688
     97  C        -38.1960   48.4590    8.2820 C.2   223  ASN223      0.2292
     98  O        -37.5900   49.2900    8.9610 O.2   223  ASN223     -0.2864
     99  CB       -36.4210   46.7670    8.8890 C.3   223  ASN223      0.1181
    100  CG       -36.2570   45.3890    9.5200 C.2   223  ASN223      0.2629
    101  OD1      -36.7550   45.1410   10.6290 O.2   223  ASN223     -0.2716
    102  ND2      -35.5860   44.4750    8.8090 N.am  223  ASN223     -0.0877
    103  N        -43.6750   43.9160   -1.0440 N.3   246  GLU246     -0.1245
    104  CA       -43.6830   43.0540    0.1220 C.3   246  GLU246      0.1567
    105  C        -43.1550   43.8470    1.3010 C.2   246  GLU246      0.2260
    106  O        -42.1710   44.5840    1.1700 O.2   246  GLU246     -0.2867
    107  CB       -42.8510   41.7850   -0.1040 C.3   246  GLU246      0.0388
    108  CG       -42.8100   40.8690    1.1170 C.3   246  GLU246      0.1160
    109  CD       -42.1380   39.5120    0.8640 C.2   246  GLU246      0.3649
    110  OE1      -42.0530   39.0600   -0.3070 O.co2 246  GLU246     -0.2457
    111  OE2      -41.7040   38.8870    1.8610 O.co2 246  GLU246     -0.2457
    112  N        -41.7570   43.5190    5.2780 N.3   248  SER248     -0.1202
    113  CA       -41.1330   42.4630    6.0550 C.3   248  SER248      0.2020
    114  C        -40.1590   43.0840    7.0310 C.2   248  SER248      0.2619
    115  O        -39.4690   44.0390    6.6880 O.2   248  SER248     -0.2717
    116  CB       -40.4130   41.4670    5.1400 C.3   248  SER248      0.2103
    117  OG       -40.2000   40.2560    5.8270 O.3   248  SER248     -0.2182
    118  N        -40.1090   42.5290    8.2390 N.am  249  GLY249     -0.1942
    119  CA       -39.1830   42.9790    9.2590 C.3   249  GLY249      0.2014
    120  C        -39.8880   43.3930   10.5320 C.2   249  GLY249      0.2639
    121  O        -40.4620   44.4840   10.6050 O.2   249  GLY249     -0.2714
    122  N        -39.8680   42.5270   11.5420 N.am  250  GLY250     -0.1939
    123  CA       -40.4510   42.8680   12.8220 C.3   250  GLY250      0.2014
    124  C        -41.9610   42.9370   12.8110 C.2   250  GLY250      0.2638
    125  O        -42.5490   43.6570   13.6210 O.2   250  GLY250     -0.2714
    126  N        -42.6110   42.2130   11.9200 N.am  251  ILE251     -0.1977
    127  CA       -44.0640   42.2020   11.8840 C.3   251  ILE251      0.1596
    128  C        -44.5510   41.0310   12.7210 C.2   251  ILE251      0.2287
    129  O        -44.0450   39.9100   12.6010 O.2   251  ILE251     -0.2864
    130  CB       -44.5810   42.1370   10.4380 C.3   251  ILE251      0.0276
    131  CG1      -44.1340   43.3900    9.6890 C.3   251  ILE251      0.0022
    132  CG2      -46.0830   42.0310   10.4140 C.3   251  ILE251      0.0022
    133  CD1      -44.2620   43.2990    8.2260 C.3   251  ILE251      0.0001
    134  N        -44.5760   39.2270    4.9950 N.3   268  SER268     -0.1202
    135  CA       -43.9080   38.0250    5.4730 C.3   268  SER268      0.2020
    136  C        -43.4400   38.2280    6.9050 C.2   268  SER268      0.2619
    137  O        -42.9490   39.3050    7.2680 O.2   268  SER268     -0.2717
    138  CB       -42.7350   37.6510    4.5790 C.3   268  SER268      0.2103
    139  OG       -41.8130   38.7090    4.5560 O.3   268  SER268     -0.2182
    140  N        -43.6320   37.1960    7.7280 N.am  269  MET269     -0.1965
    141  CA       -43.3440   37.2790    9.1540 C.3   269  MET269      0.1736
    142  C        -42.4160   36.1390    9.5350 C.2   269  MET269      0.2617
    143  O        -42.7370   34.9750    9.2890 O.2   269  MET269     -0.2715
    144  CB       -44.6320   37.2300    9.9710 C.3   269  MET269      0.0427
    145  CG       -45.7680   38.0430    9.3480 C.3   269  MET269      0.0599
    146  SD       -47.3480   37.8870   10.2130 S.3   269  MET269     -0.1393
    147  CE       -46.7930   38.1710   11.8870 C.3   269  MET269      0.0692
    148  N        -41.2590   36.4760   10.1230 N.am  270  GLY270     -0.1940
    149  CA       -40.3880   35.4500   10.6660 C.3   270  GLY270      0.2014
    150  C        -41.0020   34.7410   11.8570 C.2   270  GLY270      0.2638
    151  O        -40.6480   33.5920   12.1500 O.2   270  GLY270     -0.2714
    152  N        -41.9410   35.4050   12.5500 N.am  271  MET271     -0.1976
    153  CA       -42.5030   34.8520   13.7820 C.3   271  MET271      0.1605
    154  C        -43.3060   33.5860   13.5110 C.2   271  MET271      0.2287
    155  O        -43.4670   32.7510   14.4000 O.2   271  MET271     -0.2864
    156  CB       -43.4070   35.8800   14.5070 C.3   271  MET271      0.0413
    157  CG       -42.7290   37.2260   14.8670 C.3   271  MET271      0.0598
    158  SD       -41.9640   37.3740   16.5440 S.3   271  MET271     -0.1393
    159  CE       -43.3310   37.7140   17.6840 C.3   271  MET271      0.0692
    160  N        -40.3370   31.1250   13.7850 N.3   274  GLN274     -0.1245
    161  CA       -39.3580   31.2500   14.8560 C.3   274  GLN274      0.1566
    162  C        -39.9710   31.4700   16.2240 C.2   274  GLN274      0.2260
    163  O        -39.2600   31.3190   17.2240 O.2   274  GLN274     -0.2867
    164  CB       -38.3740   32.3920   14.5720 C.3   274  GLN274      0.0367
    165  CG       -37.5340   32.1210   13.3640 C.3   274  GLN274      0.0905
    166  CD       -36.1280   32.6290   13.4850 C.2   274  GLN274      0.2608
    167  OE1      -35.1870   31.9620   13.0410 O.2   274  GLN274     -0.2717
    168  NE2      -35.9650   33.8260   14.0670 N.am  274  GLN274     -0.0878
@<TRIPOS>BOND
     1    53    54    1
     2    54    55    1
     3    54    57    1
     4    55    56    2
     5    57    58    1
     6    52    50    1
     7    46    43    1
     8    46    47    1
     9    48    47    1
    10    48    49    1
    11    70    71    1
    12    79    80    1
    13    58    59    1
    14    43    42    1
    15    43    44    1
    16    61    62    1
    17    50    49    2
    18    50    51    1
    19    42    34   am
    20    64    63    2
    21   103   104    1
    22    40    38   ar
    23    40    41   ar
    24    44    45    2
    25    73    72    2
    26    59    60    1
    27    35    34    2
    28    38    37   ar
    29    34    33    1
    30    71    72    1
    31    71    74    1
    32    80    83    1
    33    80    81    1
    34    62    63    1
    35    62    65    1
    36   110   109   ar
    37   107   104    1
    38   107   108    1
    39    83    84    1
    40    41    39   ar
    41    33    32    1
    42    33    36    1
    43   104   105    1
    44    74    75    1
    45    81    82    2
    46    66    65    1
    47    66    67    1
    48    37    39   ar
    49    37    36    1
    50   109   108    1
    51   109   111   ar
    52   106   105    2
    53    68    67    1
    54    68    69    1
    55    84    85    1
    56    84    86    1
    57    18    19    1
    58    18    17    1
    59    75    76    1
    60    19    20    2
    61    20    22    1
    62    20    21    1
    63    77    76   ar
    64    76    78   ar
    65    17    16    1
    66    87    88    1
    67    16    13    1
    68     4     3    2
    69    91    88    1
    70    91    92    1
    71   139   138    1
    72   138   135    1
    73    88    89    1
    74     1     2    1
    75   134   135    1
    76    12    13    1
    77    12     7   am
    78     3     5   am
    79     3     2    1
    80    13    14    1
    81   116   117    1
    82   116   113    1
    83     7     8    2
    84     7     6    1
    85   112   113    1
    86     6     5    1
    87     6     9    1
    88    92    93   ar
    89    92    94   ar
    90   135   136    1
    91    90    89    2
    92    89    95   am
    93   113   114    1
    94     9    11    1
    95     9    10    1
    96    14    15    2
    97    14    23   am
    98   115   114    2
    99   136   137    2
   100   136   140   am
   101    95    96    1
   102   114   118   am
   103    23    24    1
   104   140   141    1
   105   133   131    1
   106   118   119    1
   107    97    96    1
   108    97    98    2
   109    96    99    1
   110   102   100   am
   111    99   100    1
   112    24    25    1
   113    24    27    1
   114   141   142    1
   115   141   144    1
   116   119   120    1
   117   143   142    2
   118    28    27    1
   119    28    29    1
   120   145   144    1
   121   145   146    1
   122    25    26    2
   123   100   101    2
   124   142   148   am
   125   131   130    1
   126    30    29    1
   127    30    31    1
   128   148   149    1
   129   146   147    1
   130   132   130    1
   131   130   127    1
   132   120   121    2
   133   120   122   am
   134   149   150    1
   135   122   123    1
   136   150   151    2
   137   150   152   am
   138   127   126    1
   139   127   128    1
   140   126   124   am
   141   152   153    1
   142   129   128    2
   143   124   123    1
   144   124   125    2
   145   167   166    2
   146   165   166    1
   147   165   164    1
   148   166   168   am
   149   154   153    1
   150   154   155    2
   151   153   156    1
   152   160   161    1
   153   156   157    1
   154   164   161    1
   155   161   162    1
   156   157   158    1
   157   162   163    2
   158   158   159    1
