@<TRIPOS>MOLECULE
tmp/5az5B02.pdb
 105 101 0 0 0
SMALL
GASTEIGER

@<TRIPOS>ATOM
      1  N        -13.5920   13.6740   72.5990 N.3   217  PHE217     -0.1227
      2  CA       -13.0580   13.0910   71.4020 C.3   217  PHE217      0.1736
      3  C        -11.5890   13.4980   71.2370 C.2   217  PHE217      0.2595
      4  O        -11.2380   14.6630   71.2060 O.2   217  PHE217     -0.2718
      5  CB       -13.8730   13.4410   70.1580 C.3   217  PHE217      0.0547
      6  CG       -13.2920   12.8620   68.9170 C.ar  217  PHE217     -0.0202
      7  CD1      -13.2420   11.4950   68.7380 C.ar  217  PHE217     -0.0042
      8  CD2      -12.6630   13.6670   67.9760 C.ar  217  PHE217     -0.0042
      9  CE1      -12.6390   10.9360   67.6160 C.ar  217  PHE217     -0.0003
     10  CE2      -12.0450   13.1080   66.8510 C.ar  217  PHE217     -0.0003
     11  CZ       -12.0220   11.7450   66.6830 C.ar  217  PHE217     -0.0000
     12  N        -10.7210   12.5050   71.1850 N.am  218  ASN218     -0.1974
     13  CA        -9.3280   12.7390   70.9590 C.3   218  ASN218      0.1688
     14  C         -8.6850   13.4730   72.0840 C.2   218  ASN218      0.2292
     15  O         -7.7440   14.1930   71.8720 O.2   218  ASN218     -0.2864
     16  CB        -9.1020   13.5570   69.7010 C.3   218  ASN218      0.1181
     17  CG        -7.7240   13.3600   69.1480 C.2   218  ASN218      0.2629
     18  OD1       -7.1990   12.2410   69.1510 O.2   218  ASN218     -0.2716
     19  ND2       -7.1410   14.4240   68.6230 N.am  218  ASN218     -0.0877
     20  N        -10.4900   24.7300   67.5350 N.3   302  PHE302     -0.1241
     21  CA       -10.8930   23.3330   67.6930 C.3   302  PHE302      0.1605
     22  C        -12.4100   23.1320   67.9630 C.2   302  PHE302      0.2264
     23  O        -12.8160   22.4640   68.8840 O.2   302  PHE302     -0.2867
     24  CB        -9.9900   22.6530   68.7270 C.3   302  PHE302      0.0534
     25  CG        -8.5890   22.4520   68.2320 C.ar  302  PHE302     -0.0203
     26  CD1       -8.3160   21.4800   67.2830 C.ar  302  PHE302     -0.0042
     27  CD2       -7.5520   23.2620   68.6530 C.ar  302  PHE302     -0.0042
     28  CE1       -7.0410   21.3080   66.7940 C.ar  302  PHE302     -0.0003
     29  CE2       -6.2640   23.0690   68.1790 C.ar  302  PHE302     -0.0003
     30  CZ        -6.0190   22.0960   67.2390 C.ar  302  PHE302     -0.0000
     31  N        -14.0960   21.9580   65.2690 N.3   304  TYR304     -0.1241
     32  CA       -14.3610   21.1450   64.0590 C.3   304  TYR304      0.1605
     33  C        -15.4240   20.1070   64.2970 C.2   304  TYR304      0.2264
     34  O        -15.4720   19.4910   65.3520 O.2   304  TYR304     -0.2867
     35  CB       -13.0900   20.4660   63.4800 C.3   304  TYR304      0.0534
     36  CG       -12.4600   19.3790   64.3560 C.ar  304  TYR304     -0.0201
     37  CD1      -11.6250   19.7040   65.4110 C.ar  304  TYR304     -0.0009
     38  CD2      -12.6900   18.0220   64.1120 C.ar  304  TYR304     -0.0009
     39  CE1      -11.0520   18.7260   66.2150 C.ar  304  TYR304      0.0417
     40  CE2      -12.1190   17.0370   64.9200 C.ar  304  TYR304      0.0417
     41  CZ       -11.2970   17.3970   65.9700 C.ar  304  TYR304      0.1957
     42  OH       -10.7270   16.4480   66.7980 O.3   304  TYR304     -0.2866
     43  N        -15.1710   14.3880   61.2900 N.3   307  GLY307     -0.1210
     44  CA       -15.3940   13.8100   59.9660 C.3   307  GLY307      0.1956
     45  C        -15.9130   14.8200   58.9650 C.2   307  GLY307      0.2613
     46  O        -16.1980   14.4780   57.8290 O.2   307  GLY307     -0.2717
     47  N        -16.0140   16.0820   59.3540 N.am  308  SER308     -0.1938
     48  CA       -16.5660   17.0720   58.4440 C.3   308  SER308      0.2055
     49  C        -15.4420   17.9270   57.8550 C.2   308  SER308      0.2643
     50  O        -14.5090   18.3160   58.5610 O.2   308  SER308     -0.2714
     51  CB       -17.6200   17.9180   59.1600 C.3   308  SER308      0.2130
     52  OG       -17.8790   19.1180   58.4600 O.3   308  SER308     -0.2179
     53  N        -15.5420   18.1840   56.5500 N.am  309  TYR309     -0.1973
     54  CA       -14.6010   18.9920   55.8160 C.3   309  TYR309      0.1639
     55  C        -15.3170   19.9340   54.8500 C.2   309  TYR309      0.2290
     56  O        -15.2250   19.7560   53.6440 O.2   309  TYR309     -0.2864
     57  CB       -13.6730   18.0690   55.0330 C.3   309  TYR309      0.0560
     58  CG       -12.4320   18.7160   54.4390 C.ar  309  TYR309     -0.0198
     59  CD1      -11.8290   19.8500   55.0230 C.ar  309  TYR309     -0.0009
     60  CD2      -11.8050   18.1390   53.3430 C.ar  309  TYR309     -0.0009
     61  CE1      -10.6420   20.3840   54.4980 C.ar  309  TYR309      0.0417
     62  CE2      -10.6220   18.6640   52.8200 C.ar  309  TYR309      0.0417
     63  CZ       -10.0430   19.7810   53.3980 C.ar  309  TYR309      0.1957
     64  OH        -8.9090   20.2930   52.8380 O.3   309  TYR309     -0.2866
     65  N         -8.3780   24.7480   63.8260 N.3   332  GLY332     -0.1225
     66  CA        -9.0840   23.4920   63.9720 C.3   332  GLY332      0.1811
     67  C        -10.5710   23.6260   63.7610 C.2   332  GLY332      0.2280
     68  O        -11.3400   23.0700   64.5180 O.2   332  GLY332     -0.2866
     69  N        -11.4470   23.4030   60.2320 N.3   334  VAL334     -0.1245
     70  CA       -11.2300   22.3880   59.1910 C.3   334  VAL334      0.1561
     71  C        -12.1130   22.6980   57.9920 C.2   334  VAL334      0.2260
     72  O        -13.3390   22.5460   58.0440 O.2   334  VAL334     -0.2867
     73  CB       -11.4690   20.9260   59.6460 C.3   334  VAL334      0.0252
     74  CG1      -11.0720   19.9620   58.5350 C.3   334  VAL334      0.0019
     75  CG2      -10.6730   20.5760   60.8810 C.3   334  VAL334      0.0019
     76  N         -3.8470   24.8640   61.5010 N.3   359  ILE359     -0.1245
     77  CA        -4.4240   23.5420   61.5700 C.3   359  ILE359      0.1561
     78  C         -5.9060   23.5240   61.1010 C.2   359  ILE359      0.2260
     79  O         -6.8060   23.2670   61.8890 O.2   359  ILE359     -0.2867
     80  CB        -4.2820   23.0220   63.0210 C.3   359  ILE359      0.0252
     81  CG1       -2.9400   23.4410   63.6380 C.3   359  ILE359      0.0019
     82  CG2       -4.3600   21.5160   63.0990 C.3   359  ILE359      0.0019
     83  CD1       -2.8240   22.9940   65.0870 C.3   359  ILE359      0.0001
     84  N         -6.3180   22.4390   57.5570 N.3   361  PHE361     -0.1241
     85  CA        -6.1550   21.6290   56.3410 C.3   361  PHE361      0.1605
     86  C         -6.6130   22.3800   55.1140 C.2   361  PHE361      0.2264
     87  O         -7.1480   21.8040   54.1710 O.2   361  PHE361     -0.2867
     88  CB        -6.8570   20.2940   56.4900 C.3   361  PHE361      0.0534
     89  CG        -6.3370   19.5060   57.6280 C.ar  361  PHE361     -0.0203
     90  CD1       -5.1950   18.7280   57.4830 C.ar  361  PHE361     -0.0042
     91  CD2       -6.9350   19.5750   58.8580 C.ar  361  PHE361     -0.0042
     92  CE1       -4.6880   18.0170   58.5500 C.ar  361  PHE361     -0.0003
     93  CE2       -6.4360   18.8620   59.9300 C.ar  361  PHE361     -0.0003
     94  CZ        -5.3050   18.0870   59.7760 C.ar  361  PHE361     -0.0000
     95  N         -2.5820   22.7990   54.3840 N.3   385  ARG385     -0.1245
     96  CA        -2.1580   21.9640   53.2650 C.3   385  ARG385      0.1563
     97  C         -2.1580   22.8000   52.0050 C.2   385  ARG385      0.2260
     98  O         -2.6370   22.3730   50.9840 O.2   385  ARG385     -0.2867
     99  CB        -3.0570   20.7280   53.1090 C.3   385  ARG385      0.0307
    100  CG        -2.9530   19.7150   54.2610 C.3   385  ARG385      0.0489
    101  CD        -2.2470   18.3910   53.9130 C.3   385  ARG385      0.2205
    102  NE        -2.6500   17.3120   54.8430 N.pl3 385  ARG385     -0.0865
    103  CZ        -3.4060   16.2330   54.5500 C.cat 385  ARG385      0.5346
    104  NH1       -3.6970   15.3400   55.5210 N.pl3 385  ARG385      0.1354
    105  NH2       -3.8570   16.0070   53.3060 N.pl3 385  ARG385      0.1354
@<TRIPOS>BOND
     1    98    97    2
     2    97    96    1
     3    62    60   ar
     4    62    63   ar
     5    64    63    1
     6    99    96    1
     7    99   100    1
     8    96    95    1
     9   105   103    1
    10    60    58   ar
    11    63    61   ar
    12    56    55    2
    13   101   100    1
    14   101   102    1
    15    87    86    2
    16    58    59   ar
    17    58    57    1
    18    61    59   ar
    19   103   102    2
    20   103   104    1
    21    55    54    1
    22    57    54    1
    23    86    85    1
    24    54    53    1
    25    85    88    1
    26    85    84    1
    27    88    89    1
    28    53    49   am
    29    90    89   ar
    30    90    92   ar
    31    89    91   ar
    32    46    45    2
    33    49    48    1
    34    49    50    2
    35    71    72    2
    36    71    70    1
    37    48    51    1
    38    48    47    1
    39    52    51    1
    40    74    73    1
    41    92    94   ar
    42    91    93   ar
    43    45    47   am
    44    45    44    1
    45    70    73    1
    46    70    69    1
    47    73    75    1
    48    94    93   ar
    49    44    43    1
    50    78    77    1
    51    78    79    2
    52    76    77    1
    53    77    80    1
    54    80    82    1
    55    80    81    1
    56    35    32    1
    57    35    36    1
    58    81    83    1
    59    67    66    1
    60    67    68    2
    61    65    66    1
    62    32    33    1
    63    32    31    1
    64    38    36   ar
    65    38    40   ar
    66    33    34    2
    67    36    37   ar
    68    40    41   ar
    69    37    39   ar
    70    41    39   ar
    71    41    42    1
    72    11    10   ar
    73    11     9   ar
    74    28    30   ar
    75    28    26   ar
    76    10     8   ar
    77    30    29   ar
    78    26    25   ar
    79    20    21    1
    80     9     7   ar
    81    21    22    1
    82    21    24    1
    83    22    23    2
    84     8     6   ar
    85    29    27   ar
    86    25    27   ar
    87    25    24    1
    88    19    17   am
    89     7     6   ar
    90     6     5    1
    91    17    18    2
    92    17    16    1
    93    16    13    1
    94     5     2    1
    95    13    12    1
    96    13    14    1
    97    12     3   am
    98     4     3    2
    99     3     2    1
   100     2     1    1
   101    15    14    2
