@<TRIPOS>MOLECULE
tmp/5az8A00.pdb
 217 205 0 0 0
SMALL
GASTEIGER

@<TRIPOS>ATOM
      1  N        -21.1800  -23.3820   22.5480 N.3    51  ALA51      -0.1245
      2  CA       -21.7650  -24.6840   22.2000 C.3    51  ALA51       0.1562
      3  C        -21.1900  -25.8120   23.0600 C.2    51  ALA51       0.2260
      4  O        -21.8510  -26.8110   23.2510 O.2    51  ALA51      -0.2867
      5  CB       -21.5010  -25.0050   20.7290 C.3    51  ALA51       0.0290
      6  N        -29.6020  -17.3280   20.0730 N.3    70  ALA70      -0.1231
      7  CA       -30.7820  -17.8610   20.7840 C.3    70  ALA70       0.1694
      8  C        -31.3560  -19.0950   20.1350 C.2    70  ALA70       0.2592
      9  O        -31.7150  -20.0700   20.8570 O.2    70  ALA70      -0.2718
     10  CB       -31.8230  -16.7860   20.8750 C.3    70  ALA70       0.0304
     11  N        -31.3370  -19.1200   18.7940 N.am   71  GLN71      -0.1966
     12  CA       -31.7890  -20.3050   18.0780 C.3    71  GLN71       0.1733
     13  C        -30.9590  -21.5120   18.4380 C.2    71  GLN71       0.2617
     14  O        -31.5030  -22.6340   18.4450 O.2    71  GLN71      -0.2715
     15  CB       -31.7360  -20.0500   16.5530 C.3    71  GLN71       0.0408
     16  CG       -32.2520  -21.2460   15.7160 C.3    71  GLN71       0.0908
     17  CD       -32.0660  -20.9840   14.2210 C.2    71  GLN71       0.2608
     18  OE1      -30.9370  -20.7260   13.7430 O.2    71  GLN71      -0.2717
     19  NE2      -33.1600  -21.0000   13.4970 N.am   71  GLN71      -0.0878
     20  N        -29.6680  -21.3350   18.6190 N.am   72  SER72      -0.1936
     21  CA       -28.7020  -22.3880   19.0070 C.3    72  SER72       0.2055
     22  C        -28.6990  -22.6870   20.5380 C.2    72  SER72       0.2644
     23  O        -27.8810  -23.5460   21.0270 O.2    72  SER72      -0.2714
     24  CB       -27.3510  -22.0960   18.4570 C.3    72  SER72       0.2130
     25  OG       -27.3620  -22.3350   17.0650 O.3    72  SER72      -0.2179
     26  N        -29.6240  -22.0600   21.2800 N.am   73  GLY73      -0.1939
     27  CA       -29.6720  -22.2780   22.7040 C.3    73  GLY73       0.2014
     28  C        -28.5140  -21.7470   23.5070 C.2    73  GLY73       0.2638
     29  O        -28.2780  -22.2530   24.6190 O.2    73  GLY73      -0.2714
     30  N        -27.8200  -20.7230   23.0230 N.am   74  LEU74      -0.1977
     31  CA       -26.6260  -20.2690   23.6290 C.3    74  LEU74       0.1596
     32  C        -26.8480  -19.1730   24.6760 C.2    74  LEU74       0.2287
     33  O        -25.8880  -18.7740   25.3250 O.2    74  LEU74      -0.2864
     34  CB       -25.6230  -19.7880   22.6290 C.3    74  LEU74       0.0297
     35  CG       -25.3500  -20.8350   21.4860 C.3    74  LEU74       0.0022
     36  CD1      -24.4330  -20.1350   20.4970 C.3    74  LEU74       0.0001
     37  CD2      -24.8200  -22.1660   22.0560 C.3    74  LEU74       0.0001
     38  N        -26.6850  -13.7240    9.7190 N.3   336  SER336     -0.1202
     39  CA       -25.2860  -14.1980    9.5400 C.3   336  SER336      0.2020
     40  C        -24.9810  -14.5710    8.0300 C.2   336  SER336      0.2618
     41  O        -23.9630  -14.1250    7.4600 O.2   336  SER336     -0.2717
     42  CB       -25.0170  -15.3380   10.6190 C.3   336  SER336      0.2103
     43  OG       -25.2930  -16.5400   10.1300 O.3   336  SER336     -0.2182
     44  N        -25.8610  -15.3020    7.3930 N.am  337  ALA337     -0.1979
     45  CA       -25.7640  -15.5920    5.9700 C.3   337  ALA337      0.1597
     46  C        -25.7700  -14.3910    5.0570 C.2   337  ALA337      0.2287
     47  O        -24.9180  -14.2710    4.1520 O.2   337  ALA337     -0.2864
     48  CB       -26.9020  -16.5370    5.5530 C.3   337  ALA337      0.0319
     49  N        -22.3260  -12.5650    5.5150 N.3   340  TYR340     -0.1227
     50  CA       -21.1750  -13.2760    4.9020 C.3   340  TYR340      0.1736
     51  C        -21.2530  -13.1250    3.4000 C.2   340  TYR340      0.2595
     52  O        -20.2330  -12.8370    2.7680 O.2   340  TYR340     -0.2718
     53  CB       -21.2060  -14.7390    5.2390 C.3   340  TYR340      0.0548
     54  CG       -19.8610  -15.4360    5.1600 C.ar  340  TYR340     -0.0200
     55  CD1      -19.1120  -15.7170    6.3330 C.ar  340  TYR340     -0.0009
     56  CD2      -19.3150  -15.8440    3.9100 C.ar  340  TYR340     -0.0009
     57  CE1      -17.8740  -16.3990    6.2510 C.ar  340  TYR340      0.0417
     58  CE2      -18.0960  -16.5360    3.8300 C.ar  340  TYR340      0.0417
     59  CZ       -17.3770  -16.8060    4.9940 C.ar  340  TYR340      0.1957
     60  OH       -16.1710  -17.4660    4.8980 O.3   340  TYR340     -0.2866
     61  N        -22.4560  -13.2590    2.8380 N.am  341  ALA341     -0.1980
     62  CA       -22.6100  -13.1860    1.4340 C.3   341  ALA341      0.1597
     63  C        -22.3290  -11.7640    0.8840 C.2   341  ALA341      0.2287
     64  O        -21.6570  -11.6150   -0.1610 O.2   341  ALA341     -0.2864
     65  CB       -23.9730  -13.7320    0.9900 C.3   341  ALA341      0.0319
     66  N        -26.3620  -17.2980   -3.1460 N.3   366  ARG366     -0.1231
     67  CA       -25.7620  -17.9660   -1.9790 C.3   366  ARG366      0.1694
     68  C        -26.6890  -17.8470   -0.7550 C.2   366  ARG366      0.2591
     69  O        -26.8960  -18.8280   -0.0470 O.2   366  ARG366     -0.2718
     70  CB       -24.3820  -17.3550   -1.6200 C.3   366  ARG366      0.0321
     71  CG       -23.2650  -17.8190   -2.5210 C.3   366  ARG366      0.0489
     72  CD       -22.0920  -16.7930   -2.4890 C.3   366  ARG366      0.2205
     73  NE       -20.8330  -17.2500   -1.8580 N.pl3 366  ARG366     -0.0865
     74  CZ       -20.2290  -16.6960   -0.7860 C.cat 366  ARG366      0.5346
     75  NH1      -20.7250  -15.6450   -0.1300 N.pl3 366  ARG366      0.1354
     76  NH2      -19.0960  -17.2100   -0.3500 N.pl3 366  ARG366      0.1354
     77  N        -27.2760  -16.6670   -0.5140 N.am  367  ILE367     -0.1980
     78  CA       -28.1780  -16.4890    0.6280 C.3   367  ILE367      0.1595
     79  C        -29.3670  -17.4680    0.4500 C.2   367  ILE367      0.2287
     80  O        -29.7350  -18.1410    1.3870 O.2   367  ILE367     -0.2864
     81  CB       -28.6570  -15.0300    0.8050 C.3   367  ILE367      0.0276
     82  CG1      -27.4460  -14.1210    1.1530 C.3   367  ILE367      0.0022
     83  CG2      -29.7650  -14.9240    1.8440 C.3   367  ILE367      0.0022
     84  CD1      -27.7670  -12.6330    0.9380 C.3   367  ILE367      0.0001
     85  N        -28.3920  -21.1790    0.8400 N.3   370  ALA370     -0.1245
     86  CA       -28.1410  -21.5300    2.2420 C.3   370  ALA370      0.1562
     87  C        -29.4570  -21.6960    3.0050 C.2   370  ALA370      0.2260
     88  O        -29.6860  -22.7100    3.6830 O.2   370  ALA370     -0.2867
     89  CB       -27.1950  -20.5100    2.8770 C.3   370  ALA370      0.0290
     90  N        -31.5040  -24.9100    1.7920 N.3   373  VAL373     -0.1231
     91  CA       -30.9120  -26.1620    2.3260 C.3   373  VAL373      0.1692
     92  C        -31.1650  -26.3120    3.8320 C.2   373  VAL373      0.2591
     93  O        -31.5380  -27.4120    4.3110 O.2   373  VAL373     -0.2718
     94  CB       -29.4230  -26.2960    1.9630 C.3   373  VAL373      0.0266
     95  CG1      -28.8040  -27.5050    2.6890 C.3   373  VAL373      0.0020
     96  CG2      -29.2480  -26.4080    0.4650 C.3   373  VAL373      0.0020
     97  N        -30.9830  -25.2260    4.6120 N.am  374  GLN374     -0.1979
     98  CA       -31.2130  -25.2700    6.0700 C.3   374  GLN374      0.1601
     99  C        -32.6780  -25.6660    6.2880 C.2   374  GLN374      0.2287
    100  O        -32.9560  -26.4930    7.1420 O.2   374  GLN374     -0.2864
    101  CB       -30.9500  -23.8880    6.6760 C.3   374  GLN374      0.0394
    102  CG       -29.4870  -23.5440    6.7420 C.3   374  GLN374      0.0908
    103  CD       -29.1930  -22.0390    6.9660 C.2   374  GLN374      0.2608
    104  OE1      -30.0780  -21.1990    7.2620 O.2   374  GLN374     -0.2717
    105  NE2      -27.9050  -21.6910    6.8260 N.am  374  GLN374     -0.0878
    106  N        -33.2420  -29.4470    5.4340 N.3   377  PHE377     -0.1227
    107  CA       -32.5110  -30.2500    6.4510 C.3   377  PHE377      0.1736
    108  C        -33.3570  -30.3630    7.7230 C.2   377  PHE377      0.2595
    109  O        -33.7060  -31.4670    8.1750 O.2   377  PHE377     -0.2718
    110  CB       -31.1940  -29.6060    6.7940 C.3   377  PHE377      0.0547
    111  CG       -30.4410  -30.2950    7.8710 C.ar  377  PHE377     -0.0202
    112  CD1      -29.7020  -31.4330    7.5610 C.ar  377  PHE377     -0.0042
    113  CD2      -30.3710  -29.7880    9.1440 C.ar  377  PHE377     -0.0042
    114  CE1      -28.9400  -32.0550    8.5490 C.ar  377  PHE377     -0.0003
    115  CE2      -29.6190  -30.3880   10.1340 C.ar  377  PHE377     -0.0003
    116  CZ       -28.9070  -31.5530    9.8180 C.ar  377  PHE377     -0.0000
    117  N        -33.7760  -29.1970    8.2380 N.am  378  LEU378     -0.1980
    118  CA       -34.5200  -29.1820    9.4880 C.3   378  LEU378      0.1596
    119  C        -35.8850  -29.8340    9.3380 C.2   378  LEU378      0.2287
    120  O        -36.3080  -30.6250   10.2340 O.2   378  LEU378     -0.2864
    121  CB       -34.6970  -27.7470   10.0420 C.3   378  LEU378      0.0297
    122  CG       -33.3770  -27.1660   10.5270 C.3   378  LEU378      0.0022
    123  CD1      -33.5830  -25.6630   10.8140 C.3   378  LEU378      0.0001
    124  CD2      -32.8320  -27.9190   11.7190 C.3   378  LEU378      0.0001
    125  N        -35.5020  -33.7760    9.1400 N.3   381  ILE381     -0.1231
    126  CA       -35.1550  -34.4120   10.4230 C.3   381  ILE381      0.1692
    127  C        -36.4360  -34.4800   11.2490 C.2   381  ILE381      0.2591
    128  O        -36.7950  -35.5150   11.8350 O.2   381  ILE381     -0.2718
    129  CB       -34.0690  -33.6760   11.2010 C.3   381  ILE381      0.0266
    130  CG1      -32.7170  -33.6950   10.4840 C.3   381  ILE381      0.0019
    131  CG2      -33.8900  -34.3010   12.5980 C.3   381  ILE381      0.0020
    132  CD1      -32.0260  -35.0280   10.4780 C.3   381  ILE381      0.0001
    133  N        -37.1760  -33.3750   11.2950 N.am  382  GLN382     -0.1979
    134  CA       -38.4330  -33.3770   12.0840 C.3   382  GLN382      0.1601
    135  C        -39.4230  -34.3660   11.6080 C.2   382  GLN382      0.2287
    136  O        -39.9850  -35.1520   12.4260 O.2   382  GLN382     -0.2864
    137  CB       -39.0890  -31.9720   12.0770 C.3   382  GLN382      0.0394
    138  CG       -38.3700  -31.1110   13.0780 C.3   382  GLN382      0.0908
    139  CD       -39.0070  -29.7530   13.3440 C.2   382  GLN382      0.2608
    140  OE1      -40.2330  -29.6370   13.5240 O.2   382  GLN382     -0.2717
    141  NE2      -38.1640  -28.7210   13.4120 N.am  382  GLN382     -0.0878
    142  N        -38.2440  -38.0060   12.3140 N.3   385  GLU385     -0.1245
    143  CA       -38.3510  -38.3260   13.7590 C.3   385  GLU385      0.1567
    144  C        -39.8370  -38.5300   14.1210 C.2   385  GLU385      0.2260
    145  O        -40.1890  -39.4960   14.8420 O.2   385  GLU385     -0.2867
    146  CB       -37.6720  -37.3240   14.6540 C.3   385  GLU385      0.0388
    147  CG       -36.1440  -37.4470   14.6300 C.3   385  GLU385      0.1160
    148  CD       -35.4030  -36.4200   15.4310 C.2   385  GLU385      0.3649
    149  OE1      -36.0080  -35.4730   15.9480 O.co2 385  GLU385     -0.2457
    150  OE2      -34.1490  -36.5280   15.4970 O.co2 385  GLU385     -0.2457
    151  N        -27.9800  -33.9930    2.5000 N.3   406  VAL406     -0.1231
    152  CA       -27.6050  -32.5740    2.3210 C.3   406  VAL406      0.1692
    153  C        -26.6800  -32.0670    3.4250 C.2   406  VAL406      0.2592
    154  O        -26.5870  -30.8480    3.7200 O.2   406  VAL406     -0.2718
    155  CB       -28.8420  -31.6750    2.1320 C.3   406  VAL406      0.0266
    156  CG1      -29.6290  -32.1260    0.9340 C.3   406  VAL406      0.0020
    157  CG2      -29.6690  -31.6060    3.3800 C.3   406  VAL406      0.0020
    158  N        -26.0030  -32.9820    4.0940 N.am  407  CYS407     -0.1956
    159  CA       -25.0120  -32.6680    5.1130 C.3   407  CYS407      0.1843
    160  C        -23.6600  -33.2370    4.6790 C.2   407  CYS407      0.2626
    161  O        -23.4560  -34.4560    4.7020 O.2   407  CYS407     -0.2714
    162  CB       -25.4890  -33.2080    6.5050 C.3   407  CYS407      0.0997
    163  SG       -24.3740  -32.8770    7.8890 S.3   407  CYS407     -0.0797
    164  N        -22.6940  -32.3770    4.3170 N.am  408  GLY408     -0.1940
    165  CA       -21.4380  -32.8970    3.7820 C.3   408  GLY408      0.2014
    166  C        -20.5700  -33.6570    4.7710 C.2   408  GLY408      0.2638
    167  O        -19.7000  -34.4740    4.3690 O.2   408  GLY408     -0.2714
    168  N        -20.6960  -33.3460    6.0520 N.am  409  GLN409     -0.1977
    169  CA       -19.9160  -33.9190    7.1310 C.3   409  GLN409      0.1601
    170  C        -20.8660  -34.3610    8.2330 C.2   409  GLN409      0.2287
    171  O        -21.0770  -33.6470    9.2340 O.2   409  GLN409     -0.2864
    172  CB       -18.9610  -32.8640    7.6790 C.3   409  GLN409      0.0394
    173  CG       -17.8680  -32.4980    6.6830 C.3   409  GLN409      0.0908
    174  CD       -17.0680  -31.2560    7.1040 C.2   409  GLN409      0.2608
    175  OE1      -17.6210  -30.2780    7.5630 O.2   409  GLN409     -0.2717
    176  NE2      -15.7450  -31.2960    6.8980 N.am  409  GLN409     -0.0878
    177  N        -21.3620  -35.5730   13.3040 N.3   412  GLN412     -0.1231
    178  CA       -21.9910  -35.0360   14.4920 C.3   412  GLN412      0.1698
    179  C        -23.4970  -35.2500   14.4690 C.2   412  GLN412      0.2592
    180  O        -24.0570  -35.6120   15.5100 O.2   412  GLN412     -0.2718
    181  CB       -21.6190  -33.5690   14.6980 C.3   412  GLN412      0.0381
    182  CG       -20.1180  -33.4210   14.9270 C.3   412  GLN412      0.0905
    183  CD       -19.7170  -33.8530   16.3440 C.2   412  GLN412      0.2608
    184  OE1      -20.3800  -33.4800   17.3180 O.2   412  GLN412     -0.2717
    185  NE2      -18.6440  -34.6500   16.4620 N.am  412  GLN412     -0.0878
    186  N        -24.1140  -35.1020   13.2910 N.am  413  LEU413     -0.1980
    187  CA       -25.5190  -35.3370   13.1430 C.3   413  LEU413      0.1596
    188  C        -25.8310  -36.8270   13.5050 C.2   413  LEU413      0.2287
    189  O        -26.7740  -37.1100   14.2260 O.2   413  LEU413     -0.2864
    190  CB       -25.9590  -35.0760   11.7140 C.3   413  LEU413      0.0297
    191  CG       -27.3220  -35.5620   11.3060 C.3   413  LEU413      0.0022
    192  CD1      -28.3850  -34.9280   12.1980 C.3   413  LEU413      0.0001
    193  CD2      -27.5520  -35.2450    9.8360 C.3   413  LEU413      0.0001
    194  N        -25.8820  -37.3440   17.1890 N.3   416  VAL416     -0.1231
    195  CA       -27.1170  -36.8260   17.7750 C.3   416  VAL416      0.1692
    196  C        -28.2490  -37.7820   17.5240 C.2   416  VAL416      0.2591
    197  O        -28.9460  -38.1250   18.4800 O.2   416  VAL416     -0.2718
    198  CB       -27.5000  -35.4240   17.2360 C.3   416  VAL416      0.0266
    199  CG1      -28.9180  -34.9820   17.5880 C.3   416  VAL416      0.0020
    200  CG2      -26.4540  -34.4230   17.6870 C.3   416  VAL416      0.0020
    201  N        -28.3630  -38.2890   16.2980 N.am  417  LEU417     -0.1980
    202  CA       -29.4130  -39.2530   16.0060 C.3   417  LEU417      0.1596
    203  C        -29.1980  -40.5330   16.8180 C.2   417  LEU417      0.2287
    204  O        -30.2100  -41.1660   17.2370 O.2   417  LEU417     -0.2864
    205  CB       -29.5190  -39.5690   14.5040 C.3   417  LEU417      0.0297
    206  CG       -29.9260  -38.3770   13.5860 C.3   417  LEU417      0.0022
    207  CD1      -29.7990  -38.7610   12.1350 C.3   417  LEU417      0.0001
    208  CD2      -31.3420  -37.8560   13.8590 C.3   417  LEU417      0.0001
    209  N        -28.2550  -40.9150   19.7740 N.3   419  GLN419     -0.1245
    210  CA       -28.7580  -40.6650   21.1250 C.3   419  GLN419      0.1566
    211  C        -30.2510  -40.6920   21.2740 C.2   419  GLN419      0.2260
    212  O        -30.7310  -40.8740   22.3840 O.2   419  GLN419     -0.2867
    213  CB       -28.1400  -39.3340   21.6740 C.3   419  GLN419      0.0367
    214  CG       -26.6180  -39.4650   21.8030 C.3   419  GLN419      0.0905
    215  CD       -25.8480  -38.1390   21.9130 C.2   419  GLN419      0.2608
    216  OE1      -26.4080  -37.0500   21.7570 O.2   419  GLN419     -0.2717
    217  NE2      -24.5360  -38.2380   22.1840 N.am  419  GLN419     -0.0878
@<TRIPOS>BOND
     1    66    67    1
     2    71    72    1
     3    71    70    1
     4    72    73    1
     5    67    70    1
     6    67    68    1
     7    73    74    2
     8    74    76    1
     9    74    75    1
    10    68    77   am
    11    68    69    2
    12    77    78    1
    13    64    63    2
    14    79    78    1
    15    79    80    2
    16    96    94    1
    17    78    81    1
    18    81    82    1
    19    81    83    1
    20    85    86    1
    21    63    62    1
    22   156   155    1
    23    84    82    1
    24    65    62    1
    25    62    61    1
    26    90    91    1
    27    94    91    1
    28    94    95    1
    29   155   152    1
    30   155   157    1
    31    86    89    1
    32    86    87    1
    33   152   151    1
    34   152   153    1
    35    91    92    1
    36    52    51    2
    37    61    51   am
    38    87    88    2
    39    51    50    1
    40   153   154    2
    41   153   158   am
    42   165   164    1
    43   165   166    1
    44    58    56   ar
    45    58    59   ar
    46    92    93    2
    47    92    97   am
    48    56    54   ar
    49   158   159    1
    50    47    46    2
    51   164   160   am
    52   167   166    2
    53    97    98    1
    54   160   161    2
    55   160   159    1
    56   166   168   am
    57    60    59    1
    58    50    53    1
    59    50    49    1
    60    59    57   ar
    61    46    45    1
    62   159   162    1
    63    54    53    1
    64    54    55   ar
    65   106   107    1
    66    48    45    1
    67    45    44    1
    68   168   169    1
    69    98    99    1
    70    98   101    1
    71    57    55   ar
    72    99   100    2
    73   107   110    1
    74   107   108    1
    75   162   163    1
    76   101   102    1
    77   173   174    1
    78   173   172    1
    79   102   103    1
    80   110   111    1
    81   105   103   am
    82   176   174   am
    83   103   104    2
    84   174   175    2
    85   169   172    1
    86   169   170    1
    87    44    40   am
    88    41    40    2
    89   112   111   ar
    90   112   114   ar
    91   108   109    2
    92   108   117   am
    93   111   113   ar
    94    40    39    1
    95   170   171    2
    96   117   118    1
    97   114   116   ar
    98   125   126    1
    99   113   115   ar
   100   119   118    1
   101   119   120    2
   102   118   121    1
   103    39    38    1
   104    39    42    1
   105   116   115   ar
   106   193   191    1
   107   121   122    1
   108    43    42    1
   109   126   129    1
   110   126   127    1
   111   132   130    1
   112   130   129    1
   113   122   123    1
   114   122   124    1
   115   129   131    1
   116   127   133   am
   117   127   128    2
   118   133   134    1
   119   191   190    1
   120   191   192    1
   121   135   134    1
   122   135   136    2
   123   190   187    1
   124   137   134    1
   125   137   138    1
   126   207   206    1
   127   142   143    1
   128   138   139    1
   129   187   186    1
   130   187   188    1
   131   186   179   am
   132   177   178    1
   133   139   141   am
   134   139   140    2
   135    19    17   am
   136   188   189    2
   137   206   208    1
   138   206   205    1
   139    18    17    2
   140   143   144    1
   141   143   146    1
   142   144   145    2
   143    17    16    1
   144   179   178    1
   145   179   180    2
   146   178   181    1
   147   205   202    1
   148   147   146    1
   149   147   148    1
   150   181   182    1
   151   182   183    1
   152   148   150   ar
   153   148   149   ar
   154    16    15    1
   155   202   201    1
   156   202   203    1
   157   201   196   am
   158   183   185   am
   159   183   184    2
   160    15    12    1
   161   203   204    2
   162    25    24    1
   163   194   195    1
   164   198   199    1
   165   198   200    1
   166   198   195    1
   167   196   195    1
   168   196   197    2
   169    12    13    1
   170    12    11    1
   171    13    14    2
   172    13    20   am
   173    24    21    1
   174    20    21    1
   175    11     8   am
   176    21    22    1
   177   209   210    1
   178     6     7    1
   179     8     7    1
   180     8     9    2
   181    36    35    1
   182    22    23    2
   183    22    26   am
   184     5     2    1
   185     7    10    1
   186   210   211    1
   187   210   213    1
   188   211   212    2
   189    26    27    1
   190    35    37    1
   191    35    34    1
   192   213   214    1
   193   216   215    2
   194   214   215    1
   195   215   217   am
   196     2     1    1
   197     2     3    1
   198    34    31    1
   199    27    28    1
   200    30    28   am
   201    30    31    1
   202     3     4    2
   203    28    29    2
   204    31    32    1
   205    32    33    2
