@<TRIPOS>MOLECULE
tmp/5azaA00.pdb
 199 194 0 0 0
SMALL
GASTEIGER

@<TRIPOS>ATOM
      1  N          6.7360   11.2160   33.0300 N.3    12  ASN12      -0.1240
      2  CA         6.4310   10.7250   34.3460 C.3    12  ASN12       0.1653
      3  C          4.9320   10.4120   34.5900 C.2    12  ASN12       0.2266
      4  O          4.0450   11.0300   34.0010 O.2    12  ASN12      -0.2867
      5  CB         6.9460   11.7350   35.3930 C.3    12  ASN12       0.1155
      6  CG         7.3200   11.0650   36.7000 C.2    12  ASN12       0.2627
      7  OD1        7.9800   10.0560   36.7170 O.2    12  ASN12      -0.2716
      8  ND2        6.9420   11.6500   37.7580 N.am   12  ASN12      -0.0877
      9  N          2.9980   10.9230   36.9530 N.3    14  ASP14      -0.1225
     10  CA         2.1540   11.9420   37.5410 C.3    14  ASP14       0.1805
     11  C          1.6630   13.0200   36.5220 C.2    14  ASP14       0.2597
     12  O          0.8910   13.8800   36.8810 O.2    14  ASP14      -0.2718
     13  CB         2.7940   12.5720   38.8360 C.3    14  ASP14       0.1424
     14  CG         4.1660   13.3090   38.5920 C.2    14  ASP14       0.3668
     15  OD1        4.6670   13.4060   37.4280 O.co2  14  ASP14      -0.2456
     16  OD2        4.7710   13.7570   39.6060 O.co2  14  ASP14      -0.2456
     17  N          2.1070   12.9470   35.2790 N.am   15  LYS15      -0.1979
     18  CA         1.7290   13.9070   34.2390 C.3    15  LYS15       0.1596
     19  C          0.6990   13.3050   33.3090 C.2    15  LYS15       0.2287
     20  O          0.2690   12.1080   33.4420 O.2    15  LYS15      -0.2864
     21  CB         2.9760   14.3330   33.4320 C.3    15  LYS15       0.0298
     22  CG         4.1920   14.7430   34.2960 C.3    15  LYS15       0.0038
     23  CD         3.9400   16.0350   35.0350 C.3    15  LYS15       0.0206
     24  CE         5.1630   16.7000   35.7290 C.3    15  LYS15       0.1093
     25  NZ         5.7960   15.7510   36.6340 N.3    15  LYS15      -0.1314
     26  N         13.8990    9.2090   35.2990 N.3    44  GLU44      -0.1245
     27  CA        14.9710   10.1750   35.2850 C.3    44  GLU44       0.1567
     28  C         16.3720    9.4950   35.6050 C.2    44  GLU44       0.2260
     29  O         17.3850   10.0640   35.3010 O.2    44  GLU44      -0.2867
     30  CB        14.6640   11.3490   36.2600 C.3    44  GLU44       0.0388
     31  CG        14.9570   11.1520   37.7260 C.3    44  GLU44       0.1160
     32  CD        13.9390   10.2860   38.4630 C.2    44  GLU44       0.3649
     33  OE1       13.1290    9.6400   37.8070 O.co2  44  GLU44      -0.2457
     34  OE2       13.9500   10.2570   39.7140 O.co2  44  GLU44      -0.2457
     35  N         11.0550   15.6570   31.2300 N.3    62  TRP62      -0.1227
     36  CA        11.3520   15.7940   32.6640 C.3    62  TRP62       0.1737
     37  C         11.4820   17.2850   32.9470 C.2    62  TRP62       0.2595
     38  O         11.6850   18.0820   32.0250 O.2    62  TRP62      -0.2718
     39  CB        12.6230   15.0270   33.0800 C.3    62  TRP62       0.0564
     40  CG        12.7210   14.8430   34.5980 C.ar   62  TRP62       0.0003
     41  CD1       13.4280   15.6430   35.4910 C.ar   62  TRP62       0.0946
     42  CD2       12.0060   13.8700   35.4160 C.ar   62  TRP62       0.0152
     43  NE1       13.2060   15.2200   36.7840 N.ar   62  TRP62      -0.2442
     44  CE2       12.3520   14.1350   36.7760 C.ar   62  TRP62       0.0810
     45  CE3       11.1510   12.7940   35.1290 C.ar   62  TRP62       0.0012
     46  CZ2       11.8880   13.3540   37.8390 C.ar   62  TRP62       0.0191
     47  CZ3       10.6470   11.9990   36.2100 C.ar   62  TRP62       0.0001
     48  CH2       11.0360   12.2760   37.5540 C.ar   62  TRP62       0.0015
     49  N         11.4220   17.6750   34.2200 N.am   63  ALA63      -0.1980
     50  CA        11.8230   19.0290   34.5940 C.3    63  ALA63       0.1597
     51  C         13.2620   19.3200   34.1190 C.2    63  ALA63       0.2287
     52  O         14.0720   18.4180   34.0510 O.2    63  ALA63      -0.2864
     53  CB        11.6930   19.2070   36.0780 C.3    63  ALA63       0.0319
     54  N         15.9350   20.4020   35.2420 N.3    65  ASP65      -0.1225
     55  CA        17.1110   20.3280   36.1030 C.3    65  ASP65       0.1805
     56  C         18.0340   19.1500   35.8040 C.2    65  ASP65       0.2597
     57  O         19.2070   19.2390   36.0240 O.2    65  ASP65      -0.2718
     58  CB        16.7170   20.3240   37.5830 C.3    65  ASP65       0.1424
     59  CG        15.8280   19.1550   37.9770 C.2    65  ASP65       0.3668
     60  OD1       14.6160   19.1100   37.5690 O.co2  65  ASP65      -0.2456
     61  OD2       16.3400   18.2920   38.7460 O.co2  65  ASP65      -0.2456
     62  N         17.4800   18.0650   35.2920 N.am   66  ARG66      -0.1979
     63  CA        18.2650   16.9100   34.9310 C.3    66  ARG66       0.1597
     64  C         18.9880   16.9520   33.5750 C.2    66  ARG66       0.2287
     65  O         19.8340   16.0700   33.3030 O.2    66  ARG66      -0.2864
     66  CB        17.3660   15.6520   34.9220 C.3    66  ARG66       0.0334
     67  CG        16.7000   15.2730   36.2400 C.3    66  ARG66       0.0492
     68  CD        17.4080   14.1350   36.9290 C.3    66  ARG66       0.2205
     69  NE        17.0470   14.0340   38.3610 N.pl3  66  ARG66      -0.0865
     70  CZ        17.6970   13.2660   39.2360 C.cat  66  ARG66       0.5346
     71  NH1       18.7250   12.4710   38.8250 N.pl3  66  ARG66       0.1354
     72  NH2       17.3750   13.3300   40.5160 N.pl3  66  ARG66       0.1354
     73  N          6.2850   24.8430   36.5130 N.3   111  GLU111     -0.1245
     74  CA         5.6430   24.2110   37.6130 C.3   111  GLU111      0.1567
     75  C          6.1730   24.7680   38.9140 C.2   111  GLU111      0.2260
     76  O          7.3880   25.0260   39.0570 O.2   111  GLU111     -0.2867
     77  CB         5.8410   22.6650   37.6090 C.3   111  GLU111      0.0388
     78  CG         6.1420   21.9930   36.2620 C.3   111  GLU111      0.1160
     79  CD         6.5230   20.5140   36.3870 C.2   111  GLU111      0.3649
     80  OE1        7.3930   20.1140   37.2060 O.co2 111  GLU111     -0.2457
     81  OE2        5.9730   19.7320   35.6160 O.co2 111  GLU111     -0.2457
     82  N          4.1190   14.5500   50.6030 N.3   150  ASN150     -0.1240
     83  CA         5.2060   13.6120   50.3730 C.3   150  ASN150      0.1653
     84  C          6.4510   14.0060   51.1110 C.2   150  ASN150      0.2266
     85  O          7.1000   15.0050   50.7820 O.2   150  ASN150     -0.2867
     86  CB         5.4780   13.5330   48.8700 C.3   150  ASN150      0.1155
     87  CG         6.4680   12.4560   48.4850 C.2   150  ASN150      0.2627
     88  OD1        6.9530   11.6590   49.3080 O.2   150  ASN150     -0.2716
     89  ND2        6.7350   12.3990   47.2080 N.am  150  ASN150     -0.0877
     90  N         10.5880   13.0170   49.2460 N.3   153  GLU153     -0.1231
     91  CA        11.3640   13.7330   48.2070 C.3   153  GLU153      0.1684
     92  C         11.6290   15.1290   48.6310 C.2   153  GLU153      0.2434
     93  O         10.6880   15.8250   48.9780 O.2   153  GLU153     -0.2733
     94  CB        10.5520   13.8230   46.8980 C.3   153  GLU153      0.0402
     95  CG        10.4810   12.5610   46.0860 C.3   153  GLU153      0.1161
     96  CD        11.8150   12.0720   45.5670 C.2   153  GLU153      0.3649
     97  OE1       12.7700   12.8230   45.2510 O.co2 153  GLU153     -0.2457
     98  OE2       11.8790   10.8700   45.4360 O.co2 153  GLU153     -0.2457
     99  N         12.8810   15.5800   48.4990 N.am  154  PRO154     -0.2718
    100  CA        13.2880   16.9090   48.8990 C.3   154  PRO154      0.1535
    101  C         12.6980   18.0460   48.0500 C.2   154  PRO154      0.2599
    102  O         12.6780   19.1780   48.5110 O.2   154  PRO154     -0.2715
    103  CB        14.8200   16.8920   48.7510 C.3   154  PRO154      0.0310
    104  CG        15.1190   15.8020   47.7730 C.3   154  PRO154      0.0237
    105  CD        13.9900   14.7940   47.9170 C.3   154  PRO154      0.0939
    106  N         12.1820   17.7420   46.8620 N.am  155  TYR155     -0.1960
    107  CA        11.3870   18.6960   46.1190 C.3   155  TYR155      0.1771
    108  C         10.3080   19.3010   47.0190 C.2   155  TYR155      0.2619
    109  O         10.0970   20.5210   47.0160 O.2   155  TYR155     -0.2715
    110  CB        10.7430   18.0020   44.9390 C.3   155  TYR155      0.0574
    111  CG         9.9520   18.8730   44.0120 C.ar  155  TYR155     -0.0198
    112  CD1       10.5870   19.7750   43.1840 C.ar  155  TYR155     -0.0009
    113  CD2        8.5510   18.7290   43.8950 C.ar  155  TYR155     -0.0009
    114  CE1        9.8690   20.5650   42.2850 C.ar  155  TYR155      0.0417
    115  CE2        7.8470   19.5270   43.0280 C.ar  155  TYR155      0.0417
    116  CZ         8.5210   20.4040   42.1870 C.ar  155  TYR155      0.1957
    117  OH         7.8620   21.1300   41.2400 O.3   155  TYR155     -0.2866
    118  N          9.7130   18.4490   47.8710 N.am  156  PHE156     -0.1974
    119  CA         8.6200   18.8630   48.7250 C.3   156  PHE156      0.1639
    120  C          9.0020   19.3930   50.0800 C.2   156  PHE156      0.2290
    121  O          8.2790   20.1810   50.5980 O.2   156  PHE156     -0.2864
    122  CB         7.6340   17.6880   48.9790 C.3   156  PHE156      0.0560
    123  CG         6.9440   17.1940   47.7850 C.ar  156  PHE156     -0.0200
    124  CD1        7.5780   16.3170   46.9090 C.ar  156  PHE156     -0.0042
    125  CD2        5.6330   17.5520   47.5350 C.ar  156  PHE156     -0.0042
    126  CE1        6.9680   15.8620   45.7550 C.ar  156  PHE156     -0.0003
    127  CE2        4.9920   17.0780   46.3970 C.ar  156  PHE156     -0.0003
    128  CZ         5.6530   16.2180   45.5010 C.ar  156  PHE156     -0.0000
    129  N          3.9460   10.0690   48.2400 N.3   210  TYR210     -0.1241
    130  CA         3.1000   10.8000   47.3470 C.3   210  TYR210      0.1605
    131  C          1.7140   10.1820   47.3130 C.2   210  TYR210      0.2264
    132  O          0.6890   10.9160   47.3920 O.2   210  TYR210     -0.2867
    133  CB         3.7250   10.8640   45.9100 C.3   210  TYR210      0.0534
    134  CG         2.9170   11.7300   44.9820 C.ar  210  TYR210     -0.0201
    135  CD1        1.7710   11.2450   44.3710 C.ar  210  TYR210     -0.0009
    136  CD2        3.2800   13.0690   44.7470 C.ar  210  TYR210     -0.0009
    137  CE1        1.0150   12.0640   43.5490 C.ar  210  TYR210      0.0417
    138  CE2        2.5280   13.8730   43.9430 C.ar  210  TYR210      0.0417
    139  CZ         1.4160   13.3690   43.3350 C.ar  210  TYR210      0.1957
    140  OH         0.6770   14.2260   42.5430 O.3   210  TYR210     -0.2866
    141  N         -0.3880   19.2420   38.4590 N.3   230  TRP230     -0.1241
    142  CA        -0.7110   17.8840   37.9760 C.3   230  TRP230      0.1605
    143  C         -1.6970   17.1560   38.9040 C.2   230  TRP230      0.2264
    144  O         -2.4300   16.2730   38.4340 O.2   230  TRP230     -0.2867
    145  CB         0.5650   17.0360   37.7600 C.3   230  TRP230      0.0550
    146  CG         1.4260   17.0060   38.9480 C.ar  230  TRP230      0.0003
    147  CD1        1.2720   16.2010   40.0080 C.ar  230  TRP230      0.0946
    148  CD2        2.5590   17.8720   39.2450 C.ar  230  TRP230      0.0152
    149  NE1        2.2380   16.4770   40.9640 N.ar  230  TRP230     -0.2442
    150  CE2        3.0260   17.5080   40.5210 C.ar  230  TRP230      0.0810
    151  CE3        3.1960   18.9210   38.5580 C.ar  230  TRP230      0.0012
    152  CZ2        4.0740   18.1550   41.1290 C.ar  230  TRP230      0.0191
    153  CZ3        4.2310   19.5270   39.1120 C.ar  230  TRP230      0.0001
    154  CH2        4.6860   19.1660   40.4080 C.ar  230  TRP230      0.0015
    155  N         10.4460   24.4220   38.3150 N.3   260  GLY260     -0.1225
    156  CA        10.8570   23.5040   37.2900 C.3   260  GLY260      0.1811
    157  C         10.0970   23.7920   36.0050 C.2   260  GLY260      0.2280
    158  O          8.9130   24.1450   36.0400 O.2   260  GLY260     -0.2866
    159  N          8.9390   21.8100   32.8550 N.3   262  LEU262     -0.1245
    160  CA         8.6860   20.5400   32.2430 C.3   262  LEU262      0.1561
    161  C          9.2260   20.7410   30.8100 C.2   262  LEU262      0.2260
    162  O          8.8820   21.7060   30.1860 O.2   262  LEU262     -0.2867
    163  CB         7.1940   20.2080   32.2120 C.3   262  LEU262      0.0270
    164  CG         6.9050   18.8890   31.5100 C.3   262  LEU262      0.0019
    165  CD1        7.5190   17.7400   32.3300 C.3   262  LEU262      0.0001
    166  CD2        5.4410   18.6430   31.2860 C.3   262  LEU262      0.0001
    167  N         15.5240   26.2040   39.3550 N.3   330  MET330     -0.1245
    168  CA        16.5590   25.1410   39.4940 C.3   330  MET330      0.1570
    169  C         17.6780   25.3520   38.4500 C.2   330  MET330      0.2261
    170  O         17.4150   25.5960   37.3100 O.2   330  MET330     -0.2867
    171  CB        15.9560   23.7840   39.2650 C.3   330  MET330      0.0387
    172  CG        15.0030   23.3500   40.3590 C.3   330  MET330      0.0595
    173  SD        14.3910   21.6870   40.2330 S.3   330  MET330     -0.1393
    174  CE        13.2040   21.7300   38.9400 C.3   330  MET330      0.0692
    175  N         20.6860   16.3790   44.6770 N.3   340  TRP340     -0.1241
    176  CA        19.3900   15.8380   45.1230 C.3   340  TRP340      0.1605
    177  C         19.6340   14.5660   45.9780 C.2   340  TRP340      0.2264
    178  O         18.9410   14.3550   46.9660 O.2   340  TRP340     -0.2867
    179  CB        18.4880   15.5040   43.9730 C.3   340  TRP340      0.0550
    180  CG        17.9390   16.6470   43.1790 C.ar  340  TRP340      0.0003
    181  CD1       18.0320   16.8200   41.8340 C.ar  340  TRP340      0.0946
    182  CD2       17.0910   17.6660   43.6490 C.ar  340  TRP340      0.0152
    183  NE1       17.3570   17.9080   41.4500 N.ar  340  TRP340     -0.2442
    184  CE2       16.7680   18.4740   42.5350 C.ar  340  TRP340      0.0810
    185  CE3       16.5890   18.0020   44.9060 C.ar  340  TRP340      0.0012
    186  CZ2       15.9210   19.5870   42.6250 C.ar  340  TRP340      0.0191
    187  CZ3       15.8190   19.1310   45.0300 C.ar  340  TRP340      0.0001
    188  CH2       15.4660   19.9170   43.8810 C.ar  340  TRP340      0.0015
    189  N         18.2660   14.6180   49.6100 N.3   344  ARG344     -0.1245
    190  CA        17.3030   13.5650   49.8400 C.3   344  ARG344      0.1563
    191  C         17.7350   12.6970   51.0400 C.2   344  ARG344      0.2260
    192  O         16.9370   12.3570   51.8910 O.2   344  ARG344     -0.2867
    193  CB        17.0890   12.6600   48.6280 C.3   344  ARG344      0.0307
    194  CG        16.1410   11.5150   49.0430 C.3   344  ARG344      0.0489
    195  CD        15.5850   10.6340   47.9420 C.3   344  ARG344      0.2205
    196  NE        16.4650   10.7130   46.8300 N.pl3 344  ARG344     -0.0865
    197  CZ        16.2390   11.3140   45.6630 C.cat 344  ARG344      0.5346
    198  NH1       15.0740   11.8630   45.3510 N.pl3 344  ARG344      0.1354
    199  NH2       17.2490   11.3520   44.7940 N.pl3 344  ARG344      0.1354
@<TRIPOS>BOND
     1   162   161    2
     2   161   160    1
     3    35    36    1
     4   166   164    1
     5   164   163    1
     6   164   165    1
     7    38    37    2
     8   163   160    1
     9   160   159    1
    10    36    37    1
    11    36    39    1
    12    37    49   am
    13     1     2    1
    14    39    40    1
    15    65    64    2
    16    19    20    2
    17    19    18    1
    18    21    18    1
    19    21    22    1
    20    64    63    1
    21     4     3    2
    22    52    51    2
    23    51    50    1
    24    49    50    1
    25    18    17    1
    26    22    23    1
    27     2     3    1
    28     2     5    1
    29    50    53    1
    30    40    42   ar
    31    40    41   ar
    32    66    63    1
    33    66    67    1
    34    63    62    1
    35    23    24    1
    36    45    42   ar
    37    45    47   ar
    38    54    55    1
    39    17    11   am
    40    27    26    1
    41    27    28    1
    42    27    30    1
    43    62    56   am
    44    29    28    2
    45     5     6    1
    46    42    44   ar
    47    41    43   ar
    48    81    79   ar
    49    24    25    1
    50    56    57    2
    51    56    55    1
    52   157   158    2
    53   157   156    1
    54    55    58    1
    55    47    48   ar
    56    67    68    1
    57    30    31    1
    58    78    79    1
    59    78    77    1
    60    79    80   ar
    61    73    74    1
    62    11    12    2
    63    11    10    1
    64     6     7    2
    65     6     8   am
    66    44    43   ar
    67    44    46   ar
    68    68    69    1
    69     9    10    1
    70   156   155    1
    71   170   169    2
    72    15    14   ar
    73    10    13    1
    74    48    46   ar
    75    60    59   ar
    76    58    59    1
    77    77    74    1
    78    74    75    1
    79    31    32    1
    80   145   142    1
    81   145   146    1
    82    33    32   ar
    83   142   141    1
    84   142   143    1
    85    59    61   ar
    86    69    70    2
    87   144   143    2
    88   169   168    1
    89    32    34   ar
    90   151   153   ar
    91   151   148   ar
    92    14    13    1
    93    14    16   ar
    94    71    70    1
    95    75    76    2
    96   174   173    1
    97   146   148   ar
    98   146   147   ar
    99   153   154   ar
   100    70    72    1
   101   148   150   ar
   102   171   168    1
   103   171   172    1
   104   167   168    1
   105   147   149   ar
   106   173   172    1
   107   154   152   ar
   108   150   149   ar
   109   150   152   ar
   110   117   116    1
   111   183   181   ar
   112   183   184   ar
   113   181   180   ar
   114   116   114   ar
   115   116   115   ar
   116   114   112   ar
   117   184   186   ar
   118   184   182   ar
   119   140   139    1
   120   186   188   ar
   121   115   113   ar
   122   180   182   ar
   123   180   179    1
   124   112   111   ar
   125   139   137   ar
   126   139   138   ar
   127   137   135   ar
   128   182   185   ar
   129   188   187   ar
   130   113   111   ar
   131   138   136   ar
   132   179   176    1
   133   111   110    1
   134   135   134   ar
   135   175   176    1
   136   136   134   ar
   137   199   197    1
   138   185   187   ar
   139   110   107    1
   140   134   133    1
   141   176   177    1
   142    97    96   ar
   143   198   197    1
   144    98    96   ar
   145   128   126   ar
   146   128   127   ar
   147    96    95    1
   148   197   196    2
   149   126   124   ar
   150   133   130    1
   151   177   178    2
   152    95    94    1
   153   107   106    1
   154   107   108    1
   155   127   125   ar
   156   196   195    1
   157   106   101   am
   158    94    91    1
   159   124   123   ar
   160   109   108    2
   161   108   118   am
   162    89    87   am
   163   131   130    1
   164   131   132    2
   165   130   129    1
   166   125   123   ar
   167   104   105    1
   168   104   103    1
   169   123   122    1
   170   118   119    1
   171   105    99    1
   172   195   194    1
   173   101   102    2
   174   101   100    1
   175    91    92    1
   176    91    90    1
   177    87    86    1
   178    87    88    2
   179    99    92   am
   180    99   100    1
   181   193   194    1
   182   193   190    1
   183    92    93    2
   184   119   122    1
   185   119   120    1
   186   103   100    1
   187    86    83    1
   188   189   190    1
   189   190   191    1
   190   120   121    2
   191    83    82    1
   192    83    84    1
   193    85    84    2
   194   191   192    2
