@<TRIPOS>MOLECULE
tmp/5azfA00.pdb
 163 158 0 0 0
SMALL
GASTEIGER

@<TRIPOS>ATOM
      1  N        -32.2200   28.8530  -11.3670 N.3    20  GLU20      -0.1245
      2  CA       -31.0720   28.3090  -10.6530 C.3    20  GLU20       0.1567
      3  C        -30.4400   27.2280  -11.5260 C.2    20  GLU20       0.2260
      4  O        -29.2180   27.1050  -11.5960 O.2    20  GLU20      -0.2867
      5  CB       -31.5050   27.6870   -9.3230 C.3    20  GLU20       0.0388
      6  CG       -30.3560   27.0570   -8.5530 C.3    20  GLU20       0.1160
      7  CD       -29.6410   28.0420   -7.6520 C.2    20  GLU20       0.3649
      8  OE1      -29.4150   29.1980   -8.0800 O.co2  20  GLU20      -0.2457
      9  OE2      -29.2980   27.6550   -6.5130 O.co2  20  GLU20      -0.2457
     10  N        -26.5750   27.0700  -12.7220 N.3    24  ILE24      -0.1245
     11  CA       -25.6870   25.9700  -12.3590 C.3    24  ILE24       0.1561
     12  C        -25.0890   25.2790  -13.5840 C.2    24  ILE24       0.2260
     13  O        -23.9220   24.8840  -13.5730 O.2    24  ILE24      -0.2867
     14  CB       -26.4300   24.9250  -11.4920 C.3    24  ILE24       0.0252
     15  CG1      -26.8460   25.5650  -10.1630 C.3    24  ILE24       0.0019
     16  CG2      -25.5500   23.7000  -11.2620 C.3    24  ILE24       0.0019
     17  CD1      -25.6980   26.1880   -9.3750 C.3    24  ILE24       0.0001
     18  N        -21.0570   25.6050  -13.7340 N.3    28  TYR28      -0.1241
     19  CA       -20.3680   24.3450  -13.4540 C.3    28  TYR28       0.1605
     20  C        -20.7720   23.2590  -14.4470 C.2    28  TYR28       0.2264
     21  O        -21.3420   22.2350  -14.0690 O.2    28  TYR28      -0.2867
     22  CB       -20.6850   23.8880  -12.0250 C.3    28  TYR28       0.0534
     23  CG       -20.6670   25.0220  -11.0230 C.ar   28  TYR28      -0.0201
     24  CD1      -19.4800   25.6890  -10.7080 C.ar   28  TYR28      -0.0009
     25  CD2      -21.8460   25.4640  -10.4250 C.ar   28  TYR28      -0.0009
     26  CE1      -19.4760   26.7730   -9.8270 C.ar   28  TYR28       0.0417
     27  CE2      -21.8510   26.5430   -9.5460 C.ar   28  TYR28       0.0417
     28  CZ       -20.6640   27.1930   -9.2520 C.ar   28  TYR28       0.1957
     29  OH       -20.6760   28.2750   -8.3980 O.3    28  TYR28      -0.2866
     30  N        -20.0500   19.4230  -14.0270 N.3    31  ARG31      -0.1245
     31  CA       -20.6670   18.7360  -12.8990 C.3    31  ARG31       0.1563
     32  C        -22.1550   18.4980  -13.0940 C.2    31  ARG31       0.2260
     33  O        -22.8380   19.2620  -13.7730 O.2    31  ARG31      -0.2867
     34  CB       -20.4440   19.5370  -11.6140 C.3    31  ARG31       0.0307
     35  CG       -19.0600   19.3610  -11.0000 C.3    31  ARG31       0.0489
     36  CD       -18.9330   18.0090  -10.3120 C.3    31  ARG31       0.2205
     37  NE       -17.5960   17.7920   -9.7640 N.pl3  31  ARG31      -0.0865
     38  CZ       -16.5080   17.5870  -10.5010 C.cat  31  ARG31       0.5346
     39  NH1      -16.5940   17.5660  -11.8250 N.pl3  31  ARG31       0.1354
     40  NH2      -15.3330   17.4040   -9.9140 N.pl3  31  ARG31       0.1354
     41  N        -25.6990   18.4220  -11.3580 N.3    33  PRO33      -0.2102
     42  CA       -26.3860   18.9530  -10.1770 C.3    33  PRO33       0.1504
     43  C        -27.5460   18.0490   -9.7690 C.2    33  PRO33       0.2576
     44  O        -28.4400   17.7670  -10.5720 O.2    33  PRO33      -0.2718
     45  CB       -26.8530   20.3210  -10.6480 C.3    33  PRO33       0.0282
     46  CG       -27.2480   20.0420  -12.0560 C.3    33  PRO33       0.0208
     47  CD       -26.1440   19.1200  -12.5790 C.3    33  PRO33       0.0893
     48  N        -27.5310   17.6050   -8.5180 N.am   34  VAL34      -0.1966
     49  CA       -28.5720   16.7200   -8.0250 C.3    34  VAL34       0.1727
     50  C        -29.2440   17.2540   -6.7660 C.2    34  VAL34       0.2616
     51  O        -28.6090   17.8880   -5.9260 O.2    34  VAL34      -0.2715
     52  CB       -27.9940   15.3160   -7.7110 C.3    34  VAL34       0.0290
     53  CG1      -27.2860   14.7560   -8.9390 C.3    34  VAL34       0.0023
     54  CG2      -27.0370   15.3890   -6.5420 C.3    34  VAL34       0.0023
     55  N        -30.5450   17.0110   -6.6600 N.am   35  ILE35      -0.1977
     56  CA       -31.3120   17.4090   -5.4900 C.3    35  ILE35       0.1596
     57  C        -31.5800   16.0730   -4.8180 C.2    35  ILE35       0.2287
     58  O        -32.1930   15.1870   -5.4200 O.2    35  ILE35      -0.2864
     59  CB       -32.6530   18.0670   -5.8810 C.3    35  ILE35       0.0276
     60  CG1      -32.3970   19.3310   -6.7120 C.3    35  ILE35       0.0022
     61  CG2      -33.4540   18.4010   -4.6310 C.3    35  ILE35       0.0022
     62  CD1      -31.6300   20.4170   -5.9780 C.3    35  ILE35       0.0001
     63  N        -27.6980   18.8870    3.8360 N.3    49  LYS49      -0.1245
     64  CA       -28.0520   19.6840    2.6660 C.3    49  LYS49       0.1561
     65  C        -28.7000   18.7940    1.6150 C.2    49  LYS49       0.2260
     66  O        -28.6420   17.5660    1.7080 O.2    49  LYS49      -0.2867
     67  CB       -26.7990   20.3270    2.0730 C.3    49  LYS49       0.0271
     68  CG       -25.6190   20.3430    3.0300 C.3    49  LYS49       0.0035
     69  CD       -25.1570   21.7510    3.3370 C.3    49  LYS49       0.0206
     70  CE       -26.2620   22.5920    3.9490 C.3    49  LYS49       0.1093
     71  NZ       -25.7780   23.9710    4.2310 N.3    49  LYS49      -0.1314
     72  N        -28.5990   20.0040   -1.9700 N.3    51  LYS51      -0.1231
     73  CA       -27.9940   20.3630   -3.2560 C.3    51  LYS51       0.1693
     74  C        -26.5510   19.8770   -3.3870 C.2    51  LYS51       0.2592
     75  O        -25.6550   20.3670   -2.6910 O.2    51  LYS51      -0.2718
     76  CB       -28.0070   21.8790   -3.4410 C.3    51  LYS51       0.0285
     77  CG       -29.3790   22.5280   -3.4790 C.3    51  LYS51       0.0035
     78  CD       -29.2090   24.0380   -3.5950 C.3    51  LYS51       0.0206
     79  CE       -30.5300   24.7520   -3.7550 C.3    51  LYS51       0.1093
     80  NZ       -30.3340   26.2310   -3.8110 N.3    51  LYS51      -0.1314
     81  N        -26.3220   18.9380   -4.2980 N.am   52  TYR52      -0.1962
     82  CA       -24.9870   18.3950   -4.5010 C.3    52  TYR52       0.1771
     83  C        -24.5420   18.4250   -5.9520 C.2    52  TYR52       0.2619
     84  O        -25.3630   18.4380   -6.8650 O.2    52  TYR52      -0.2715
     85  CB       -24.9280   16.9520   -3.9990 C.3    52  TYR52       0.0574
     86  CG       -25.1970   16.8210   -2.5240 C.ar   52  TYR52      -0.0198
     87  CD1      -24.2040   17.1100   -1.5860 C.ar   52  TYR52      -0.0009
     88  CD2      -26.4590   16.4430   -2.0580 C.ar   52  TYR52      -0.0009
     89  CE1      -24.4600   17.0270   -0.2220 C.ar   52  TYR52       0.0417
     90  CE2      -26.7260   16.3600   -0.6980 C.ar   52  TYR52       0.0417
     91  CZ       -25.7230   16.6520    0.2130 C.ar   52  TYR52       0.1957
     92  OH       -25.9820   16.5760    1.5590 O.3    52  TYR52      -0.2866
     93  N        -23.2270   18.4450   -6.1520 N.am   53  LEU53      -0.1963
     94  CA       -22.6380   18.4250   -7.4850 C.3    53  LEU53       0.1728
     95  C        -21.8080   17.1490   -7.5330 C.2    53  LEU53       0.2616
     96  O        -21.0450   16.8630   -6.6070 O.2    53  LEU53      -0.2715
     97  CB       -21.7330   19.6460   -7.7060 C.3    53  LEU53       0.0311
     98  CG       -22.3820   21.0230   -7.7860 C.3    53  LEU53       0.0022
     99  CD1      -21.3060   22.0980   -7.9170 C.3    53  LEU53       0.0001
    100  CD2      -23.3400   21.0720   -8.9620 C.3    53  LEU53       0.0001
    101  N        -21.9620   16.3710   -8.5980 N.am   54  VAL54      -0.1964
    102  CA       -21.2060   15.1310   -8.7330 C.3    54  VAL54       0.1712
    103  C        -20.6090   15.0070  -10.1260 C.2    54  VAL54       0.2458
    104  O        -21.1290   15.5710  -11.0910 O.2    54  VAL54      -0.2730
    105  CB       -22.0920   13.8810   -8.4710 C.3    54  VAL54       0.0289
    106  CG1      -22.5190   13.8390   -7.0130 C.3    54  VAL54       0.0023
    107  CG2      -23.3090   13.9030   -9.3850 C.3    54  VAL54       0.0023
    108  N        -19.4890   14.2800  -10.2460 N.am   55  PRO55      -0.2727
    109  CA       -18.8400   14.0920  -11.5440 C.3    55  PRO55       0.1402
    110  C        -19.7700   13.3030  -12.4600 C.2    55  PRO55       0.2269
    111  O        -20.5200   12.4430  -11.9960 O.2    55  PRO55      -0.2865
    112  CB       -17.5870   13.2970  -11.1920 C.3    55  PRO55       0.0296
    113  CG       -17.2850   13.7360   -9.7970 C.3    55  PRO55       0.0237
    114  CD       -18.6520   13.7380   -9.1620 C.3    55  PRO55       0.0939
    115  N        -22.0420    6.4110   -5.8930 N.3    63  PHE63      -0.1241
    116  CA       -22.9140    7.4160   -5.3060 C.3    63  PHE63       0.1605
    117  C        -23.4660    6.8480   -3.9960 C.2    63  PHE63       0.2264
    118  O        -23.5250    7.5490   -2.9840 O.2    63  PHE63      -0.2867
    119  CB       -24.0540    7.7250   -6.2790 C.3    63  PHE63       0.0534
    120  CG       -24.9800    8.8040   -5.8170 C.ar   63  PHE63      -0.0203
    121  CD1      -24.6390   10.1410   -5.9480 C.ar   63  PHE63      -0.0042
    122  CD2      -26.2140    8.4800   -5.2730 C.ar   63  PHE63      -0.0042
    123  CE1      -25.5240   11.1470   -5.5440 C.ar   63  PHE63      -0.0003
    124  CE2      -27.1010    9.4720   -4.8670 C.ar   63  PHE63      -0.0003
    125  CZ       -26.7540   10.8060   -5.0040 C.ar   63  PHE63      -0.0000
    126  N        -20.9170    7.2350   -1.2140 N.3    66  LEU66      -0.1231
    127  CA       -20.8190    8.5890   -0.6710 C.3    66  LEU66       0.1693
    128  C        -21.9940    8.9400    0.2340 C.2    66  LEU66       0.2591
    129  O        -21.8180    9.5750    1.2780 O.2    66  LEU66      -0.2718
    130  CB       -20.7140    9.6070   -1.8080 C.3    66  LEU66       0.0284
    131  CG       -19.4140    9.5130   -2.6160 C.3    66  LEU66       0.0019
    132  CD1      -19.4890   10.4360   -3.8180 C.3    66  LEU66       0.0001
    133  CD2      -18.2310    9.8780   -1.7230 C.3    66  LEU66       0.0001
    134  N        -23.1940    8.5340   -0.1660 N.am   67  ILE67      -0.1980
    135  CA       -24.3810    8.8090    0.6320 C.3    67  ILE67       0.1595
    136  C        -24.3480    8.0200    1.9350 C.2    67  ILE67       0.2287
    137  O        -24.6670    8.5560    2.9960 O.2    67  ILE67      -0.2864
    138  CB       -25.6720    8.4640   -0.1440 C.3    67  ILE67       0.0276
    139  CG1      -25.8480    9.4460   -1.3110 C.3    67  ILE67       0.0022
    140  CG2      -26.8810    8.5150    0.7930 C.3    67  ILE67       0.0022
    141  CD1      -26.0430   10.9000   -0.8870 C.3    67  ILE67       0.0001
    142  N        -22.3650    9.8960    4.3870 N.3    70  ARG70      -0.1245
    143  CA       -23.0510   11.0950    4.8430 C.3    70  ARG70       0.1563
    144  C        -24.2130   10.8430    5.8050 C.2    70  ARG70       0.2260
    145  O        -24.5060   11.6930    6.6420 O.2    70  ARG70      -0.2867
    146  CB       -23.5300   11.9160    3.6400 C.3    70  ARG70       0.0307
    147  CG       -22.4290   12.7450    2.9840 C.3    70  ARG70       0.0489
    148  CD       -22.9450   13.4690    1.7480 C.3    70  ARG70       0.2205
    149  NE       -21.9470   14.3490    1.1370 N.pl3  70  ARG70      -0.0865
    150  CZ       -21.6250   15.5610    1.5870 C.cat  70  ARG70       0.5346
    151  NH1      -22.2190   16.0580    2.6650 N.pl3  70  ARG70       0.1354
    152  NH2      -20.7150   16.2820    0.9470 N.pl3  70  ARG70       0.1354
    153  N        -32.3960   19.9840  -13.1250 N.3   107  PHE107     -0.1241
    154  CA       -31.7810   19.2710  -12.0130 C.3   107  PHE107      0.1605
    155  C        -32.1710   17.8060  -12.0690 C.2   107  PHE107      0.2264
    156  O        -33.2060   17.4520  -12.6370 O.2   107  PHE107     -0.2867
    157  CB       -32.2380   19.8500  -10.6690 C.3   107  PHE107      0.0534
    158  CG       -31.7610   21.2480  -10.4230 C.ar  107  PHE107     -0.0203
    159  CD1      -30.4040   21.5460  -10.4750 C.ar  107  PHE107     -0.0042
    160  CD2      -32.6610   22.2700  -10.1440 C.ar  107  PHE107     -0.0042
    161  CE1      -29.9510   22.8410  -10.2540 C.ar  107  PHE107     -0.0003
    162  CE2      -32.2160   23.5730   -9.9180 C.ar  107  PHE107     -0.0003
    163  CZ       -30.8600   23.8550   -9.9740 C.ar  107  PHE107     -0.0000
@<TRIPOS>BOND
     1    20    21    2
     2    20    19    1
     3    30    31    1
     4    33    32    2
     5    18    19    1
     6    12    13    2
     7    12    11    1
     8    19    22    1
     9   153   154    1
    10    32    31    1
    11    31    34    1
    12    10    11    1
    13   156   155    2
    14    47    46    1
    15    47    41    1
    16   110   111    2
    17   110   109    1
    18    11    14    1
    19   155   154    1
    20    46    45    1
    21    22    23    1
    22   154   157    1
    23    39    38    1
    24    34    35    1
    25     4     3    2
    26   109   112    1
    27   109   108    1
    28     3     2    1
    29    14    16    1
    30    14    15    1
    31     1     2    1
    32    41    42    1
    33   112   113    1
    34   104   103    2
    35    23    24   ar
    36    23    25   ar
    37    35    36    1
    38    24    26   ar
    39   157   158    1
    40     2     5    1
    41    45    42    1
    42    44    43    2
    43    38    40    1
    44    38    37    2
    45   159   158   ar
    46   159   161   ar
    47    25    27   ar
    48   158   160   ar
    49    36    37    1
    50   161   163   ar
    51   108   103   am
    52   108   114    1
    53    42    43    1
    54    15    17    1
    55   160   162   ar
    56   103   102    1
    57   163   162   ar
    58    26    28   ar
    59   113   114    1
    60    43    48   am
    61    27    28   ar
    62   107   105    1
    63     5     6    1
    64    28    29    1
    65   100    98    1
    66    53    52    1
    67   102   101    1
    68   102   105    1
    69   101    95   am
    70     6     7    1
    71    48    49    1
    72   105   106    1
    73     8     7   ar
    74    49    52    1
    75    49    50    1
    76    99    98    1
    77    98    97    1
    78    52    54    1
    79    97    94    1
    80     7     9   ar
    81    95    94    1
    82    95    96    2
    83    94    93    1
    84    84    83    2
    85    50    55   am
    86    50    51    2
    87    60    62    1
    88    60    59    1
    89    55    56    1
    90   119   120    1
    91   119   116    1
    92    93    83   am
    93    83    82    1
    94   121   120   ar
    95   121   123   ar
    96   115   116    1
    97    59    56    1
    98    59    61    1
    99   120   122   ar
   100   123   125   ar
   101    56    57    1
   102    58    57    2
   103   116   117    1
   104   122   124   ar
   105   125   124   ar
   106    82    81    1
   107    82    85    1
   108    81    74   am
   109    85    86    1
   110   117   118    2
   111   132   131    1
   112    80    79    1
   113    79    78    1
   114    78    77    1
   115    77    76    1
   116    76    73    1
   117    74    73    1
   118    74    75    2
   119    73    72    1
   120   131   130    1
   121   131   133    1
   122    86    88   ar
   123    86    87   ar
   124    88    90   ar
   125   130   127    1
   126    87    89   ar
   127   139   141    1
   128   139   138    1
   129   126   127    1
   130    90    91   ar
   131   127   128    1
   132    89    91   ar
   133   134   128   am
   134   134   135    1
   135   138   135    1
   136   138   140    1
   137    91    92    1
   138   128   129    2
   139   135   136    1
   140   152   150    1
   141   149   150    2
   142   149   148    1
   143   150   151    1
   144    65    66    2
   145    65    64    1
   146   148   147    1
   147   136   137    2
   148    67    64    1
   149    67    68    1
   150    64    63    1
   151   147   146    1
   152    68    69    1
   153    69    70    1
   154   146   143    1
   155    70    71    1
   156   142   143    1
   157   143   144    1
   158   144   145    2
