@<TRIPOS>MOLECULE
tmp/5azgA00.pdb
 163 157 0 0 0
SMALL
GASTEIGER

@<TRIPOS>ATOM
      1  N         17.8040   31.8870    8.3930 N.3    20  GLU20      -0.1245
      2  CA        17.0990   31.5630    9.6310 C.3    20  GLU20       0.1567
      3  C         17.9270   30.5980   10.4830 C.2    20  GLU20       0.2260
      4  O         18.0550   30.7980   11.7030 O.2    20  GLU20      -0.2867
      5  CB        15.7210   30.9720    9.3170 C.3    20  GLU20       0.0388
      6  CG        14.9260   30.4370   10.5070 C.3    20  GLU20       0.1160
      7  CD        14.1510   31.4900   11.2610 C.2    20  GLU20       0.3649
      8  OE1       14.4560   32.7030   11.1370 O.co2  20  GLU20      -0.2457
      9  OE2       13.2260   31.0890   12.0070 O.co2  20  GLU20      -0.2457
     10  N         19.4250   31.3230   14.2210 N.3    24  ILE24      -0.1245
     11  CA        18.9910   30.5480   15.3900 C.3    24  ILE24       0.1561
     12  C         20.1670   29.7710   16.0140 C.2    24  ILE24       0.2260
     13  O         20.2130   29.5870   17.2340 O.2    24  ILE24      -0.2867
     14  CB        17.7840   29.6240   15.0410 C.3    24  ILE24       0.0252
     15  CG1       16.9270   29.3500   16.2830 C.3    24  ILE24       0.0019
     16  CG2       18.2400   28.3260   14.4000 C.3    24  ILE24       0.0019
     17  CD1       16.1160   30.5430   16.7510 C.3    24  ILE24       0.0001
     18  N         21.0420   30.4060   19.9110 N.3    28  TYR28      -0.1241
     19  CA        20.8370   29.2700   20.8440 C.3    28  TYR28       0.1605
     20  C         21.7990   28.1300   20.5430 C.2    28  TYR28       0.2264
     21  O         21.3820   27.0610   20.0690 O.2    28  TYR28      -0.2867
     22  CB        19.3770   28.7880   20.7810 C.3    28  TYR28       0.0534
     23  CG        18.3970   29.8970   21.0910 C.ar   28  TYR28      -0.0201
     24  CD1       18.2740   30.3930   22.3800 C.ar   28  TYR28      -0.0009
     25  CD2       17.6130   30.4710   20.0870 C.ar   28  TYR28      -0.0009
     26  CE1       17.3990   31.4370   22.6740 C.ar   28  TYR28       0.0417
     27  CE2       16.7260   31.5030   20.3700 C.ar   28  TYR28       0.0417
     28  CZ        16.6260   31.9840   21.6610 C.ar   28  TYR28       0.1957
     29  OH        15.7460   33.0080   21.9550 O.3    28  TYR28      -0.2866
     30  N         21.2000   24.3610   21.6120 N.3    31  ARG31      -0.1245
     31  CA        19.9600   23.7480   21.2340 C.3    31  ARG31       0.1563
     32  C         20.0110   23.3680   19.7550 C.2    31  ARG31       0.2260
     33  O         20.6320   24.0500   18.9540 O.2    31  ARG31      -0.2867
     34  CB        18.7790   24.6620   21.5570 C.3    31  ARG31       0.0307
     35  CG        18.3340   24.4270   22.9940 C.3    31  ARG31       0.0489
     36  CD        17.3240   25.3990   23.4960 C.3    31  ARG31       0.2205
     37  NE        17.1620   25.1810   24.9320 N.pl3  31  ARG31      -0.0865
     38  CZ        16.2460   24.3940   25.5110 C.cat  31  ARG31       0.5346
     39  NH1       15.3290   23.7260   24.7960 N.pl3  31  ARG31       0.1354
     40  NH2       16.2380   24.2940   26.8380 N.pl3  31  ARG31       0.1354
     41  N         18.1690   22.9670   16.2930 N.3    33  PRO33      -0.2102
     42  CA        16.9600   23.3950   15.5920 C.3    33  PRO33       0.1504
     43  C         16.4430   22.2730   14.7080 C.2    33  PRO33       0.2575
     44  O         17.1660   21.7850   13.8650 O.2    33  PRO33      -0.2718
     45  CB        17.4280   24.5970   14.7750 C.3    33  PRO33       0.0282
     46  CG        18.8830   24.3500   14.5230 C.3    33  PRO33       0.0208
     47  CD        19.3900   23.4210   15.5970 C.3    33  PRO33       0.0893
     48  N         15.2250   21.8320   14.9520 N.am   34  VAL34      -0.1980
     49  CA        14.6890   20.6530   14.2840 C.3    34  VAL34       0.1595
     50  C         13.3850   21.0290   13.6040 C.2    34  VAL34       0.2287
     51  O         12.5640   21.7570   14.1760 O.2    34  VAL34      -0.2864
     52  CB        14.4730   19.4490   15.2340 C.3    34  VAL34       0.0276
     53  CG1       15.7580   19.1170   15.9930 C.3    34  VAL34       0.0022
     54  CG2       13.3740   19.7100   16.2200 C.3    34  VAL34       0.0022
     55  N          2.9480   22.5680   15.7510 N.3    49  LYS49      -0.1245
     56  CA         4.2160   23.2730   15.5660 C.3    49  LYS49       0.1561
     57  C          5.2610   22.3390   14.9570 C.2    49  LYS49       0.2260
     58  O          5.4150   21.2120   15.4150 O.2    49  LYS49      -0.2867
     59  CB         4.7210   23.7660   16.9170 C.3    49  LYS49       0.0271
     60  CG         3.8000   24.7450   17.6260 C.3    49  LYS49       0.0035
     61  CD         3.6580   26.0350   16.8390 C.3    49  LYS49       0.0206
     62  CE         2.9590   27.1040   17.6520 C.3    49  LYS49       0.1093
     63  NZ         2.8240   28.3480   16.8520 N.3    49  LYS49      -0.1314
     64  N          8.6280   23.5620   14.2770 N.3    51  LYS51      -0.1231
     65  CA         9.9650   24.1140   14.5460 C.3    51  LYS51       0.1693
     66  C         10.2440   23.9440   16.0350 C.2    51  LYS51       0.2592
     67  O          9.5100   24.4910   16.8500 O.2    51  LYS51      -0.2718
     68  CB        10.0150   25.6100   14.2040 C.3    51  LYS51       0.0285
     69  CG        10.3290   25.9940   12.7580 C.3    51  LYS51       0.0035
     70  CD        10.1480   27.5020   12.5630 C.3    51  LYS51       0.0206
     71  CE        10.9150   28.0610   11.3700 C.3    51  LYS51       0.1093
     72  NZ        10.9040   29.5610   11.3190 N.3    51  LYS51      -0.1314
     73  N         11.3080   23.2250   16.3870 N.am   52  TYR52      -0.1962
     74  CA        11.6600   22.9960   17.8060 C.3    52  TYR52       0.1771
     75  C         13.1310   23.2780   18.0680 C.2    52  TYR52       0.2619
     76  O         13.9850   23.1050   17.1800 O.2    52  TYR52      -0.2715
     77  CB        11.3500   21.5640   18.2210 C.3    52  TYR52       0.0574
     78  CG         9.9060   21.2110   18.1330 C.ar   52  TYR52      -0.0198
     79  CD1        9.3500   20.7630   16.9360 C.ar   52  TYR52      -0.0009
     80  CD2        9.0880   21.3130   19.2450 C.ar   52  TYR52      -0.0009
     81  CE1        8.0030   20.4320   16.8620 C.ar   52  TYR52       0.0417
     82  CE2        7.7470   20.9840   19.1850 C.ar   52  TYR52       0.0417
     83  CZ         7.2040   20.5520   17.9930 C.ar   52  TYR52       0.1957
     84  OH         5.8540   20.2470   17.9600 O.3    52  TYR52      -0.2866
     85  N         13.4250   23.7180   19.2900 N.am   53  LEU53      -0.1963
     86  CA        14.7980   23.9010   19.7310 C.3    53  LEU53       0.1728
     87  C         15.0030   22.9320   20.8690 C.2    53  LEU53       0.2616
     88  O         14.4280   23.1080   21.9350 O.2    53  LEU53      -0.2715
     89  CB        15.0260   25.3330   20.2030 C.3    53  LEU53       0.0311
     90  CG        15.2300   26.3670   19.1010 C.3    53  LEU53       0.0022
     91  CD1       15.1730   27.7640   19.7010 C.3    53  LEU53       0.0001
     92  CD2       16.5510   26.1380   18.3910 C.3    53  LEU53       0.0001
     93  N         15.8220   21.9170   20.6390 N.am   54  VAL54      -0.1964
     94  CA        15.8780   20.7570   21.5330 C.3    54  VAL54       0.1712
     95  C         17.2570   20.6970   22.2050 C.2    54  VAL54       0.2458
     96  O         18.2530   20.9190   21.5240 O.2    54  VAL54      -0.2730
     97  CB        15.5620   19.4600   20.7610 C.3    54  VAL54       0.0289
     98  CG1       14.2850   19.6380   19.9400 C.3    54  VAL54       0.0023
     99  CG2       16.6650   19.0520   19.8300 C.3    54  VAL54       0.0023
    100  N         17.3270   20.3920   23.5170 N.am   55  PRO55      -0.2727
    101  CA        18.6610   20.2770   24.1340 C.3    55  PRO55       0.1402
    102  C         19.5420   19.2440   23.4230 C.2    55  PRO55       0.2269
    103  O         19.0410   18.1810   23.0150 O.2    55  PRO55      -0.2865
    104  CB        18.3510   19.8390   25.5650 C.3    55  PRO55       0.0296
    105  CG        16.9530   20.3250   25.8220 C.3    55  PRO55       0.0237
    106  CD        16.2540   20.1820   24.4990 C.3    55  PRO55       0.0939
    107  N         19.5340   15.4980   24.7490 N.3    58  LEU58      -0.1245
    108  CA        18.2710   14.7640   24.7720 C.3    58  LEU58       0.1561
    109  C         18.3940   13.5990   23.7870 C.2    58  LEU58       0.2260
    110  O         18.8770   13.7920   22.6720 O.2    58  LEU58      -0.2867
    111  CB        17.1370   15.6770   24.3360 C.3    58  LEU58       0.0270
    112  CG        15.7380   15.1290   24.6100 C.3    58  LEU58       0.0019
    113  CD1       15.3750   15.3830   26.0620 C.3    58  LEU58       0.0001
    114  CD2       14.7160   15.7140   23.6700 C.3    58  LEU58       0.0001
    115  N         12.9800   12.2040   23.0380 N.3    63  PHE63      -0.1241
    116  CA        12.2560   12.9630   22.0200 C.3    63  PHE63       0.1605
    117  C         10.9830   12.2460   21.5470 C.2    63  PHE63       0.2264
    118  O          9.9320   12.8950   21.4200 O.2    63  PHE63      -0.2867
    119  CB        13.1930   13.2540   20.8520 C.3    63  PHE63       0.0534
    120  CG        12.6530   14.2340   19.8660 C.ar   63  PHE63      -0.0203
    121  CD1       12.4120   15.5520   20.2350 C.ar   63  PHE63      -0.0042
    122  CD2       12.3980   13.8460   18.5530 C.ar   63  PHE63      -0.0042
    123  CE1       11.9130   16.4640   19.3170 C.ar   63  PHE63      -0.0003
    124  CE2       11.9220   14.7590   17.6320 C.ar   63  PHE63      -0.0003
    125  CZ        11.6730   16.0690   18.0180 C.ar   63  PHE63      -0.0000
    126  N          8.2920   12.9000   24.0920 N.3    66  LEU66      -0.1231
    127  CA         7.7380   14.2620   24.0490 C.3    66  LEU66       0.1693
    128  C          6.7950   14.4550   22.8530 C.2    66  LEU66       0.2591
    129  O          5.7030   15.0080   23.0080 O.2    66  LEU66      -0.2718
    130  CB         8.8590   15.2980   24.0320 C.3    66  LEU66       0.0284
    131  CG         9.7970   15.2760   25.2430 C.3    66  LEU66       0.0019
    132  CD1       10.9590   16.2180   24.9930 C.3    66  LEU66       0.0001
    133  CD2        9.0800   15.6260   26.5440 C.3    66  LEU66       0.0001
    134  N          7.2020   13.9700   21.6790 N.am   67  ILE67      -0.1980
    135  CA         6.3740   14.0680   20.4690 C.3    67  ILE67       0.1595
    136  C          5.0990   13.2230   20.5900 C.2    67  ILE67       0.2287
    137  O          4.0180   13.6630   20.1800 O.2    67  ILE67      -0.2864
    138  CB         7.1880   13.6740   19.1990 C.3    67  ILE67       0.0276
    139  CG1        8.3460   14.6630   18.9740 C.3    67  ILE67       0.0022
    140  CG2        6.3040   13.5960   17.9520 C.3    67  ILE67       0.0022
    141  CD1        7.9380   16.1270   18.9150 C.3    67  ILE67       0.0001
    142  N          2.4840   15.2200   22.2400 N.3    70  ARG70      -0.1245
    143  CA         1.9920   16.2950   21.3700 C.3    70  ARG70       0.1563
    144  C          1.0900   15.8440   20.2270 C.2    70  ARG70       0.2260
    145  O          0.2450   16.6240   19.7850 O.2    70  ARG70      -0.2867
    146  CB         3.1530   17.1280   20.8120 C.3    70  ARG70       0.0307
    147  CG         3.7010   18.0980   21.8350 C.3    70  ARG70       0.0489
    148  CD         5.0800   18.6040   21.4720 C.3    70  ARG70       0.2205
    149  NE         5.5930   19.4780   22.5250 N.pl3  70  ARG70      -0.0865
    150  CZ         5.3170   20.7790   22.6590 C.cat  70  ARG70       0.5346
    151  NH1        4.5190   21.4190   21.7990 N.pl3  70  ARG70       0.1354
    152  NH2        5.8500   21.4550   23.6770 N.pl3  70  ARG70       0.1354
    153  N         19.5190   23.1930    9.6280 N.3   107  PHE107     -0.1241
    154  CA        18.4530   22.4940   10.3520 C.3   107  PHE107      0.1605
    155  C         18.6540   20.9820   10.3050 C.2   107  PHE107      0.2264
    156  O         19.2540   20.4550    9.3590 O.2   107  PHE107     -0.2867
    157  CB        17.0820   22.8160    9.7630 C.3   107  PHE107      0.0534
    158  CG        16.6370   24.2060   10.0400 C.ar  107  PHE107     -0.0203
    159  CD1       16.0300   24.5070   11.2330 C.ar  107  PHE107     -0.0042
    160  CD2       16.8690   25.2310    9.1230 C.ar  107  PHE107     -0.0042
    161  CE1       15.6380   25.8160   11.5110 C.ar  107  PHE107     -0.0003
    162  CE2       16.4830   26.5260    9.3900 C.ar  107  PHE107     -0.0003
    163  CZ        15.8670   26.8210   10.5890 C.ar  107  PHE107     -0.0000
@<TRIPOS>BOND
     1     1     2    1
     2   160   162   ar
     3   160   158   ar
     4     5     2    1
     5     5     6    1
     6   156   155    2
     7   162   163   ar
     8   153   154    1
     9     2     3    1
    10   157   158    1
    11   157   154    1
    12   158   159   ar
    13   155   154    1
    14     3     4    2
    15     6     7    1
    16   163   161   ar
    17     8     7   ar
    18   159   161   ar
    19     7     9   ar
    20    72    71    1
    21    71    70    1
    22    70    69    1
    23    69    68    1
    24    50    51    2
    25    50    49    1
    26    44    43    2
    27    68    65    1
    28    10    11    1
    29    64    65    1
    30    49    48    1
    31    49    52    1
    32    16    14    1
    33    46    45    1
    34    46    47    1
    35    65    66    1
    36    43    48   am
    37    43    42    1
    38    45    42    1
    39    57    58    2
    40    57    56    1
    41    14    11    1
    42    14    15    1
    43    52    53    1
    44    52    54    1
    45    11    12    1
    46    56    55    1
    47    56    59    1
    48    42    41    1
    49    47    41    1
    50    12    13    2
    51    66    73   am
    52    66    67    2
    53    15    17    1
    54    73    74    1
    55    61    60    1
    56    61    62    1
    57    63    62    1
    58    81    79   ar
    59    81    83   ar
    60    59    60    1
    61    79    78   ar
    62    76    75    2
    63   124   125   ar
    64   124   122   ar
    65    74    75    1
    66    74    77    1
    67   140   138    1
    68    84    83    1
    69    83    82   ar
    70   125   123   ar
    71    75    85   am
    72    78    77    1
    73    78    80   ar
    74    92    90    1
    75   122   120   ar
    76   141   139    1
    77    33    32    2
    78   139   138    1
    79    90    91    1
    80    90    89    1
    81    82    80   ar
    82   138   135    1
    83    85    86    1
    84   123   121   ar
    85    86    89    1
    86    86    87    1
    87    32    31    1
    88   145   144    2
    89    99    97    1
    90   120   121   ar
    91   120   119    1
    92    18    19    1
    93    98    97    1
    94    21    20    2
    95    25    27   ar
    96    25    23   ar
    97   137   136    2
    98   144   143    1
    99    27    28   ar
   100   135   136    1
   101   135   134    1
   102    20    19    1
   103    93    87   am
   104    93    94    1
   105    97    94    1
   106    22    19    1
   107    22    23    1
   108   146   143    1
   109   146   147    1
   110   119   116    1
   111    87    88    2
   112    23    24   ar
   113    31    34    1
   114    31    30    1
   115   143   142    1
   116   118   117    2
   117   148   147    1
   118   148   149    1
   119    96    95    2
   120    94    95    1
   121   117   116    1
   122    34    35    1
   123    28    29    1
   124    28    26   ar
   125   134   128   am
   126   151   150    1
   127   116   115    1
   128    95   100   am
   129    24    26   ar
   130   149   150    2
   131   150   152    1
   132   110   109    2
   133   128   129    2
   134   128   127    1
   135    35    36    1
   136   103   102    2
   137   102   101    1
   138    36    37    1
   139   100   101    1
   140   100   106    1
   141   114   112    1
   142   109   108    1
   143   130   127    1
   144   130   131    1
   145   127   126    1
   146   101   104    1
   147   111   112    1
   148   111   108    1
   149   106   105    1
   150   112   113    1
   151   107   108    1
   152    39    38    1
   153    37    38    2
   154   132   131    1
   155   131   133    1
   156    38    40    1
   157   104   105    1
