@<TRIPOS>MOLECULE
tmp/5azgB00.pdb
 163 157 0 0 0
SMALL
GASTEIGER

@<TRIPOS>ATOM
      1  N         25.7580   10.2440   42.9330 N.3    20  GLU20      -0.1245
      2  CA        24.9740   10.6960   41.7860 C.3    20  GLU20       0.1567
      3  C         25.6760   11.8290   41.0290 C.2    20  GLU20       0.2260
      4  O         25.7590   11.7900   39.8000 O.2    20  GLU20      -0.2867
      5  CB        23.5600   11.1230   42.2420 C.3    20  GLU20       0.0388
      6  CG        22.6740   11.7900   41.1960 C.3    20  GLU20       0.1160
      7  CD        21.9690   10.8190   40.2800 C.2    20  GLU20       0.3649
      8  OE1       22.5500    9.7640   39.9330 O.co2  20  GLU20      -0.2457
      9  OE2       20.8180   11.1210   39.8920 O.co2  20  GLU20      -0.2457
     10  N         27.2080   11.6980   37.1870 N.3    24  ILE24      -0.1245
     11  CA        26.6250   12.6470   36.2310 C.3    24  ILE24       0.1561
     12  C         27.6340   13.6050   35.6060 C.2    24  ILE24       0.2260
     13  O         27.5060   13.9510   34.4200 O.2    24  ILE24      -0.2867
     14  CB        25.4330   13.4020   36.8940 C.3    24  ILE24       0.0252
     15  CG1       24.1300   12.6530   36.6020 C.3    24  ILE24       0.0019
     16  CG2       25.3610   14.8790   36.5190 C.3    24  ILE24       0.0019
     17  CD1       23.7420   12.5090   35.1390 C.3    24  ILE24       0.0001
     18  N         28.2730   13.5640   31.5300 N.3    28  TYR28      -0.1241
     19  CA        28.0130   14.7870   30.7460 C.3    28  TYR28       0.1605
     20  C         28.9910   15.8990   31.1220 C.2    28  TYR28       0.2264
     21  O         28.6180   16.8560   31.8170 O.2    28  TYR28      -0.2867
     22  CB        26.5680   15.2750   30.9550 C.3    28  TYR28       0.0534
     23  CG        25.5050   14.2740   30.5570 C.ar   28  TYR28      -0.0201
     24  CD1       25.1840   14.0630   29.2130 C.ar   28  TYR28      -0.0009
     25  CD2       24.8060   13.5530   31.5180 C.ar   28  TYR28      -0.0009
     26  CE1       24.2110   13.1470   28.8450 C.ar   28  TYR28       0.0417
     27  CE2       23.8230   12.6400   31.1600 C.ar   28  TYR28       0.0417
     28  CZ        23.5370   12.4370   29.8210 C.ar   28  TYR28       0.1957
     29  OH        22.5720   11.5310   29.4720 O.3    28  TYR28      -0.2866
     30  N         28.1710   19.6080   30.7610 N.3    31  ARG31      -0.1245
     31  CA        27.0580   20.1430   31.5380 C.3    31  ARG31       0.1563
     32  C         27.3630   20.1310   33.0250 C.2    31  ARG31       0.2260
     33  O         28.2840   19.4580   33.4840 O.2    31  ARG31      -0.2867
     34  CB        25.7770   19.3470   31.2840 C.3    31  ARG31       0.0307
     35  CG        25.2360   19.5120   29.8750 C.3    31  ARG31       0.0489
     36  CD        24.0160   18.6500   29.6240 C.3    31  ARG31       0.2205
     37  NE        23.6080   18.8100   28.2320 N.pl3  31  ARG31      -0.0865
     38  CZ        22.7460   19.7140   27.7620 C.cat  31  ARG31       0.5346
     39  NH1       22.5170   19.7490   26.4520 N.pl3  31  ARG31       0.1354
     40  NH2       22.0980   20.5640   28.5570 N.pl3  31  ARG31       0.1354
     41  N         25.3160   19.6460   36.9130 N.3    33  PRO33      -0.2102
     42  CA        24.0980   19.2770   37.6110 C.3    33  PRO33       0.1504
     43  C         23.6690   20.3710   38.5790 C.2    33  PRO33       0.2575
     44  O         24.4640   20.8000   39.4250 O.2    33  PRO33      -0.2718
     45  CB        24.4910   17.9960   38.3430 C.3    33  PRO33       0.0282
     46  CG        25.9480   18.1380   38.5960 C.3    33  PRO33       0.0208
     47  CD        26.5000   18.9560   37.4680 C.3    33  PRO33       0.0893
     48  N         22.4250   20.8180   38.4290 N.am   34  VAL34      -0.1980
     49  CA        21.8830   21.9140   39.2130 C.3    34  VAL34       0.1595
     50  C         20.5960   21.4560   39.8820 C.2    34  VAL34       0.2287
     51  O         19.7320   20.8720   39.2280 O.2    34  VAL34      -0.2864
     52  CB        21.5670   23.1390   38.3280 C.3    34  VAL34       0.0276
     53  CG1       21.1500   24.3270   39.1860 C.3    34  VAL34       0.0022
     54  CG2       22.7570   23.5050   37.4530 C.3    34  VAL34       0.0022
     55  N          9.9570   19.6860   38.3110 N.3    49  LYS49      -0.1245
     56  CA        11.2990   19.1470   38.1120 C.3    49  LYS49       0.1561
     57  C         12.3120   20.0180   38.8580 C.2    49  LYS49       0.2260
     58  O         12.2720   21.2480   38.7750 O.2    49  LYS49      -0.2867
     59  CB        11.6400   19.0400   36.6200 C.3    49  LYS49       0.0271
     60  CG        11.1330   17.7640   35.9450 C.3    49  LYS49       0.0035
     61  CD         9.6410   17.5150   36.1250 C.3    49  LYS49       0.0206
     62  CE         9.2030   16.2050   35.4830 C.3    49  LYS49       0.1093
     63  NZ         9.5820   16.0960   34.0490 N.3    49  LYS49      -0.1314
     64  N         15.8960   18.6560   39.2960 N.3    51  LYS51      -0.1231
     65  CA        17.2460   18.2540   38.8890 C.3    51  LYS51       0.1693
     66  C         17.4480   18.6110   37.4210 C.2    51  LYS51       0.2592
     67  O         16.7480   18.0850   36.5590 O.2    51  LYS51      -0.2718
     68  CB        17.4310   16.7440   39.0750 C.3    51  LYS51       0.0285
     69  CG        17.2790   16.2620   40.5130 C.3    51  LYS51       0.0035
     70  CD        17.1750   14.7460   40.6070 C.3    51  LYS51       0.0206
     71  CE        18.5100   14.0650   40.4040 C.3    51  LYS51       0.1093
     72  NZ        18.3760   12.5800   40.4710 N.3    51  LYS51      -0.1314
     73  N         18.3900   19.5080   37.1420 N.am   52  TYR52      -0.1962
     74  CA        18.6550   19.9630   35.7770 C.3    52  TYR52       0.1771
     75  C         20.1030   19.7000   35.3690 C.2    52  TYR52       0.2619
     76  O         21.0020   19.7340   36.2060 O.2    52  TYR52      -0.2715
     77  CB        18.3360   21.4480   35.6470 C.3    52  TYR52       0.0574
     78  CG        16.8650   21.7440   35.8270 C.ar   52  TYR52      -0.0198
     79  CD1       16.3270   21.9770   37.0960 C.ar   52  TYR52      -0.0009
     80  CD2       16.0050   21.7560   34.7390 C.ar   52  TYR52      -0.0009
     81  CE1       14.9710   22.2250   37.2670 C.ar   52  TYR52       0.0417
     82  CE2       14.6530   22.0110   34.8960 C.ar   52  TYR52       0.0417
     83  CZ        14.1360   22.2450   36.1570 C.ar   52  TYR52       0.1957
     84  OH        12.7880   22.5030   36.2940 O.3    52  TYR52      -0.2866
     85  N         20.3090   19.4330   34.0780 N.am   53  LEU53      -0.1963
     86  CA        21.6410   19.3560   33.4890 C.3    53  LEU53       0.1728
     87  C         21.7840   20.5320   32.5330 C.2    53  LEU53       0.2616
     88  O         21.1290   20.5870   31.4910 O.2    53  LEU53      -0.2715
     89  CB        21.8520   18.0170   32.7790 C.3    53  LEU53       0.0311
     90  CG        22.1670   16.8400   33.7070 C.3    53  LEU53       0.0022
     91  CD1       22.0950   15.5020   32.9840 C.3    53  LEU53       0.0001
     92  CD2       23.5320   17.0100   34.3560 C.3    53  LEU53       0.0001
     93  N         22.6140   21.4920   32.9240 N.am   54  VAL54      -0.1964
     94  CA        22.6900   22.7900   32.2780 C.3    54  VAL54       0.1712
     95  C         24.0300   22.8990   31.5450 C.2    54  VAL54       0.2458
     96  O         25.0590   22.5490   32.1150 O.2    54  VAL54      -0.2730
     97  CB        22.5910   23.9060   33.3430 C.3    54  VAL54       0.0289
     98  CG1       22.4830   25.2730   32.6900 C.3    54  VAL54       0.0023
     99  CG2       21.3990   23.6530   34.2620 C.3    54  VAL54       0.0023
    100  N         24.0410   23.4100   30.2950 N.am   55  PRO55      -0.2727
    101  CA        25.3370   23.6550   29.6480 C.3    55  PRO55       0.1402
    102  C         26.2460   24.5860   30.4660 C.2    55  PRO55       0.2269
    103  O         25.7840   25.6130   30.9670 O.2    55  PRO55      -0.2865
    104  CB        24.9460   24.3130   28.3110 C.3    55  PRO55       0.0296
    105  CG        23.5650   23.8530   28.0570 C.3    55  PRO55       0.0237
    106  CD        22.9160   23.7720   29.4080 C.3    55  PRO55       0.0939
    107  N         26.3320   28.4010   29.5040 N.3    58  LEU58      -0.1245
    108  CA        25.0910   29.1780   29.6100 C.3    58  LEU58       0.1561
    109  C         25.2590   30.3160   30.6220 C.2    58  LEU58       0.2260
    110  O         25.7010   30.0860   31.7500 O.2    58  LEU58      -0.2867
    111  CB        23.9380   28.2690   30.0550 C.3    58  LEU58       0.0270
    112  CG        22.5030   28.8020   29.9600 C.3    58  LEU58       0.0019
    113  CD1       22.0430   28.8460   28.5110 C.3    58  LEU58       0.0001
    114  CD2       21.5550   27.9340   30.7710 C.3    58  LEU58       0.0001
    115  N         19.9140   31.4700   31.4940 N.3    63  PHE63      -0.1241
    116  CA        19.2730   30.5900   32.4750 C.3    63  PHE63       0.1605
    117  C         17.9670   31.2060   33.0010 C.2    63  PHE63       0.2264
    118  O         16.9500   30.5130   33.0710 O.2    63  PHE63      -0.2867
    119  CB        20.2550   30.2920   33.6120 C.3    63  PHE63       0.0534
    120  CG        19.7730   29.2650   34.5940 C.ar   63  PHE63      -0.0203
    121  CD1       19.5770   27.9450   34.2070 C.ar   63  PHE63      -0.0042
    122  CD2       19.5380   29.6140   35.9200 C.ar   63  PHE63      -0.0042
    123  CE1       19.1410   26.9920   35.1240 C.ar   63  PHE63      -0.0003
    124  CE2       19.1000   28.6690   36.8390 C.ar   63  PHE63      -0.0003
    125  CZ        18.9050   27.3570   36.4390 C.ar   63  PHE63      -0.0000
    126  N         15.2550   30.7490   30.2980 N.3    66  LEU66      -0.1231
    127  CA        14.6970   29.3970   30.2150 C.3    66  LEU66       0.1693
    128  C         13.7980   29.0670   31.4020 C.2    66  LEU66       0.2591
    129  O         12.7330   28.4780   31.2250 O.2    66  LEU66      -0.2718
    130  CB        15.8130   28.3570   30.0970 C.3    66  LEU66       0.0284
    131  CG        16.6660   28.4540   28.8270 C.3    66  LEU66       0.0019
    132  CD1       17.8710   27.5340   28.9310 C.3    66  LEU66       0.0001
    133  CD2       15.8440   28.1390   27.5880 C.3    66  LEU66       0.0001
    134  N         14.2250   29.4400   32.6050 N.am   67  ILE67      -0.1980
    135  CA        13.4260   29.1870   33.8100 C.3    67  ILE67       0.1595
    136  C         12.1200   29.9880   33.7990 C.2    67  ILE67       0.2287
    137  O         11.0790   29.4500   34.1660 O.2    67  ILE67      -0.2864
    138  CB        14.2410   29.4350   35.1030 C.3    67  ILE67       0.0276
    139  CG1       15.3880   28.4160   35.2190 C.3    67  ILE67       0.0022
    140  CG2       13.3600   29.3840   36.3510 C.3    67  ILE67       0.0022
    141  CD1       14.9690   26.9760   35.4860 C.3    67  ILE67       0.0001
    142  N          9.6310   28.0470   31.8570 N.3    70  ARG70      -0.1245
    143  CA         9.1130   26.9010   32.6180 C.3    70  ARG70       0.1563
    144  C          8.0880   27.2980   33.6820 C.2    70  ARG70       0.2260
    145  O          7.0730   26.6230   33.8300 O.2    70  ARG70      -0.2867
    146  CB        10.2440   26.1130   33.2880 C.3    70  ARG70       0.0307
    147  CG        11.1750   25.4010   32.3320 C.3    70  ARG70       0.0489
    148  CD        12.1640   24.5350   33.0920 C.3    70  ARG70       0.2205
    149  NE        11.5500   23.3060   33.5970 N.pl3  70  ARG70      -0.0865
    150  CZ        11.3110   22.2090   32.8730 C.cat  70  ARG70       0.5346
    151  NH1       10.7470   21.1500   33.4530 N.pl3  70  ARG70       0.1354
    152  NH2       11.6210   22.1520   31.5790 N.pl3  70  ARG70       0.1354
    153  N         26.8530   19.0290   43.2980 N.3   107  PHE107     -0.1241
    154  CA        25.7180   19.7440   42.7150 C.3   107  PHE107      0.1605
    155  C         25.8390   21.2380   42.9990 C.2   107  PHE107      0.2264
    156  O         26.3870   21.6400   44.0400 O.2   107  PHE107     -0.2867
    157  CB        24.3870   19.2620   43.2920 C.3   107  PHE107      0.0534
    158  CG        23.9150   17.9500   42.7380 C.ar  107  PHE107     -0.0203
    159  CD1       24.3760   16.7510   43.2680 C.ar  107  PHE107     -0.0042
    160  CD2       22.9730   17.9100   41.7250 C.ar  107  PHE107     -0.0042
    161  CE1       23.9230   15.5330   42.7770 C.ar  107  PHE107     -0.0003
    162  CE2       22.5200   16.6980   41.2300 C.ar  107  PHE107     -0.0003
    163  CZ        22.9980   15.5100   41.7550 C.ar  107  PHE107     -0.0000
@<TRIPOS>BOND
     1    39    38    1
     2   133   131    1
     3    38    37    2
     4    38    40    1
     5   105   104    1
     6   105   106    1
     7    37    36    1
     8   104   101    1
     9   113   112    1
    10   131   132    1
    11   131   130    1
    12    26    24   ar
    13    26    28   ar
    14    24    23   ar
    15   106   100    1
    16    29    28    1
    17   107   108    1
    18   108   111    1
    19   108   109    1
    20    36    35    1
    21   101   100    1
    22   101   102    1
    23    28    27   ar
    24    35    34    1
    25   112   111    1
    26   112   114    1
    27   130   127    1
    28   127   126    1
    29   127   128    1
    30   100    95   am
    31   102   103    2
    32    23    22    1
    33    23    25   ar
    34   109   110    2
    35    19    22    1
    36    19    20    1
    37    19    18    1
    38    30    31    1
    39    20    21    2
    40    27    25   ar
    41   129   128    2
    42    34    31    1
    43   128   134   am
    44    88    87    2
    45   115   116    1
    46    31    32    1
    47    95    96    2
    48    95    94    1
    49   152   150    1
    50   142   143    1
    51    94    93    1
    52    94    97    1
    53   147   148    1
    54   147   146    1
    55   116   117    1
    56   116   119    1
    57    87    93   am
    58    87    86    1
    59   134   135    1
    60   143   146    1
    61   143   144    1
    62    98    97    1
    63    89    86    1
    64    89    90    1
    65   150   151    1
    66   150   149    2
    67    91    90    1
    68   117   118    2
    69    32    33    2
    70   148   149    1
    71    97    99    1
    72    86    85    1
    73   119   120    1
    74   144   145    2
    75    90    92    1
    76   136   135    1
    77   136   137    2
    78   135   138    1
    79    63    62    1
    80    85    75   am
    81   121   120   ar
    82   121   123   ar
    83    13    12    2
    84   120   122   ar
    85    80    82   ar
    86    80    78   ar
    87    82    83   ar
    88   138   139    1
    89   138   140    1
    90   123   125   ar
    91    17    15    1
    92   139   141    1
    93    75    74    1
    94    75    76    2
    95    62    61    1
    96    12    11    1
    97    77    74    1
    98    77    78    1
    99    74    73    1
   100    78    79   ar
   101   122   124   ar
   102    60    61    1
   103    60    59    1
   104    83    84    1
   105    83    81   ar
   106    11    14    1
   107    11    10    1
   108   125   124   ar
   109    16    14    1
   110    67    66    2
   111    15    14    1
   112    59    56    1
   113    41    47    1
   114    41    42    1
   115    79    81   ar
   116    73    66   am
   117    66    65    1
   118    54    52    1
   119    47    46    1
   120    42    45    1
   121    42    43    1
   122    56    55    1
   123    56    57    1
   124    52    53    1
   125    52    49    1
   126    45    46    1
   127    48    43   am
   128    48    49    1
   129    43    44    2
   130    58    57    2
   131    65    68    1
   132    65    64    1
   133    68    69    1
   134    49    50    1
   135    51    50    2
   136     4     3    2
   137     9     7   ar
   138     8     7   ar
   139     7     6    1
   140    71    72    1
   141    71    70    1
   142    69    70    1
   143     3     2    1
   144     6     5    1
   145   162   160   ar
   146   162   163   ar
   147   160   158   ar
   148   163   161   ar
   149     2     5    1
   150     2     1    1
   151   154   155    1
   152   154   157    1
   153   154   153    1
   154   158   159   ar
   155   158   157    1
   156   161   159   ar
   157   155   156    2
