@<TRIPOS>MOLECULE
tmp/5azjC00.pdb
 81 79 0 0 0
SMALL
GASTEIGER

@<TRIPOS>ATOM
      1  N         -1.4260    5.1840   62.0490 N.3    12  GLY12      -0.1210
      2  CA        -2.1190    4.0390   61.4670 C.3    12  GLY12       0.1956
      3  C         -3.5930    4.2690   61.1580 C.2    12  GLY12       0.2613
      4  O         -4.1260    5.3880   61.2990 O.2    12  GLY12      -0.2717
      5  N         -4.2600    3.2100   60.7190 N.am   13  THR13      -0.1938
      6  CA        -5.6160    3.3270   60.2080 C.3    13  THR13       0.2028
      7  C         -6.6180    3.6520   61.3080 C.2    13  THR13       0.2643
      8  O         -7.5480    4.4210   61.0830 O.2    13  THR13      -0.2714
      9  CB        -6.0190    2.0470   59.4580 C.3    13  THR13       0.1808
     10  OG1       -5.1100    1.8580   58.3690 O.3    13  THR13      -0.2208
     11  CG2       -7.4080    2.1510   58.8950 C.3    13  THR13       0.0379
     12  N         -6.3900    3.1040   62.5050 N.am   14  THR14      -0.1936
     13  CA        -7.3310    3.2490   63.6110 C.3    14  THR14       0.2028
     14  C         -6.7720    4.1140   64.7160 C.2    14  THR14       0.2642
     15  O         -7.5290    4.7130   65.4540 O.2    14  THR14      -0.2714
     16  CB        -7.7580    1.8930   64.1950 C.3    14  THR14       0.1808
     17  OG1       -6.6150    1.1980   64.6610 O.3    14  THR14      -0.2208
     18  CG2       -8.4210    0.9840   63.1520 C.3    14  THR14       0.0379
     19  N         -5.4670    4.2150   64.8480 N.am   15  SER15      -0.1949
     20  CA        -4.8870    5.1450   65.8310 C.3    15  SER15       0.1924
     21  C         -3.5280    5.7050   65.4070 C.2    15  SER15       0.2314
     22  O         -2.9610    5.2630   64.4240 O.2    15  SER15      -0.2863
     23  CB        -4.7730    4.4980   67.1960 C.3    15  SER15       0.2116
     24  OG        -3.8200    3.4730   67.1790 O.3    15  SER15      -0.2180
     25  N         -7.1400    4.3120   52.5190 N.3   106  TRP106     -0.1241
     26  CA        -6.6790    3.2960   51.5780 C.3   106  TRP106      0.1605
     27  C         -7.7610    2.3280   51.1200 C.2   106  TRP106      0.2264
     28  O         -7.8600    2.0330   49.9100 O.2   106  TRP106     -0.2867
     29  CB        -5.4610    2.5240   52.0990 C.3   106  TRP106      0.0550
     30  CG        -5.6350    1.8650   53.3890 C.ar  106  TRP106      0.0003
     31  CD1       -5.5780    2.4460   54.6190 C.ar  106  TRP106      0.0946
     32  CD2       -5.8740    0.4840   53.6050 C.ar  106  TRP106      0.0152
     33  NE1       -5.7680    1.5110   55.5890 N.ar  106  TRP106     -0.2442
     34  CE2       -5.9590    0.2920   54.9940 C.ar  106  TRP106      0.0810
     35  CE3       -6.0510   -0.6150   52.7580 C.ar  106  TRP106      0.0012
     36  CZ2       -6.1990   -0.9600   55.5630 C.ar  106  TRP106      0.0191
     37  CZ3       -6.2980   -1.8670   53.3330 C.ar  106  TRP106      0.0001
     38  CH2       -6.3650   -2.0200   54.7130 C.ar  106  TRP106      0.0015
     39  N          4.0830    2.4430   56.0360 N.3   256  ASP256     -0.1225
     40  CA         4.0530    1.4450   57.1110 C.3   256  ASP256      0.1805
     41  C          4.5760    0.0580   56.7250 C.2   256  ASP256      0.2597
     42  O          5.4780   -0.4660   57.4080 O.2   256  ASP256     -0.2718
     43  CB         2.7030    1.3710   57.8430 C.3   256  ASP256      0.1424
     44  CG         1.5000    1.0740   56.9290 C.2   256  ASP256      0.3668
     45  OD1        1.6710    0.7610   55.7320 O.co2 256  ASP256     -0.2456
     46  OD2        0.3420    1.1670   57.4170 O.co2 256  ASP256     -0.2456
     47  N          4.0740   -0.5310   55.6470 N.am  257  GLN257     -0.1979
     48  CA         4.5210   -1.8810   55.3040 C.3   257  GLN257      0.1601
     49  C          6.0240   -1.9150   55.0380 C.2   257  GLN257      0.2287
     50  O          6.7060   -2.8700   55.4320 O.2   257  GLN257     -0.2864
     51  CB         3.7660   -2.4700   54.0980 C.3   257  GLN257      0.0394
     52  CG         2.2960   -2.7100   54.3400 C.3   257  GLN257      0.0908
     53  CD         2.0430   -3.4070   55.6580 C.2   257  GLN257      0.2608
     54  OE1        2.5760   -4.4780   55.9280 O.2   257  GLN257     -0.2717
     55  NE2        1.2480   -2.7820   56.4920 N.am  257  GLN257     -0.0878
     56  N         -1.4400   -9.8240   60.8170 N.3   277  GLY277     -0.1210
     57  CA        -2.5550   -9.1200   61.4820 C.3   277  GLY277      0.1956
     58  C         -3.9300   -9.6960   61.1090 C.2   277  GLY277      0.2613
     59  O         -4.0860  -10.9140   61.0350 O.2   277  GLY277     -0.2717
     60  N         -4.9310   -8.8240   60.9230 N.am  278  THR278     -0.1938
     61  CA        -6.2600   -9.1930   60.3760 C.3   278  THR278      0.2028
     62  C         -6.1020   -9.8180   58.9960 C.2   278  THR278      0.2642
     63  O         -6.7410  -10.8120   58.6730 O.2   278  THR278     -0.2714
     64  CB        -7.1710   -7.9330   60.2400 C.3   278  THR278      0.1808
     65  OG1       -7.7240   -7.6100   61.5160 O.3   278  THR278     -0.2208
     66  CG2       -8.3390   -8.1210   59.2370 C.3   278  THR278      0.0379
     67  N         -5.2860   -9.1730   58.1720 N.am  279  GLY279     -0.1954
     68  CA        -4.7770   -9.7740   56.9620 C.3   279  GLY279      0.1869
     69  C         -3.2750   -9.9460   57.0710 C.2   279  GLY279      0.2309
     70  O         -2.6750   -9.5830   58.0840 O.2   279  GLY279     -0.2863
     71  N          0.3470   -9.0140   55.1250 N.3   281  PHE281     -0.1241
     72  CA         1.0510   -8.2470   54.1310 C.3   281  PHE281      0.1605
     73  C          2.4470   -8.7640   54.0980 C.2   281  PHE281      0.2264
     74  O          3.1560   -8.6190   55.0780 O.2   281  PHE281     -0.2867
     75  CB         1.1120   -6.7740   54.5130 C.3   281  PHE281      0.0534
     76  CG        -0.0600   -5.9930   54.0490 C.ar  281  PHE281     -0.0203
     77  CD1       -0.1910   -5.6630   52.7060 C.ar  281  PHE281     -0.0042
     78  CD2       -1.0420   -5.5940   54.9410 C.ar  281  PHE281     -0.0042
     79  CE1       -1.2910   -4.9420   52.2610 C.ar  281  PHE281     -0.0003
     80  CE2       -2.1340   -4.8790   54.5050 C.ar  281  PHE281     -0.0003
     81  CZ        -2.2620   -4.5610   53.1610 C.ar  281  PHE281     -0.0000
@<TRIPOS>BOND
     1    28    27    2
     2    27    26    1
     3    26    29    1
     4    26    25    1
     5    29    30    1
     6    79    77   ar
     7    79    81   ar
     8    77    76   ar
     9    35    37   ar
    10    35    32   ar
    11    81    80   ar
    12    37    38   ar
    13    30    32   ar
    14    30    31   ar
    15    32    34   ar
    16    76    75    1
    17    76    78   ar
    18    51    52    1
    19    51    48    1
    20    73    72    1
    21    73    74    2
    22    72    75    1
    23    72    71    1
    24    52    53    1
    25    80    78   ar
    26    31    33   ar
    27    38    36   ar
    28    34    36   ar
    29    34    33   ar
    30    49    48    1
    31    49    50    2
    32    48    47    1
    33    47    41   am
    34    53    54    2
    35    53    55   am
    36    45    44   ar
    37    39    40    1
    38    41    40    1
    39    41    42    2
    40    44    46   ar
    41    44    43    1
    42    68    69    1
    43    68    67    1
    44    69    70    2
    45    40    43    1
    46    67    62   am
    47    10     9    1
    48    63    62    2
    49    11     9    1
    50    62    61    1
    51    66    64    1
    52     9     6    1
    53     6     5    1
    54     6     7    1
    55    64    61    1
    56    64    65    1
    57    61    60    1
    58     5     3   am
    59    56    57    1
    60    60    58   am
    61    59    58    2
    62     8     7    2
    63    58    57    1
    64     3     4    2
    65     3     2    1
    66     7    12   am
    67     2     1    1
    68    12    13    1
    69    18    16    1
    70    13    16    1
    71    13    14    1
    72    16    17    1
    73    22    21    2
    74    14    19   am
    75    14    15    2
    76    19    20    1
    77    21    20    1
    78    20    23    1
    79    24    23    1
