@<TRIPOS>MOLECULE
tmp/5azpC04.pdb
 86 80 0 0 0
SMALL
GASTEIGER

@<TRIPOS>ATOM
      1  N        -66.3800  -54.0710  -79.8050 N.3     1  CYS1       -0.1235
      2  CA       -66.9280  -52.7870  -80.3950 C.3     1  CYS1        0.1677
      3  C        -67.6250  -51.9920  -79.3130 C.2     1  CYS1        0.2270
      4  O        -67.6590  -52.4270  -78.1770 O.2     1  CYS1       -0.2867
      5  CB       -67.8710  -53.0490  -81.5190 C.3     1  CYS1        0.0956
      6  SG       -69.4540  -53.7250  -81.0500 S.3     1  CYS1       -0.0801
      7  N        -71.1730  -49.9950  -78.8080 N.3     3  VAL3       -0.1231
      8  CA       -72.4500  -49.7410  -79.4220 C.3     3  VAL3        0.1692
      9  C        -73.0830  -48.4660  -78.8530 C.2     3  VAL3        0.2593
     10  O        -72.6360  -47.9120  -77.8350 O.2     3  VAL3       -0.2718
     11  CB       -73.3880  -50.9230  -79.2810 C.3     3  VAL3        0.0266
     12  CG1      -72.8110  -52.1720  -79.9790 C.3     3  VAL3        0.0020
     13  CG2      -73.7620  -51.1990  -77.8320 C.3     3  VAL3        0.0020
     14  N        -74.1840  -48.0610  -79.4920 N.am    4  GLY4       -0.1943
     15  CA       -74.8550  -46.8000  -79.1060 C.3     4  GLY4        0.1998
     16  C        -74.2430  -45.5990  -79.8390 C.2     4  GLY4        0.2480
     17  O        -73.2080  -45.6940  -80.5210 O.2     4  GLY4       -0.2729
     18  N        -74.8960  -44.4430  -79.7070 N.am    5  PRO5       -0.2726
     19  CA       -74.4310  -43.2690  -80.4250 C.3     5  PRO5        0.1402
     20  C        -73.0210  -42.8300  -80.0550 C.2     5  PRO5        0.2269
     21  O        -72.6290  -42.9130  -78.8640 O.2     5  PRO5       -0.2865
     22  CB       -75.4700  -42.1930  -80.0420 C.3     5  PRO5        0.0296
     23  CG       -76.0520  -42.6700  -78.7780 C.3     5  PRO5        0.0237
     24  CD       -75.9930  -44.1830  -78.7660 C.3     5  PRO5        0.0939
     25  N        -75.2830  -38.9480  -73.4190 N.3   279  THR279     -0.1218
     26  CA       -75.1970  -39.6350  -74.6940 C.3   279  THR279      0.1862
     27  C        -74.4660  -40.9850  -74.5090 C.2   279  THR279      0.2287
     28  O        -74.8700  -42.0170  -75.0600 O.2   279  THR279     -0.2866
     29  CB       -74.5280  -38.7510  -75.7430 C.3   279  THR279      0.1770
     30  OG1      -75.3250  -37.5260  -75.8770 O.3   279  THR279     -0.2211
     31  CG2      -74.5030  -39.4630  -77.0770 C.3   279  THR279      0.0375
     32  N        -76.7440  -43.6130  -73.1030 N.3   282  VAL282     -0.1245
     33  CA       -77.5670  -44.2890  -74.1120 C.3   282  VAL282      0.1561
     34  C        -76.8240  -45.5320  -74.5970 C.2   282  VAL282      0.2260
     35  O        -77.4090  -46.5890  -74.7320 O.2   282  VAL282     -0.2867
     36  CB       -77.9390  -43.3830  -75.2980 C.3   282  VAL282      0.0252
     37  CG1      -78.6950  -44.1560  -76.3680 C.3   282  VAL282      0.0019
     38  CG2      -78.7510  -42.2130  -74.7690 C.3   282  VAL282      0.0019
     39  N        -77.8360  -49.3970  -74.5970 N.3   286  THR286     -0.1218
     40  CA       -77.8370  -50.0760  -75.8880 C.3   286  THR286      0.1862
     41  C        -77.1070  -51.4220  -75.8180 C.2   286  THR286      0.2287
     42  O        -77.5580  -52.4160  -76.4280 O.2   286  THR286     -0.2866
     43  CB       -77.2240  -49.1970  -76.9610 C.3   286  THR286      0.1770
     44  OG1      -77.9370  -47.9660  -77.0700 O.3   286  THR286     -0.2211
     45  CG2      -77.2590  -49.8880  -78.3140 C.3   286  THR286      0.0375
     46  N        -78.9980  -54.7330  -75.2070 N.3   289  LEU289     -0.1231
     47  CA       -79.6760  -55.4260  -76.2710 C.3   289  LEU289      0.1693
     48  C        -78.8790  -56.6610  -76.7350 C.2   289  LEU289      0.2592
     49  O        -79.4620  -57.5330  -77.3850 O.2   289  LEU289     -0.2718
     50  CB       -79.8660  -54.5240  -77.4800 C.3   289  LEU289      0.0284
     51  CG       -80.7140  -53.2560  -77.3160 C.3   289  LEU289      0.0019
     52  CD1      -80.4850  -52.3490  -78.4640 C.3   289  LEU289      0.0001
     53  CD2      -82.1370  -53.7010  -77.1700 C.3   289  LEU289      0.0001
     54  N        -77.5810  -56.6920  -76.4200 N.am  290  PHE290     -0.1976
     55  CA       -76.6630  -57.6890  -76.9670 C.3   290  PHE290      0.1639
     56  C        -76.2810  -58.6240  -75.8420 C.2   290  PHE290      0.2290
     57  O        -76.4700  -58.2960  -74.6610 O.2   290  PHE290     -0.2864
     58  CB       -75.4290  -57.0140  -77.5350 C.3   290  PHE290      0.0560
     59  CG       -75.7350  -56.1600  -78.7160 C.ar  290  PHE290     -0.0200
     60  CD1      -75.8400  -56.7380  -79.9530 C.ar  290  PHE290     -0.0042
     61  CD2      -75.9830  -54.8200  -78.6050 C.ar  290  PHE290     -0.0042
     62  CE1      -76.1990  -55.9720  -81.0600 C.ar  290  PHE290     -0.0003
     63  CE2      -76.3130  -54.0180  -79.6950 C.ar  290  PHE290     -0.0003
     64  CZ       -76.4090  -54.5830  -80.9330 C.ar  290  PHE290     -0.0000
     65  N        -82.5960  -42.7130  -73.7150 N.3   341  LYS341     -0.1245
     66  CA       -82.7980  -41.7850  -74.8330 C.3   341  LYS341      0.1561
     67  C        -83.5200  -40.5140  -74.4080 C.2   341  LYS341      0.2260
     68  O        -83.1670  -39.3850  -74.7930 O.2   341  LYS341     -0.2867
     69  CB       -83.4780  -42.4530  -76.0010 C.3   341  LYS341      0.0271
     70  CG       -82.6280  -43.5240  -76.6620 C.3   341  LYS341      0.0035
     71  CD       -83.4010  -44.2440  -77.7950 C.3   341  LYS341      0.0206
     72  CE       -82.5380  -45.1210  -78.6590 C.3   341  LYS341      0.1093
     73  NZ       -83.4410  -45.9810  -79.4740 N.3   341  LYS341     -0.1314
     74  N        -81.1570  -38.2630  -72.4830 N.3   344  ALA344     -0.1231
     75  CA       -80.2690  -37.5730  -73.3830 C.3   344  ALA344      0.1694
     76  C        -80.9460  -36.4470  -74.1310 C.2   344  ALA344      0.2592
     77  O        -80.3490  -35.3670  -74.3610 O.2   344  ALA344     -0.2718
     78  CB       -79.5840  -38.5310  -74.3520 C.3   344  ALA344      0.0304
     79  N        -82.2090  -36.6580  -74.4880 N.am  345  ASP345     -0.1974
     80  CA       -82.9690  -35.5820  -75.1180 C.3   345  ASP345      0.1709
     81  C        -83.2130  -34.4310  -74.1550 C.2   345  ASP345      0.2293
     82  O        -83.1440  -33.2550  -74.5290 O.2   345  ASP345     -0.2864
     83  CB       -84.3340  -36.0830  -75.6210 C.3   345  ASP345      0.1436
     84  CG       -84.2510  -36.9500  -76.9090 C.2   345  ASP345      0.3671
     85  OD1      -83.2100  -36.9460  -77.6010 O.co2 345  ASP345     -0.2456
     86  OD2      -85.3140  -37.6120  -77.1890 O.co2 345  ASP345     -0.2456
@<TRIPOS>BOND
     1     5     6    1
     2     5     2    1
     3    62    64   ar
     4    62    60   ar
     5    64    63   ar
     6    17    16    2
     7    19    20    1
     8    19    22    1
     9    19    18    1
    10     2     1    1
    11     2     3    1
    12    20    21    2
    13    22    23    1
    14    12    11    1
    15    60    59   ar
    16    16    18   am
    17    16    15    1
    18    18    24    1
    19    63    61   ar
    20    14    15    1
    21    14     9   am
    22    73    72    1
    23     8    11    1
    24     8     9    1
    25     8     7    1
    26     3     4    2
    27    11    13    1
    28     9    10    2
    29    23    24    1
    30    59    61   ar
    31    59    58    1
    32    72    71    1
    33    52    51    1
    34    45    43    1
    35    71    70    1
    36    85    84   ar
    37    58    55    1
    38    50    51    1
    39    50    47    1
    40    49    48    2
    41    51    53    1
    42    86    84   ar
    43    31    29    1
    44    44    43    1
    45    55    54    1
    46    55    56    1
    47    43    40    1
    48    84    83    1
    49    48    54   am
    50    48    47    1
    51    70    69    1
    52    42    41    2
    53    37    36    1
    54    47    46    1
    55    69    66    1
    56    40    41    1
    57    40    39    1
    58    30    29    1
    59    56    57    2
    60    29    26    1
    61    83    80    1
    62    36    38    1
    63    36    33    1
    64    80    79    1
    65    80    81    1
    66    28    27    2
    67    66    67    1
    68    66    65    1
    69    68    67    2
    70    35    34    2
    71    26    27    1
    72    26    25    1
    73    34    33    1
    74    82    81    2
    75    79    76   am
    76    77    76    2
    77    78    75    1
    78    76    75    1
    79    33    32    1
    80    75    74    1
