@<TRIPOS>MOLECULE
tmp/5aztB00.pdb
 239 226 0 0 0
SMALL
GASTEIGER

@<TRIPOS>ATOM
      1  N        -21.7070  -34.7930  -39.3480 N.3    37  ILE37      -0.1245
      2  CA       -21.2010  -35.5750  -40.4760 C.3    37  ILE37       0.1561
      3  C        -19.6810  -35.7470  -40.4280 C.2    37  ILE37       0.2260
      4  O        -18.9180  -34.7920  -40.6180 O.2    37  ILE37      -0.2867
      5  CB       -21.5210  -34.9320  -41.8280 C.3    37  ILE37       0.0252
      6  CG1      -22.9330  -34.3510  -41.8470 C.3    37  ILE37       0.0019
      7  CG2      -21.3670  -35.9690  -42.9240 C.3    37  ILE37       0.0019
      8  CD1      -23.1070  -33.2700  -42.8870 C.3    37  ILE37       0.0001
      9  N        -23.1930  -38.2740  -44.2300 N.3    43  LEU43      -0.1245
     10  CA       -23.5300  -37.1800  -45.1330 C.3    43  LEU43       0.1561
     11  C        -24.7590  -37.5160  -45.9580 C.2    43  LEU43       0.2260
     12  O        -25.6430  -36.6820  -46.1270 O.2    43  LEU43      -0.2867
     13  CB       -22.3530  -36.8760  -46.0630 C.3    43  LEU43       0.0270
     14  CG       -22.6730  -36.0180  -47.2760 C.3    43  LEU43       0.0019
     15  CD1      -23.0410  -34.6250  -46.8140 C.3    43  LEU43       0.0001
     16  CD2      -21.4940  -35.9570  -48.2150 C.3    43  LEU43       0.0001
     17  N        -27.6830  -36.9390  -44.0270 N.3    46  ALA46      -0.1231
     18  CA       -27.9570  -35.4930  -43.9530 C.3    46  ALA46       0.1694
     19  C        -28.7840  -34.9810  -45.1230 C.2    46  ALA46       0.2591
     20  O        -29.7060  -34.1900  -44.9340 O.2    46  ALA46      -0.2718
     21  CB       -26.6600  -34.6980  -43.8700 C.3    46  ALA46       0.0304
     22  N        -28.4330  -35.4230  -46.3290 N.am   47  GLU47      -0.1979
     23  CA       -29.1440  -35.0340  -47.5440 C.3    47  GLU47       0.1602
     24  C        -30.5790  -35.5210  -47.5390 C.2    47  GLU47       0.2287
     25  O        -31.4700  -34.8140  -47.9960 O.2    47  GLU47      -0.2864
     26  CB       -28.4360  -35.5890  -48.7710 C.3    47  GLU47       0.0415
     27  CG       -27.1910  -34.7510  -49.1430 C.3    47  GLU47       0.1163
     28  CD       -26.3680  -35.4390  -50.2090 C.2    47  GLU47       0.3649
     29  OE1      -26.9640  -36.3620  -50.8080 O.co2  47  GLU47      -0.2457
     30  OE2      -25.2260  -35.0380  -50.3830 O.co2  47  GLU47      -0.2457
     31  N        -32.3930  -33.3680  -45.0870 N.3    50  LEU50      -0.1245
     32  CA       -32.5560  -32.0070  -45.6380 C.3    50  LEU50       0.1561
     33  C        -32.9020  -32.0300  -47.1410 C.2    50  LEU50       0.2260
     34  O        -32.2480  -31.3830  -47.9800 O.2    50  LEU50      -0.2867
     35  CB       -31.2870  -31.1820  -45.3930 C.3    50  LEU50       0.0270
     36  CG       -30.9370  -30.8280  -43.9420 C.3    50  LEU50       0.0019
     37  CD1      -30.9330  -32.0170  -43.0120 C.3    50  LEU50       0.0001
     38  CD2      -29.5820  -30.1570  -43.8870 C.3    50  LEU50       0.0001
     39  N        -21.7770  -33.2290  -55.1640 N.3    56  ARG56      -0.1231
     40  CA       -22.9640  -32.9960  -54.3410 C.3    56  ARG56       0.1694
     41  C        -22.7230  -31.9400  -53.2610 C.2    56  ARG56       0.2592
     42  O        -23.5680  -31.0840  -53.0260 O.2    56  ARG56      -0.2718
     43  CB       -23.4370  -34.2980  -53.6920 C.3    56  ARG56       0.0321
     44  CG       -23.8410  -35.3700  -54.6890 C.3    56  ARG56       0.0489
     45  CD       -24.6450  -36.4920  -54.0640 C.3    56  ARG56       0.2205
     46  NE       -23.8780  -37.7340  -53.9360 N.pl3  56  ARG56      -0.0865
     47  CZ       -23.7750  -38.4870  -52.8370 C.cat  56  ARG56       0.5346
     48  NH1      -24.3940  -38.1540  -51.7020 N.pl3  56  ARG56       0.1354
     49  NH2      -23.0440  -39.6040  -52.8710 N.pl3  56  ARG56       0.1354
     50  N        -21.5710  -32.0080  -52.6070 N.am   57  ILE57      -0.1966
     51  CA       -21.1480  -30.9780  -51.6540 C.3    57  ILE57       0.1727
     52  C        -21.0090  -29.6120  -52.3350 C.2    57  ILE57       0.2616
     53  O        -21.3110  -28.5820  -51.7430 O.2    57  ILE57      -0.2715
     54  CB       -19.8200  -31.3770  -50.9590 C.3    57  ILE57       0.0290
     55  CG1      -20.0610  -32.6020  -50.0640 C.3    57  ILE57       0.0022
     56  CG2      -19.2560  -30.2210  -50.1360 C.3    57  ILE57       0.0023
     57  CD1      -18.9200  -33.0010  -49.1520 C.3    57  ILE57       0.0001
     58  N        -20.5570  -29.6190  -53.5830 N.am   58  PHE58      -0.1974
     59  CA       -20.2740  -28.3870  -54.3110 C.3    58  PHE58       0.1639
     60  C        -21.5050  -27.5100  -54.5070 C.2    58  PHE58       0.2290
     61  O        -21.4040  -26.2820  -54.4780 O.2    58  PHE58      -0.2864
     62  CB       -19.6400  -28.7010  -55.6760 C.3    58  PHE58       0.0560
     63  CG       -18.8330  -27.5690  -56.2510 C.ar   58  PHE58      -0.0200
     64  CD1      -18.0610  -26.7410  -55.4310 C.ar   58  PHE58      -0.0042
     65  CD2      -18.8260  -27.3400  -57.6230 C.ar   58  PHE58      -0.0042
     66  CE1      -17.3230  -25.7000  -55.9590 C.ar   58  PHE58      -0.0003
     67  CE2      -18.0810  -26.2970  -58.1570 C.ar   58  PHE58      -0.0003
     68  CZ       -17.3290  -25.4760  -57.3220 C.ar   58  PHE58      -0.0000
     69  N        -23.9970  -27.3480  -52.3590 N.3    60  CYS60      -0.1221
     70  CA       -24.1940  -26.7410  -51.0520 C.3    60  CYS60       0.1808
     71  C        -23.2970  -25.5330  -50.8060 C.2    60  CYS60       0.2601
     72  O        -23.7260  -24.5410  -50.2250 O.2    60  CYS60      -0.2717
     73  CB       -23.9470  -27.7680  -49.9760 C.3    60  CYS60       0.0970
     74  SG       -24.8640  -29.2760  -50.1160 S.3    60  CYS60      -0.0800
     75  N        -22.0590  -25.6280  -51.2640 N.am   61  CYS61      -0.1956
     76  CA       -21.1260  -24.5160  -51.2070 C.3    61  CYS61       0.1843
     77  C        -21.5980  -23.3120  -52.0240 C.2    61  CYS61       0.2625
     78  O        -21.7310  -22.1950  -51.5000 O.2    61  CYS61      -0.2714
     79  CB       -19.7630  -25.0040  -51.6660 C.3    61  CYS61       0.0997
     80  SG       -19.1950  -26.3000  -50.5540 S.3    61  CYS61      -0.0797
     81  N        -21.8950  -23.5530  -53.2950 N.am   62  GLN62      -0.1977
     82  CA       -22.3870  -22.5000  -54.1710 C.3    62  GLN62       0.1601
     83  C        -23.6900  -21.9030  -53.6580 C.2    62  GLN62       0.2287
     84  O        -23.8390  -20.6860  -53.6450 O.2    62  GLN62      -0.2864
     85  CB       -22.5660  -23.0240  -55.5940 C.3    62  GLN62       0.0394
     86  CG       -21.2660  -23.1530  -56.3690 C.3    62  GLN62       0.0908
     87  CD       -21.4820  -23.5820  -57.8070 C.2    62  GLN62       0.2608
     88  OE1      -22.6080  -23.5740  -58.3110 O.2    62  GLN62      -0.2717
     89  NE2      -20.4000  -23.9580  -58.4770 N.am   62  GLN62      -0.0878
     90  N        -24.7590  -21.8920  -50.5270 N.3    64  THR64      -0.1203
     91  CA       -24.4400  -21.1380  -49.3290 C.3    64  THR64       0.1994
     92  C        -23.8510  -19.7620  -49.6630 C.2    64  THR64       0.2618
     93  O        -24.2440  -18.7740  -49.0520 O.2    64  THR64      -0.2717
     94  CB       -23.5060  -21.9400  -48.4110 C.3    64  THR64       0.1784
     95  OG1      -24.1640  -23.1470  -47.9930 O.3    64  THR64      -0.2211
     96  CG2      -23.1180  -21.1220  -47.1730 C.3    64  THR64       0.0376
     97  N        -22.9170  -19.6940  -50.6090 N.am   65  SER65      -0.1951
     98  CA       -22.3620  -18.4020  -51.0260 C.3    65  SER65       0.1924
     99  C        -23.4690  -17.4930  -51.5120 C.2    65  SER65       0.2314
    100  O        -23.5920  -16.3720  -51.0240 O.2    65  SER65      -0.2863
    101  CB       -21.3550  -18.5540  -52.1650 C.3    65  SER65       0.2116
    102  OG       -20.2020  -19.2620  -51.7700 O.3    65  SER65      -0.2180
    103  N        -16.6560  -12.1260  -51.4370 N.3    99  TYR99      -0.1241
    104  CA       -15.9530  -13.3760  -51.0440 C.3    99  TYR99       0.1605
    105  C        -15.0220  -13.2230  -49.8300 C.2    99  TYR99       0.2264
    106  O        -14.8670  -14.1420  -49.0250 O.2    99  TYR99      -0.2867
    107  CB       -15.1890  -13.9890  -52.2300 C.3    99  TYR99       0.0534
    108  CG       -15.9820  -15.0490  -52.9450 C.ar   99  TYR99      -0.0201
    109  CD1      -16.3290  -16.2170  -52.2940 C.ar   99  TYR99      -0.0009
    110  CD2      -16.4060  -14.8820  -54.2610 C.ar   99  TYR99      -0.0009
    111  CE1      -17.0700  -17.2030  -52.9220 C.ar   99  TYR99       0.0417
    112  CE2      -17.1470  -15.8690  -54.9060 C.ar   99  TYR99       0.0417
    113  CZ       -17.4740  -17.0320  -54.2200 C.ar   99  TYR99       0.1957
    114  OH       -18.2040  -18.0470  -54.7900 O.3    99  TYR99      -0.2866
    115  N        -17.2600  -13.1180  -46.7850 N.3   102  ILE102     -0.1231
    116  CA       -17.8330  -14.4240  -46.4330 C.3   102  ILE102      0.1692
    117  C        -16.8860  -15.2330  -45.5470 C.2   102  ILE102      0.2592
    118  O        -17.3130  -15.8090  -44.5470 O.2   102  ILE102     -0.2718
    119  CB       -18.2440  -15.2500  -47.6770 C.3   102  ILE102      0.0266
    120  CG1      -19.3310  -14.4990  -48.4540 C.3   102  ILE102      0.0019
    121  CG2      -18.7660  -16.6170  -47.2480 C.3   102  ILE102      0.0020
    122  CD1      -19.9960  -15.2640  -49.5840 C.3   102  ILE102      0.0001
    123  N        -15.6110  -15.2600  -45.9110 N.am  103  PHE103     -0.1976
    124  CA       -14.6190  -16.0690  -45.1910 C.3   103  PHE103      0.1639
    125  C        -14.3080  -15.5450  -43.8070 C.2   103  PHE103      0.2290
    126  O        -14.1120  -16.3270  -42.8750 O.2   103  PHE103     -0.2864
    127  CB       -13.3220  -16.1730  -45.9940 C.3   103  PHE103      0.0560
    128  CG       -13.4920  -16.7820  -47.3660 C.ar  103  PHE103     -0.0200
    129  CD1      -14.5560  -17.6500  -47.6550 C.ar  103  PHE103     -0.0042
    130  CD2      -12.5750  -16.5050  -48.3700 C.ar  103  PHE103     -0.0042
    131  CE1      -14.6980  -18.2060  -48.9070 C.ar  103  PHE103     -0.0003
    132  CE2      -12.7220  -17.0650  -49.6270 C.ar  103  PHE103     -0.0003
    133  CZ       -13.7840  -17.9150  -49.8870 C.ar  103  PHE103     -0.0000
    134  N        -17.5910  -16.4040  -41.9490 N.3   106  LEU106     -0.1245
    135  CA       -17.8440  -17.8280  -41.7390 C.3   106  LEU106      0.1561
    136  C        -17.0900  -18.3580  -40.5210 C.2   106  LEU106      0.2260
    137  O        -17.4190  -19.4070  -39.9720 O.2   106  LEU106     -0.2867
    138  CB       -17.4600  -18.6040  -42.9900 C.3   106  LEU106      0.0270
    139  CG       -17.4940  -20.1280  -42.9100 C.3   106  LEU106      0.0019
    140  CD1      -18.9210  -20.6530  -43.0140 C.3   106  LEU106      0.0001
    141  CD2      -16.6160  -20.7010  -44.0010 C.3   106  LEU106      0.0001
    142  N        -17.2970  -27.4380  -38.7710 N.3   115  MET115     -0.1230
    143  CA       -18.0500  -26.2210  -39.1110 C.3   115  MET115      0.1702
    144  C        -19.5660  -26.4650  -39.2170 C.2   115  MET115      0.2592
    145  O        -20.0080  -27.5670  -39.5470 O.2   115  MET115     -0.2718
    146  CB       -17.5030  -25.6080  -40.4000 C.3   115  MET115      0.0401
    147  CG       -17.7640  -26.4180  -41.6550 C.3   115  MET115      0.0596
    148  SD       -17.4680  -25.5550  -43.2000 S.3   115  MET115     -0.1393
    149  CE       -18.5140  -24.1280  -42.9980 C.3   115  MET115      0.0692
    150  N        -20.3460  -25.4290  -38.9200 N.am  116  LEU116     -0.1966
    151  CA       -21.8130  -25.5040  -38.9810 C.3   116  LEU116      0.1728
    152  C        -22.3380  -25.3790  -40.4030 C.2   116  LEU116      0.2616
    153  O        -21.9380  -24.4910  -41.1470 O.2   116  LEU116     -0.2715
    154  CB       -22.4600  -24.3890  -38.1620 C.3   116  LEU116      0.0311
    155  CG       -22.4410  -24.4570  -36.6340 C.3   116  LEU116      0.0022
    156  CD1      -22.7940  -23.1000  -36.0650 C.3   116  LEU116      0.0001
    157  CD2      -23.4030  -25.5100  -36.1070 C.3   116  LEU116      0.0001
    158  N        -23.2830  -26.2380  -40.7520 N.am  117  VAL117     -0.1963
    159  CA       -23.8060  -26.3120  -42.1150 C.3   117  VAL117      0.1727
    160  C        -25.3250  -26.3440  -42.0570 C.2   117  VAL117      0.2616
    161  O        -25.9070  -26.6270  -41.0000 O.2   117  VAL117     -0.2715
    162  CB       -23.2650  -27.5470  -42.8670 C.3   117  VAL117      0.0290
    163  CG1      -21.7470  -27.5970  -42.7940 C.3   117  VAL117      0.0023
    164  CG2      -23.8250  -28.8470  -42.3020 C.3   117  VAL117      0.0023
    165  N        -25.9620  -26.0350  -43.1830 N.am  118  ALA118     -0.1977
    166  CA       -27.4280  -26.0280  -43.2820 C.3   118  ALA118      0.1597
    167  C        -28.0520  -25.0870  -42.2590 C.2   118  ALA118      0.2287
    168  O        -29.0240  -25.4270  -41.5900 O.2   118  ALA118     -0.2864
    169  CB       -27.9790  -27.4430  -43.1180 C.3   118  ALA118      0.0319
    170  N        -20.3130  -30.2530  -39.8740 N.3   124  ILE124     -0.1245
    171  CA       -19.4190  -31.0600  -40.7100 C.3   124  ILE124      0.1561
    172  C        -17.9840  -31.0500  -40.1650 C.2   124  ILE124      0.2260
    173  O        -17.4060  -29.9840  -39.9060 O.2   124  ILE124     -0.2867
    174  CB       -19.4790  -30.6120  -42.1810 C.3   124  ILE124      0.0252
    175  CG1      -18.8850  -31.6670  -43.0940 C.3   124  ILE124      0.0019
    176  CG2      -18.7560  -29.3080  -42.3910 C.3   124  ILE124      0.0019
    177  CD1      -19.3400  -31.5040  -44.5210 C.3   124  ILE124      0.0001
    178  N        -10.4530  -26.9150  -50.7820 N.3   139  ILE139     -0.1231
    179  CA       -11.1430  -25.6240  -50.6020 C.3   139  ILE139      0.1692
    180  C        -11.3610  -25.2610  -49.1340 C.2   139  ILE139      0.2591
    181  O        -11.2710  -24.0870  -48.7590 O.2   139  ILE139     -0.2718
    182  CB       -12.5250  -25.5430  -51.2780 C.3   139  ILE139      0.0266
    183  CG1      -12.5270  -26.1790  -52.6670 C.3   139  ILE139      0.0019
    184  CG2      -12.9480  -24.0740  -51.3910 C.3   139  ILE139      0.0020
    185  CD1      -13.9010  -26.5050  -53.1840 C.3   139  ILE139      0.0001
    186  N        -11.6690  -26.2580  -48.3120 N.am  140  MET140     -0.1979
    187  CA       -11.9640  -26.0110  -46.9010 C.3   140  MET140      0.1605
    188  C        -10.8080  -25.5500  -46.0050 C.2   140  MET140      0.2287
    189  O        -10.9740  -24.6500  -45.1800 O.2   140  MET140     -0.2864
    190  CB       -12.6770  -27.2270  -46.3020 C.3   140  MET140      0.0413
    191  CG       -14.0530  -27.4620  -46.9280 C.3   140  MET140      0.0598
    192  SD       -14.9630  -25.9490  -47.4430 S.3   140  MET140     -0.1393
    193  CE       -14.7320  -24.8550  -46.0410 C.3   140  MET140      0.0692
    194  N         -9.4080  -21.7470  -45.3940 N.3   143  LYS143     -0.1245
    195  CA       -10.3750  -21.0150  -44.5720 C.3   143  LYS143      0.1561
    196  C        -10.2190  -21.4100  -43.0980 C.2   143  LYS143      0.2260
    197  O        -10.2000  -20.5540  -42.2130 O.2   143  LYS143     -0.2867
    198  CB       -11.8150  -21.2960  -45.0210 C.3   143  LYS143      0.0271
    199  CG       -12.0150  -21.6690  -46.4790 C.3   143  LYS143      0.0035
    200  CD       -11.5480  -20.5690  -47.4050 C.3   143  LYS143      0.0206
    201  CE       -11.8220  -20.9100  -48.8630 C.3   143  LYS143      0.1093
    202  NZ       -10.7360  -21.7080  -49.5050 N.3   143  LYS143     -0.1314
    203  N         -8.4410  -18.9910  -53.6250 N.3   225  HIS225     -0.1241
    204  CA        -9.6950  -19.7030  -53.7940 C.3   225  HIS225      0.1621
    205  C        -10.1550  -19.6880  -55.2430 C.2   225  HIS225      0.2264
    206  O        -10.5820  -20.7180  -55.7690 O.2   225  HIS225     -0.2867
    207  CB       -10.7760  -19.1120  -52.8860 C.3   225  HIS225      0.0745
    208  CG       -12.1240  -19.7310  -53.0700 C.ar  225  HIS225      0.0817
    209  ND1      -12.2980  -21.0450  -53.4380 N.ar  225  HIS225     -0.2268
    210  CD2      -13.3630  -19.2180  -52.9240 C.ar  225  HIS225      0.1154
    211  CE1      -13.5870  -21.3120  -53.5190 C.ar  225  HIS225      0.1986
    212  NE2      -14.2560  -20.2190  -53.2070 N.ar  225  HIS225     -0.2212
    213  N        -11.2720  -22.7860  -57.8980 N.3   229  VAL229     -0.1245
    214  CA       -12.5380  -22.8210  -58.6330 C.3   229  VAL229      0.1561
    215  C        -12.3390  -22.9210  -60.1490 C.2   229  VAL229      0.2260
    216  O        -13.0150  -23.7110  -60.8170 O.2   229  VAL229     -0.2867
    217  CB       -13.3990  -21.6000  -58.2590 C.3   229  VAL229      0.0252
    218  CG1      -14.4950  -21.3150  -59.2830 C.3   229  VAL229      0.0019
    219  CG2      -14.0120  -21.8310  -56.8900 C.3   229  VAL229      0.0019
    220  N        -22.2680  -16.5180  -59.3470 N.3   245  LEU245     -0.1245
    221  CA       -20.8520  -16.8120  -59.1800 C.3   245  LEU245      0.1561
    222  C        -20.0280  -16.5170  -60.4240 C.2   245  LEU245      0.2260
    223  O        -18.9290  -16.0150  -60.3090 O.2   245  LEU245     -0.2867
    224  CB       -20.6320  -18.2680  -58.7610 C.3   245  LEU245      0.0270
    225  CG       -20.2180  -18.4710  -57.3020 C.3   245  LEU245      0.0019
    226  CD1      -21.3690  -18.2200  -56.3430 C.3   245  LEU245      0.0001
    227  CD2      -19.6720  -19.8790  -57.1300 C.3   245  LEU245      0.0001
    228  N        -17.1530  -14.2390  -60.1490 N.3   249  TYR249     -0.1241
    229  CA       -15.8200  -14.8350  -60.3560 C.3   249  TYR249      0.1605
    230  C        -15.0130  -14.1960  -61.4860 C.2   249  TYR249      0.2264
    231  O        -13.7990  -14.0440  -61.3650 O.2   249  TYR249     -0.2867
    232  CB       -15.8680  -16.3680  -60.5050 C.3   249  TYR249      0.0534
    233  CG       -15.6630  -17.0750  -59.1800 C.ar  249  TYR249     -0.0201
    234  CD1      -14.4600  -16.9500  -58.4880 C.ar  249  TYR249     -0.0009
    235  CD2      -16.6710  -17.8410  -58.6100 C.ar  249  TYR249     -0.0009
    236  CE1      -14.2690  -17.5730  -57.2690 C.ar  249  TYR249      0.0417
    237  CE2      -16.4840  -18.4700  -57.3930 C.ar  249  TYR249      0.0417
    238  CZ       -15.2920  -18.3350  -56.7280 C.ar  249  TYR249      0.1957
    239  OH       -15.1570  -18.9800  -55.5200 O.3   249  TYR249     -0.2866
@<TRIPOS>BOND
     1   230   231    2
     2   230   229    1
     3   216   215    2
     4   232   229    1
     5   232   233    1
     6   222   223    2
     7   222   221    1
     8   229   228    1
     9   215   214    1
    10   220   221    1
    11   218   217    1
    12   233   235   ar
    13   233   234   ar
    14   221   224    1
    15   224   225    1
    16   214   217    1
    17   214   213    1
    18   235   237   ar
    19   234   236   ar
    20    89    87   am
    21    88    87    2
    22   217   219    1
    23    67    65   ar
    24    67    68   ar
    25    87    86    1
    26    65    63   ar
    27   237   238   ar
    28    68    66   ar
    29   225   227    1
    30   225   226    1
    31   236   238   ar
    32   238   239    1
    33    86    85    1
    34    63    62    1
    35    63    64   ar
    36    66    64   ar
    37   206   205    2
    38    62    59    1
    39    85    82    1
    40   205   204    1
    41    39    40    1
    42   112   110   ar
    43   112   113   ar
    44   114   113    1
    45    44    45    1
    46    44    43    1
    47    60    61    2
    48    60    59    1
    49    40    43    1
    50    40    41    1
    51    59    58    1
    52   110   108   ar
    53   113   111   ar
    54    82    83    1
    55    82    81    1
    56    45    46    1
    57    46    47    2
    58   204   203    1
    59   204   207    1
    60    83    84    2
    61    58    52   am
    62   211   209   ar
    63   211   212   ar
    64   209   208   ar
    65    81    77   am
    66    41    42    2
    67    41    50   am
    68   212   210   ar
    69   185   183    1
    70   208   210   ar
    71   208   207    1
    72   108   109   ar
    73   108   107    1
    74   111   109   ar
    75    49    47    1
    76    47    48    1
    77   183   182    1
    78    50    51    1
    79    69    70    1
    80    52    53    2
    81    52    51    1
    82   107   104    1
    83   101   102    1
    84   101    98    1
    85    77    78    2
    86    77    76    1
    87    79    76    1
    88    79    80    1
    89    51    54    1
    90    99    98    1
    91    99   100    2
    92   103   104    1
    93   184   182    1
    94   182   179    1
    95    75    76    1
    96    75    71   am
    97    70    71    1
    98    70    73    1
    99   104   105    1
   100    98    97    1
   101    54    56    1
   102    54    55    1
   103    29    28   ar
   104    71    72    2
   105   178   179    1
   106    97    92   am
   107   179   180    1
   108    90    91    1
   109    30    28   ar
   110    28    27    1
   111    74    73    1
   112    55    57    1
   113   133   132   ar
   114   133   131   ar
   115   105   106    2
   116    92    91    1
   117    92    93    2
   118   132   130   ar
   119   122   120    1
   120   202   201    1
   121    91    94    1
   122    27    26    1
   123   180   181    2
   124   180   186   am
   125   131   129   ar
   126   201   200    1
   127    26    23    1
   128   120   119    1
   129    94    95    1
   130    94    96    1
   131   130   128   ar
   132   186   187    1
   133    16    14    1
   134    25    24    2
   135    34    33    2
   136   119   121    1
   137   119   116    1
   138   129   128   ar
   139    23    24    1
   140    23    22    1
   141   192   191    1
   142   192   193    1
   143   200   199    1
   144   128   127    1
   145    14    15    1
   146    14    13    1
   147    33    32    1
   148   191   190    1
   149   187   190    1
   150   187   188    1
   151   115   116    1
   152   199   198    1
   153   116   117    1
   154    22    19   am
   155    12    11    2
   156    13    10    1
   157   188   189    2
   158   127   124    1
   159    11    10    1
   160   123   117   am
   161   123   124    1
   162    32    35    1
   163    32    31    1
   164   117   118    2
   165   194   195    1
   166    35    36    1
   167   124   125    1
   168    10     9    1
   169    19    20    2
   170    19    18    1
   171   198   195    1
   172   195   196    1
   173   177   175    1
   174    17    18    1
   175   141   139    1
   176    18    21    1
   177    36    38    1
   178    36    37    1
   179   125   126    2
   180   166   165    1
   181   166   169    1
   182   166   167    1
   183   148   149    1
   184   148   147    1
   185   165   160   am
   186   196   197    2
   187   175   174    1
   188   140   139    1
   189   138   139    1
   190   138   135    1
   191     7     5    1
   192     8     6    1
   193   162   163    1
   194   162   164    1
   195   162   159    1
   196   176   174    1
   197   167   168    2
   198   174   171    1
   199   159   160    1
   200   159   158    1
   201   160   161    2
   202   134   135    1
   203     6     5    1
   204     5     2    1
   205   135   136    1
   206   147   146    1
   207   153   152    2
   208   158   152   am
   209   171   172    1
   210   171   170    1
   211     4     3    2
   212   136   137    2
   213     2     3    1
   214     2     1    1
   215   152   151    1
   216   146   143    1
   217   172   173    2
   218   145   144    2
   219   144   143    1
   220   144   150   am
   221   143   142    1
   222   151   150    1
   223   151   154    1
   224   154   155    1
   225   155   157    1
   226   155   156    1
