@<TRIPOS>MOLECULE
tmp/5b00A00.pdb
 151 142 0 0 0
SMALL
GASTEIGER

@<TRIPOS>ATOM
      1  N         85.8710   11.0620    5.4690 N.3    39  TYR39      -0.1241
      2  CA        86.9460   11.9610    5.0870 C.3    39  TYR39       0.1605
      3  C         86.4040   13.1210    4.2740 C.2    39  TYR39       0.2264
      4  O         86.7000   14.2710    4.5960 O.2    39  TYR39      -0.2867
      5  CB        88.0140   11.2310    4.2670 C.3    39  TYR39       0.0534
      6  CG        88.5200    9.9660    4.8990 C.ar   39  TYR39      -0.0201
      7  CD1       89.7290    9.9340    5.5890 C.ar   39  TYR39      -0.0009
      8  CD2       87.7530    8.7970    4.8410 C.ar   39  TYR39      -0.0009
      9  CE1       90.1640    8.7540    6.2210 C.ar   39  TYR39       0.0417
     10  CE2       88.1640    7.6120    5.4690 C.ar   39  TYR39       0.0417
     11  CZ        89.3700    7.5870    6.1650 C.ar   39  TYR39       0.1957
     12  OH        89.7310    6.4080    6.8240 O.3    39  TYR39      -0.2866
     13  N         96.2670   12.0810    2.1410 N.3    70  MET70      -0.1230
     14  CA        96.8130   11.4920    3.3470 C.3    70  MET70       0.1702
     15  C         96.2670   10.1220    3.5720 C.2    70  MET70       0.2592
     16  O         96.9960    9.2270    3.9720 O.2    70  MET70      -0.2718
     17  CB        96.4990   12.3610    4.5650 C.3    70  MET70       0.0401
     18  CG        97.3250   13.5700    4.6000 C.3    70  MET70       0.0596
     19  SD        99.0250   13.0560    4.4190 S.3    70  MET70      -0.1393
     20  CE        99.3600   13.3030    2.4930 C.3    70  MET70       0.0692
     21  N         94.9790    9.9600    3.3140 N.am   71  LYS71      -0.1980
     22  CA        94.3470    8.6600    3.5220 C.3    71  LYS71       0.1596
     23  C         95.0130    7.6130    2.7020 C.2    71  LYS71       0.2287
     24  O         95.4340    6.5980    3.2300 O.2    71  LYS71      -0.2864
     25  CB        92.8830    8.6210    3.1460 C.3    71  LYS71       0.0298
     26  CG        92.3900    7.1930    3.2410 C.3    71  LYS71       0.0038
     27  CD        92.9200    6.5170    4.5080 C.3    71  LYS71       0.0206
     28  CE        91.9800    5.4520    5.1040 C.3    71  LYS71       0.1093
     29  NZ        91.7570    4.1900    4.2910 N.3    71  LYS71      -0.1314
     30  N         97.8160    7.6810    1.5960 N.3    73  LEU73      -0.1231
     31  CA        99.2070    7.5190    1.9680 C.3    73  LEU73       0.1693
     32  C         99.2440    6.3450    2.8650 C.2    73  LEU73       0.2592
     33  O        100.1870    5.5740    2.8160 O.2    73  LEU73      -0.2718
     34  CB        99.7410    8.7440    2.7110 C.3    73  LEU73       0.0284
     35  CG       101.2360    8.5750    3.0010 C.3    73  LEU73       0.0019
     36  CD1      101.9790    8.2410    1.6890 C.3    73  LEU73       0.0001
     37  CD2      101.7790    9.8240    3.6790 C.3    73  LEU73       0.0001
     38  N         98.2020    6.2350    3.6910 N.am   74  ASP74      -0.1974
     39  CA        98.0350    5.1320    4.6460 C.3    74  ASP74       0.1709
     40  C         97.9230    3.8460    3.8180 C.2    74  ASP74       0.2293
     41  O         98.9080    3.1390    3.5950 O.2    74  ASP74      -0.2864
     42  CB        96.7470    5.3190    5.4480 C.3    74  ASP74       0.1436
     43  CG        96.7320    4.5060    6.7030 C.2    74  ASP74       0.3671
     44  OD1       97.8040    4.3880    7.3160 O.co2  74  ASP74      -0.2456
     45  OD2       95.6590    4.0040    7.0950 O.co2  74  ASP74      -0.2456
     46  N        100.7230    2.0700    3.0810 N.3    77  MET77      -0.1230
     47  CA       101.6060    1.5650    4.1050 C.3    77  MET77       0.1702
     48  C        100.9130    0.3790    4.7600 C.2    77  MET77       0.2592
     49  O        101.5120   -0.6840    4.8860 O.2    77  MET77      -0.2718
     50  CB       101.9610    2.6550    5.1350 C.3    77  MET77       0.0401
     51  CG       100.8150    3.2330    5.9140 C.3    77  MET77       0.0596
     52  SD       101.3510    4.3680    7.1740 S.3    77  MET77      -0.1393
     53  CE       101.2700    5.9410    6.2920 C.3    77  MET77       0.0692
     54  N         99.6550    0.5420    5.1690 N.am   78  ASP78      -0.1974
     55  CA        98.8950   -0.5640    5.7750 C.3    78  ASP78       0.1709
     56  C         99.0140   -1.7390    4.7700 C.2    78  ASP78       0.2293
     57  O         99.1840   -2.9040    5.1750 O.2    78  ASP78      -0.2864
     58  CB        97.4000   -0.1820    5.9730 C.3    78  ASP78       0.1436
     59  CG        97.1100    0.5640    7.3150 C.2    78  ASP78       0.3671
     60  OD1       98.0510    0.8300    8.1020 O.co2  78  ASP78      -0.2456
     61  OD2       95.9160    0.8850    7.5830 O.co2  78  ASP78      -0.2456
     62  N        103.3270   14.2640   14.3880 N.3   124  LEU124     -0.1231
     63  CA       102.3570   13.5140   13.5980 C.3   124  LEU124      0.1693
     64  C        102.9680   12.2540   13.0290 C.2   124  LEU124      0.2592
     65  O        102.3480   11.2020   13.0640 O.2   124  LEU124     -0.2718
     66  CB       101.8070   14.3980   12.4610 C.3   124  LEU124      0.0284
     67  CG       101.1190   13.7290   11.2710 C.3   124  LEU124      0.0019
     68  CD1      100.0770   12.7490   11.7810 C.3   124  LEU124      0.0001
     69  CD2      100.5100   14.7710   10.3580 C.3   124  LEU124      0.0001
     70  N        104.1880   12.3700   12.5190 N.am  125  CYS125     -0.1970
     71  CA       104.8710   11.2480   11.9110 C.3   125  CYS125      0.1712
     72  C        105.5980   10.3510   12.8940 C.2   125  CYS125      0.2296
     73  O        105.4250    9.1600   12.8770 O.2   125  CYS125     -0.2864
     74  CB       105.8460   11.7420   10.8400 C.3   125  CYS125      0.0983
     75  SG       105.0740   12.6160    9.4640 S.3   125  CYS125     -0.0798
     76  N        103.0110    8.2010   14.5490 N.3   128  GLN128     -0.1245
     77  CA       102.3530    7.0790   13.8660 C.3   128  GLN128      0.1566
     78  C        103.3680    5.9670   13.5590 C.2   128  GLN128      0.2260
     79  O        102.9850    4.8590   13.1780 O.2   128  GLN128     -0.2867
     80  CB       101.6490    7.5630   12.5700 C.3   128  GLN128      0.0367
     81  CG       101.5880    6.5270   11.4270 C.3   128  GLN128      0.0905
     82  CD       100.1860    6.0560   11.0400 C.2   128  GLN128      0.2608
     83  OE1       99.5230    5.3210   11.7730 O.2   128  GLN128     -0.2717
     84  NE2       99.7430    6.4740    9.8670 N.am  128  GLN128     -0.0878
     85  N        102.6050    2.2450   15.8660 N.3   132  LYS132     -0.1245
     86  CA       102.5350    0.8930   15.3370 C.3   132  LYS132      0.1561
     87  C        103.7150    0.0110   15.7180 C.2   132  LYS132      0.2260
     88  O        103.6990   -1.1900   15.4410 O.2   132  LYS132     -0.2867
     89  CB       102.3200    0.9380   13.8140 C.3   132  LYS132      0.0271
     90  CG       100.9620    1.5650   13.4880 C.3   132  LYS132      0.0035
     91  CD       100.4950    1.4740   12.0430 C.3   132  LYS132      0.0206
     92  CE        99.1180    2.1540   11.9080 C.3   132  LYS132      0.1093
     93  NZ        98.4750    2.1410   10.5550 N.3   132  LYS132     -0.1314
     94  N         98.3840   10.1950   15.5310 N.3   149  TYR149     -0.1227
     95  CA        97.8290    9.8980   14.2170 C.3   149  TYR149      0.1736
     96  C         96.3560   10.3200   14.0990 C.2   149  TYR149      0.2596
     97  O         95.8360   10.4960   12.9990 O.2   149  TYR149     -0.2718
     98  CB        98.0210    8.4040   13.8840 C.3   149  TYR149      0.0548
     99  CG        97.0240    7.4500   14.4990 C.ar  149  TYR149     -0.0200
    100  CD1       96.0730    6.8120   13.7010 C.ar  149  TYR149     -0.0009
    101  CD2       97.0090    7.2090   15.8770 C.ar  149  TYR149     -0.0009
    102  CE1       95.1200    5.9580   14.2600 C.ar  149  TYR149      0.0417
    103  CE2       96.0580    6.3550   16.4560 C.ar  149  TYR149      0.0417
    104  CZ        95.1080    5.7330   15.6420 C.ar  149  TYR149      0.1957
    105  OH        94.1260    4.9210   16.1920 O.3   149  TYR149     -0.2866
    106  N         95.6970   10.5180   15.2350 N.am  150  GLY150     -0.1957
    107  CA        94.3040   10.9140   15.2030 C.3   150  GLY150      0.1869
    108  C         94.0600   12.3780   15.5130 C.2   150  GLY150      0.2309
    109  O         93.6890   13.1500   14.6420 O.2   150  GLY150     -0.2863
    110  N         96.4720   14.9040   13.7180 N.3   153  PHE153     -0.1241
    111  CA        96.2360   14.7830   12.2920 C.3   153  PHE153      0.1605
    112  C         95.1990   15.8000   11.8240 C.2   153  PHE153      0.2264
    113  O         95.4650   16.6510   10.9720 O.2   153  PHE153     -0.2867
    114  CB        95.7590   13.3690   11.9650 C.3   153  PHE153      0.0534
    115  CG        95.3890   13.1930   10.5370 C.ar  153  PHE153     -0.0203
    116  CD1       96.3500   13.3260    9.5430 C.ar  153  PHE153     -0.0042
    117  CD2       94.0750   12.9540   10.1740 C.ar  153  PHE153     -0.0042
    118  CE1       96.0040   13.2290    8.2210 C.ar  153  PHE153     -0.0003
    119  CE2       93.7100   12.8520    8.8480 C.ar  153  PHE153     -0.0003
    120  CZ        94.6670   12.9890    7.8680 C.ar  153  PHE153     -0.0000
    121  N         86.2260    9.7560   16.9830 N.3   185  ILE185     -0.1231
    122  CA        86.1260    9.0160   15.7500 C.3   185  ILE185      0.1692
    123  C         86.9960    7.7790   15.8030 C.2   185  ILE185      0.2592
    124  O         86.5660    6.6830   15.4160 O.2   185  ILE185     -0.2718
    125  CB        86.5440    9.8970   14.5670 C.3   185  ILE185      0.0266
    126  CG1       85.8120   11.2300   14.6540 C.3   185  ILE185      0.0019
    127  CG2       86.2280    9.2110   13.2570 C.3   185  ILE185      0.0020
    128  CD1       84.3070   11.0960   14.5430 C.3   185  ILE185      0.0001
    129  N         88.2200    7.9590   16.2810 N.am  186  THR186     -0.1953
    130  CA        89.1580    6.8510   16.3660 C.3   186  THR186      0.1897
    131  C         88.6010    5.7330   17.2260 C.2   186  THR186      0.2313
    132  O         88.8030    4.5500   16.9350 O.2   186  THR186     -0.2863
    133  CB        90.5030    7.2900   16.9510 C.3   186  THR186      0.1794
    134  OG1       90.2900    8.0740   18.1320 O.3   186  THR186     -0.2208
    135  CG2       91.2890    8.0530   15.9200 C.3   186  THR186      0.0378
    136  N         86.3000    3.9850   15.2600 N.3   189  ASP189     -0.1239
    137  CA        86.9500    3.1300   14.2920 C.3   189  ASP189      0.1674
    138  C         87.4600    1.8610   14.9550 C.2   189  ASP189      0.2266
    139  O         87.4140    0.7820   14.3780 O.2   189  ASP189     -0.2867
    140  CB        88.1130    3.8740   13.6350 C.3   189  ASP189      0.1410
    141  CG        87.8440    4.2180   12.1770 C.2   189  ASP189      0.3668
    142  OD1       86.8870    4.9890   11.9150 O.co2 189  ASP189     -0.2456
    143  OD2       88.5950    3.7130   11.3010 O.co2 189  ASP189     -0.2456
    144  N         86.1330   -1.5570   13.9280 N.3   193  ASP193     -0.1239
    145  CA        87.1710   -2.2570   13.1670 C.3   193  ASP193      0.1674
    146  C         87.7340   -3.5210   13.8440 C.2   193  ASP193      0.2266
    147  O         88.6670   -4.1460   13.3250 O.2   193  ASP193     -0.2867
    148  CB        88.3230   -1.2870   12.8190 C.3   193  ASP193      0.1410
    149  CG        88.3560   -0.9000   11.3200 C.2   193  ASP193      0.3668
    150  OD1       88.5560   -1.7950   10.4680 O.co2 193  ASP193     -0.2456
    151  OD2       88.1920    0.2990   10.9900 O.co2 193  ASP193     -0.2456
@<TRIPOS>BOND
     1    30    31    1
     2    36    35    1
     3    31    34    1
     4    31    32    1
     5    13    14    1
     6    20    19    1
     7    23    24    2
     8    23    22    1
     9    34    35    1
    10    33    32    2
    11    32    38   am
    12    35    37    1
    13    46    47    1
    14    25    26    1
    15    25    22    1
    16    26    27    1
    17    21    22    1
    18    21    15   am
    19    14    15    1
    20    14    17    1
    21    15    16    2
    22    41    40    2
    23    38    39    1
    24    40    39    1
    25    47    48    1
    26    47    50    1
    27     5     6    1
    28     5     2    1
    29     3     4    2
    30     3     2    1
    31    29    28    1
    32    19    18    1
    33    27    28    1
    34    17    18    1
    35    39    42    1
    36    48    49    2
    37    48    54   am
    38    56    57    2
    39    56    55    1
    40     8     6   ar
    41     8    10   ar
    42     6     7   ar
    43     2     1    1
    44    50    51    1
    45    54    55    1
    46    42    43    1
    47    10    11   ar
    48     7     9   ar
    49    55    58    1
    50    51    52    1
    51    58    59    1
    52    11     9   ar
    53    11    12    1
    54    53    52    1
    55    43    45   ar
    56    43    44   ar
    57    59    61   ar
    58    59    60   ar
    59   120   118   ar
    60   120   119   ar
    61   118   116   ar
    62   119   117   ar
    63    75    74    1
    64   116   115   ar
    65    84    82   am
    66   117   115   ar
    67    69    67    1
    68   150   149   ar
    69   115   114    1
    70    93    92    1
    71    74    71    1
    72   113   112    2
    73   151   149   ar
    74    82    81    1
    75    82    83    2
    76    67    68    1
    77    67    66    1
    78   143   141   ar
    79   149   148    1
    80    81    80    1
    81   112   111    1
    82    92    91    1
    83    71    70    1
    84    71    72    1
    85   142   141   ar
    86   114   111    1
    87    91    90    1
    88   141   140    1
    89   111   110    1
    90    66    63    1
    91    70    64   am
    92    80    77    1
    93   148   145    1
    94    73    72    2
    95    97    96    2
    96    64    65    2
    97    64    63    1
    98   145   146    1
    99   145   144    1
   100    79    78    2
   101   127   125    1
   102   147   146    2
   103    90    89    1
   104    78    77    1
   105    63    62    1
   106   140   137    1
   107   100   102   ar
   108   100    99   ar
   109    89    86    1
   110    77    76    1
   111    98    95    1
   112    98    99    1
   113    96    95    1
   114    96   106   am
   115    95    94    1
   116   102   104   ar
   117   137   138    1
   118   137   136    1
   119   139   138    2
   120    99   101   ar
   121   128   126    1
   122   125   126    1
   123   125   122    1
   124   109   108    2
   125   107   106    1
   126   107   108    1
   127    86    87    1
   128    86    85    1
   129   124   123    2
   130    88    87    2
   131   104   105    1
   132   104   103   ar
   133   122   123    1
   134   122   121    1
   135   123   129   am
   136   101   103   ar
   137   135   133    1
   138   129   130    1
   139   130   133    1
   140   130   131    1
   141   132   131    2
   142   133   134    1
