@<TRIPOS>MOLECULE
tmp/5b09A00.pdb
 131 127 0 0 0
SMALL
GASTEIGER

@<TRIPOS>ATOM
      1  N          7.9520   25.1760   -0.9720 N.3     3  HIS3       -0.1241
      2  CA         8.4000   23.8740   -0.5290 C.3     3  HIS3        0.1621
      3  C          7.3090   23.3700    0.4010 C.2     3  HIS3        0.2264
      4  O          7.0670   23.9630    1.4650 O.2     3  HIS3       -0.2867
      5  CB         9.7640   24.0150    0.1520 C.3     3  HIS3        0.0745
      6  CG        10.2890   22.7720    0.8030 C.ar    3  HIS3        0.0817
      7  ND1       10.8380   21.7280    0.0960 N.ar    3  HIS3       -0.2268
      8  CD2       10.4610   22.4690    2.1150 C.ar    3  HIS3        0.1154
      9  CE1       11.2700   20.8060    0.9380 C.ar    3  HIS3        0.1986
     10  NE2       11.0530   21.2310    2.1680 N.ar    3  HIS3       -0.2212
     11  N          5.3670   20.5150    2.6860 N.3     5  ILE5       -0.1245
     12  CA         5.5390   19.2920    3.4450 C.3     5  ILE5        0.1561
     13  C          4.1890   18.8190    3.9600 C.2     5  ILE5        0.2260
     14  O          3.4450   19.6010    4.5420 O.2     5  ILE5       -0.2867
     15  CB         6.4940   19.5120    4.6210 C.3     5  ILE5        0.0252
     16  CG1        7.8320   20.0420    4.1080 C.3     5  ILE5        0.0019
     17  CG2        6.7020   18.2220    5.4150 C.3     5  ILE5        0.0019
     18  CD1        8.5760   20.8910    5.1140 C.3     5  ILE5        0.0001
     19  N          2.5470   15.8820    6.4210 N.3     7  LEU7       -0.1245
     20  CA         3.0790   14.8740    7.3230 C.3     7  LEU7        0.1561
     21  C          2.0710   14.2570    8.2630 C.2     7  LEU7        0.2260
     22  O          0.9790   14.7880    8.4860 O.2     7  LEU7       -0.2867
     23  CB         4.2470   15.4520    8.1340 C.3     7  LEU7        0.0270
     24  CG         4.0790   16.5410    9.1920 C.3     7  LEU7        0.0019
     25  CD1        3.5820   15.9970   10.5360 C.3     7  LEU7        0.0001
     26  CD2        5.4020   17.2680    9.3880 C.3     7  LEU7        0.0001
     27  N          7.3520   21.4900   18.1320 N.3    21  PHE21      -0.1241
     28  CA         7.9190   21.1130   16.8280 C.3    21  PHE21       0.1605
     29  C          7.7070   22.2340   15.8000 C.2    21  PHE21       0.2264
     30  O          8.6690   22.6740   15.1430 O.2    21  PHE21      -0.2867
     31  CB         7.2820   19.7740   16.3990 C.3    21  PHE21       0.0534
     32  CG         7.6370   19.2940   15.0120 C.ar   21  PHE21      -0.0203
     33  CD1        6.9030   19.7130   13.9090 C.ar   21  PHE21      -0.0042
     34  CD2        8.6160   18.3260   14.8300 C.ar   21  PHE21      -0.0042
     35  CE1        7.2090   19.2390   12.6360 C.ar   21  PHE21      -0.0003
     36  CE2        8.9320   17.8530   13.5630 C.ar   21  PHE21      -0.0003
     37  CZ         8.2070   18.2970   12.4660 C.ar   21  PHE21      -0.0000
     38  N         10.2690   24.9820   14.0960 N.3    25  TYR25      -0.1241
     39  CA        10.4780   24.9550   12.6510 C.3    25  TYR25       0.1605
     40  C         10.2460   26.3480   12.0630 C.2    25  TYR25       0.2264
     41  O         11.0400   26.8260   11.2580 O.2    25  TYR25      -0.2867
     42  CB         9.5780   23.9260   11.9660 C.3    25  TYR25       0.0534
     43  CG         9.9350   23.7910   10.5030 C.ar   25  TYR25      -0.0201
     44  CD1       11.0380   23.0510   10.0980 C.ar   25  TYR25      -0.0009
     45  CD2        9.1860   24.4440    9.5300 C.ar   25  TYR25      -0.0009
     46  CE1       11.3760   22.9580    8.7440 C.ar   25  TYR25       0.0417
     47  CE2        9.5170   24.3540    8.1980 C.ar   25  TYR25       0.0417
     48  CZ        10.6100   23.6130    7.8140 C.ar   25  TYR25       0.1957
     49  OH        10.9270   23.5240    6.4780 O.3    25  TYR25      -0.2866
     50  N          2.8740   21.9740    5.9580 N.3    54  VAL54      -0.1245
     51  CA         3.7940   23.0940    6.1540 C.3    54  VAL54       0.1561
     52  C          4.1540   23.7140    4.8000 C.2    54  VAL54       0.2260
     53  O          4.5000   22.9960    3.8690 O.2    54  VAL54      -0.2867
     54  CB         5.0900   22.6620    6.8770 C.3    54  VAL54       0.0252
     55  CG1        5.9470   23.8800    7.1750 C.3    54  VAL54       0.0019
     56  CG2        4.7680   21.9210    8.1890 C.3    54  VAL54       0.0019
     57  N         19.1260   25.4770    1.9740 N.3    67  TYR67      -0.1227
     58  CA        18.3720   25.1610    3.1850 C.3    67  TYR67       0.1736
     59  C         18.6070   23.7170    3.6210 C.2    67  TYR67       0.2595
     60  O         18.8170   23.4320    4.8040 O.2    67  TYR67      -0.2718
     61  CB        16.8880   25.4330    2.9300 C.3    67  TYR67       0.0548
     62  CG        15.8830   24.5830    3.6930 C.ar   67  TYR67      -0.0200
     63  CD1       15.4590   24.9450    4.9660 C.ar   67  TYR67      -0.0009
     64  CD2       15.3370   23.4330    3.1230 C.ar   67  TYR67      -0.0009
     65  CE1       14.5280   24.1760    5.6550 C.ar   67  TYR67       0.0417
     66  CE2       14.4110   22.6560    3.8060 C.ar   67  TYR67       0.0417
     67  CZ        14.0040   23.0350    5.0680 C.ar   67  TYR67       0.1957
     68  OH        13.0730   22.2680    5.7540 O.3    67  TYR67      -0.2866
     69  N         18.5680   22.8100    2.6510 N.am   68  ILE68      -0.1980
     70  CA        18.7120   21.3840    2.9150 C.3    68  ILE68       0.1595
     71  C         20.0300   21.0560    3.6170 C.2    68  ILE68       0.2287
     72  O         20.0680   20.2330    4.5370 O.2    68  ILE68      -0.2864
     73  CB        18.5970   20.5780    1.6000 C.3    68  ILE68       0.0276
     74  CG1       17.1530   20.6010    1.1100 C.3    68  ILE68       0.0022
     75  CG2       19.0360   19.1380    1.7920 C.3    68  ILE68       0.0022
     76  CD1       16.1860   19.9730    2.0740 C.3    68  ILE68       0.0001
     77  N         18.9560   23.2780    9.6660 N.3    73  HIS73      -0.1241
     78  CA        17.9760   22.3160    9.1810 C.3    73  HIS73       0.1621
     79  C         18.3890   20.8970    9.4640 C.2    73  HIS73       0.2264
     80  O         17.6270   20.0860    9.8840 O.2    73  HIS73      -0.2867
     81  CB        17.7790   22.4700    7.6830 C.3    73  HIS73       0.0745
     82  CG        16.8820   21.4350    7.0930 C.ar   73  HIS73       0.0817
     83  ND1       17.3470   20.3740    6.3600 N.ar   73  HIS73      -0.2268
     84  CD2       15.5440   21.3060    7.1270 C.ar   73  HIS73       0.1154
     85  CE1       16.3350   19.6280    5.9870 C.ar   73  HIS73       0.1986
     86  NE2       15.2300   20.1830    6.4260 N.ar   73  HIS73      -0.2212
     87  N         17.6200   20.5000   12.9810 N.3    76  PHE76      -0.1227
     88  CA        16.2000   20.3170   13.2590 C.3    76  PHE76       0.1736
     89  C         15.8130   18.8590   13.0520 C.2    76  PHE76       0.2596
     90  O         15.1380   18.2540   13.8820 O.2    76  PHE76      -0.2718
     91  CB        15.3360   21.2100   12.3810 C.3    76  PHE76       0.0547
     92  CG        13.8640   21.0210   12.6090 C.ar   76  PHE76      -0.0202
     93  CD1       13.2270   21.6910   13.6400 C.ar   76  PHE76      -0.0042
     94  CD2       13.1190   20.1550   11.8180 C.ar   76  PHE76      -0.0042
     95  CE1       11.8700   21.5260   13.8730 C.ar   76  PHE76      -0.0003
     96  CE2       11.7630   19.9770   12.0510 C.ar   76  PHE76      -0.0003
     97  CZ        11.1360   20.6620   13.0780 C.ar   76  PHE76      -0.0000
     98  N         16.2450   18.2960   11.9320 N.am   77  GLY77      -0.1957
     99  CA        16.0120   16.8920   11.6630 C.3    77  GLY77       0.1869
    100  C         16.6280   15.9820   12.7080 C.2    77  GLY77       0.2309
    101  O         16.0150   15.0040   13.1240 O.2    77  GLY77      -0.2863
    102  N          7.8960   12.1450   13.2660 N.3    84  TRP84      -0.1241
    103  CA         6.9970   11.9000   12.1390 C.3    84  TRP84       0.1605
    104  C          6.9830   10.4420   11.6680 C.2    84  TRP84       0.2264
    105  O          8.0030    9.7580   11.6760 O.2    84  TRP84      -0.2867
    106  CB         7.3160   12.8500   10.9660 C.3    84  TRP84       0.0550
    107  CG         8.7230   12.8380   10.3670 C.ar   84  TRP84       0.0003
    108  CD1        9.2470   11.9020    9.5070 C.ar   84  TRP84       0.0946
    109  CD2        9.7210   13.8670   10.4850 C.ar   84  TRP84       0.0152
    110  NE1       10.5280   12.2630    9.1360 N.ar   84  TRP84      -0.2442
    111  CE2       10.8380   13.4650    9.7170 C.ar   84  TRP84       0.0810
    112  CE3        9.7910   15.0780   11.1840 C.ar   84  TRP84       0.0012
    113  CZ2       11.9940   14.2280    9.6310 C.ar   84  TRP84       0.0191
    114  CZ3       10.9430   15.8360   11.0920 C.ar   84  TRP84       0.0001
    115  CH2       12.0340   15.4050   10.3270 C.ar   84  TRP84       0.0015
    116  N          6.0400   11.3910    5.6020 N.3    87  LEU87      -0.1245
    117  CA         5.8910   12.7220    5.0700 C.3    87  LEU87       0.1561
    118  C          6.0430   12.7250    3.5700 C.2    87  LEU87       0.2260
    119  O          6.6320   11.8250    2.9790 O.2    87  LEU87      -0.2867
    120  CB         6.8710   13.6920    5.7220 C.3    87  LEU87       0.0270
    121  CG         8.3710   13.5390    5.5470 C.3    87  LEU87       0.0019
    122  CD1        8.8220   14.1640    4.2580 C.3    87  LEU87       0.0001
    123  CD2        9.0810   14.2150    6.7010 C.3    87  LEU87       0.0001
    124  N          7.0080   15.4660    0.3320 N.3    89  ILE89      -0.1245
    125  CA         7.6120   16.7450    0.0270 C.3    89  ILE89       0.1561
    126  C          7.3450   17.1220   -1.4140 C.2    89  ILE89       0.2260
    127  O          7.5060   16.2910   -2.3090 O.2    89  ILE89      -0.2867
    128  CB         9.1330   16.7180    0.2290 C.3    89  ILE89       0.0252
    129  CG1        9.4890   16.2580    1.6400 C.3    89  ILE89       0.0019
    130  CG2        9.7270   18.0740   -0.0890 C.3    89  ILE89       0.0019
    131  CD1       10.5670   15.2230    1.6930 C.3    89  ILE89       0.0001
@<TRIPOS>BOND
     1   127   126    2
     2   126   125    1
     3     1     2    1
     4     2     5    1
     5     2     3    1
     6   130   128    1
     7   125   128    1
     8   125   124    1
     9     7     6   ar
    10     7     9   ar
    11     5     6    1
    12   128   129    1
    13     3     4    2
    14     6     8   ar
    15     9    10   ar
    16    74    73    1
    17    74    76    1
    18    73    75    1
    19    73    70    1
    20   129   131    1
    21    57    58    1
    22     8    10   ar
    23    69    70    1
    24    69    59   am
    25    11    12    1
    26    70    71    1
    27    61    58    1
    28    61    62    1
    29   119   118    2
    30    64    62   ar
    31    64    66   ar
    32    58    59    1
    33    12    13    1
    34    12    15    1
    35   118   117    1
    36    71    72    2
    37    59    60    2
    38    62    63   ar
    39    66    67   ar
    40    53    52    2
    41    13    14    2
    42    16    15    1
    43    16    18    1
    44   122   121    1
    45    15    17    1
    46    52    51    1
    47    63    65   ar
    48    67    65   ar
    49    67    68    1
    50   117   116    1
    51   117   120    1
    52   121   120    1
    53   121   123    1
    54    50    51    1
    55    85    83   ar
    56    85    86   ar
    57    51    54    1
    58    83    82   ar
    59    19    20    1
    60    86    84   ar
    61    49    48    1
    62    54    55    1
    63    54    56    1
    64    82    84   ar
    65    82    81    1
    66    20    23    1
    67    20    21    1
    68    81    78    1
    69    48    47   ar
    70    48    46   ar
    71    23    24    1
    72    47    45   ar
    73    21    22    2
    74    46    44   ar
    75   110   108   ar
    76   110   111   ar
    77    78    79    1
    78    78    77    1
    79    24    26    1
    80    24    25    1
    81    79    80    2
    82   108   107   ar
    83    45    43   ar
    84   113   111   ar
    85   113   115   ar
    86   111   109   ar
    87    44    43   ar
    88   115   114   ar
    89   107   109   ar
    90   107   106    1
    91   109   112   ar
    92    43    42    1
    93   106   103    1
    94   114   112   ar
    95    41    40    2
    96    99    98    1
    97    99   100    1
    98   104   105    2
    99   104   103    1
   100    94    96   ar
   101    94    92   ar
   102    98    89   am
   103    42    39    1
   104    96    97   ar
   105    40    39    1
   106   103   102    1
   107    91    92    1
   108    91    88    1
   109    37    35   ar
   110    37    36   ar
   111    92    93   ar
   112    35    33   ar
   113    39    38    1
   114   100   101    2
   115    87    88    1
   116    89    88    1
   117    89    90    2
   118    97    95   ar
   119    36    34   ar
   120    93    95   ar
   121    33    32   ar
   122    34    32   ar
   123    32    31    1
   124    30    29    2
   125    29    28    1
   126    31    28    1
   127    28    27    1
