@<TRIPOS>MOLECULE
tmp/5b0jD00.pdb
 214 204 0 0 0
SMALL
GASTEIGER

@<TRIPOS>ATOM
      1  N         22.7830   15.8160   20.0260 N.3    39  TYR39      -0.1241
      2  CA        23.9720   15.0970   20.4550 C.3    39  TYR39       0.1605
      3  C         23.6620   13.9010   21.3470 C.2    39  TYR39       0.2264
      4  O         24.3840   12.9000   21.3020 O.2    39  TYR39      -0.2867
      5  CB        24.9490   16.0360   21.1570 C.3    39  TYR39       0.0534
      6  CG        25.4960   17.1030   20.2730 C.ar   39  TYR39      -0.0201
      7  CD1       26.3620   16.8010   19.2710 C.ar   39  TYR39      -0.0009
      8  CD2       25.1270   18.4240   20.4520 C.ar   39  TYR39      -0.0009
      9  CE1       26.8530   17.7700   18.4650 C.ar   39  TYR39       0.0417
     10  CE2       25.6130   19.4060   19.6580 C.ar   39  TYR39       0.0417
     11  CZ        26.4790   19.0710   18.6600 C.ar   39  TYR39       0.1957
     12  OH        26.9770   20.0570   17.8390 O.3    39  TYR39      -0.2866
     13  N         33.1530   16.8190   23.8570 N.3    70  MET70      -0.1230
     14  CA        33.7400   17.5340   22.7310 C.3    70  MET70       0.1702
     15  C         32.9320   18.7800   22.4240 C.2    70  MET70       0.2592
     16  O         33.4430   19.7730   21.9030 O.2    70  MET70      -0.2718
     17  CB        33.8130   16.6430   21.4530 C.3    70  MET70       0.0401
     18  CG        34.7940   15.4580   21.4610 C.3    70  MET70       0.0596
     19  SD        36.4910   15.9420   21.9870 S.3    70  MET70      -0.1393
     20  CE        36.4370   15.5280   23.8060 C.3    70  MET70       0.0692
     21  N         31.6470   18.7410   22.7200 N.am   71  LYS71      -0.1980
     22  CA        30.8550   19.9270   22.4460 C.3    71  LYS71       0.1596
     23  C         31.2100   20.9750   23.4860 C.2    71  LYS71       0.2287
     24  O         31.3240   22.1660   23.1840 O.2    71  LYS71      -0.2864
     25  CB        29.3660   19.5930   22.3970 C.3    71  LYS71       0.0298
     26  CG        28.5060   20.8380   22.3970 C.3    71  LYS71       0.0038
     27  CD        28.6530   21.6780   21.1440 C.3    71  LYS71       0.0206
     28  CE        27.9240   22.9780   21.3800 C.3    71  LYS71       0.1093
     29  NZ        27.8830   23.7760   20.1270 N.3    71  LYS71      -0.1314
     30  N         34.0460   21.2070   24.6320 N.3    73  LEU73      -0.1231
     31  CA        35.3760   21.7410   24.2890 C.3    73  LEU73       0.1693
     32  C         35.2240   22.8140   23.2240 C.2    73  LEU73       0.2592
     33  O         35.9380   23.8360   23.2130 O.2    73  LEU73      -0.2718
     34  CB        36.3510   20.6390   23.8550 C.3    73  LEU73       0.0284
     35  CG        37.7330   21.0640   23.3470 C.3    73  LEU73       0.0019
     36  CD1       38.5020   21.6380   24.5300 C.3    73  LEU73       0.0001
     37  CD2       38.5300   19.8550   22.7480 C.3    73  LEU73       0.0001
     38  N         34.2520   22.5990   22.3510 N.am   74  ASP74      -0.1974
     39  CA        33.9590   23.5320   21.2970 C.3    74  ASP74       0.1709
     40  C         33.4010   24.7700   21.9590 C.2    74  ASP74       0.2293
     41  O         33.7280   25.9060   21.5280 O.2    74  ASP74      -0.2864
     42  CB        32.9340   22.9450   20.3380 C.3    74  ASP74       0.1436
     43  CG        32.5440   23.9120   19.2480 C.2    74  ASP74       0.3671
     44  OD1       31.4400   24.5340   19.3610 O.co2  74  ASP74      -0.2456
     45  OD2       33.3460   24.0680   18.2910 O.co2  74  ASP74      -0.2456
     46  N         36.2170   26.9920   23.1320 N.3    77  MET77      -0.1245
     47  CA        36.9940   27.8210   22.2230 C.3    77  MET77       0.1570
     48  C         36.2560   29.0440   21.7400 C.2    77  MET77       0.2261
     49  O         36.8680   30.0380   21.3380 O.2    77  MET77      -0.2867
     50  CB        37.5520   27.0390   20.9950 C.3    77  MET77       0.0387
     51  CG        36.8460   25.8350   20.5200 C.3    77  MET77       0.0595
     52  SD        37.7140   25.1700   19.1010 S.3    77  MET77      -0.1393
     53  CE        37.4560   23.5330   19.4360 C.3    77  MET77       0.0692
     54  N         40.7260   15.7750   12.0840 N.3   124  LEU124     -0.1231
     55  CA        39.7230   16.4310   12.8750 C.3   124  LEU124      0.1693
     56  C         40.2520   17.7110   13.6090 C.2   124  LEU124      0.2592
     57  O         39.7020   18.7630   13.4400 O.2   124  LEU124     -0.2718
     58  CB        39.1610   15.4620   13.9160 C.3   124  LEU124      0.0284
     59  CG        38.2140   16.1390   14.9360 C.3   124  LEU124      0.0019
     60  CD1       36.9380   16.5220   14.2420 C.3   124  LEU124      0.0001
     61  CD2       37.9030   15.2020   16.1380 C.3   124  LEU124      0.0001
     62  N         41.3300   17.6310   14.3890 N.am  125  CYS125     -0.1970
     63  CA        41.7900   18.8060   15.1400 C.3   125  CYS125      0.1712
     64  C         42.3140   19.9390   14.2740 C.2   125  CYS125      0.2296
     65  O         41.8510   21.0750   14.4230 O.2   125  CYS125     -0.2864
     66  CB        42.8410   18.4180   16.2230 C.3   125  CYS125      0.0983
     67  SG        42.1780   17.1850   17.4520 S.3   125  CYS125     -0.0798
     68  N         39.5920   21.5480   12.3270 N.3   128  GLN128     -0.1245
     69  CA        38.7210   22.3830   13.1060 C.3   128  GLN128      0.1566
     70  C         39.3380   23.7500   13.1920 C.2   128  GLN128      0.2260
     71  O         38.6670   24.7560   13.0700 O.2   128  GLN128     -0.2867
     72  CB        38.5380   21.7650   14.4770 C.3   128  GLN128      0.0367
     73  CG        37.4390   22.4010   15.2640 C.3   128  GLN128      0.0905
     74  CD        36.0410   22.1940   14.6700 C.2   128  GLN128      0.2608
     75  OE1       35.8750   21.7700   13.5090 O.2   128  GLN128     -0.2717
     76  NE2       35.0220   22.5190   15.4770 N.am  128  GLN128     -0.0878
     77  N         38.5200   25.3150    9.8580 N.3   131  THR131     -0.1203
     78  CA        37.1480   25.7180    9.6360 C.3   131  THR131      0.1994
     79  C         36.6910   26.8580   10.5480 C.2   131  THR131      0.2617
     80  O         35.8250   27.6580   10.1710 O.2   131  THR131     -0.2717
     81  CB        36.1750   24.4660    9.6560 C.3   131  THR131      0.1784
     82  OG1       35.9050   24.0630   10.9890 O.3   131  THR131     -0.2211
     83  CG2       36.8310   23.2630    8.9020 C.3   131  THR131      0.0376
     84  N         37.2750   26.9600   11.7370 N.am  132  LYS132     -0.1979
     85  CA        36.9230   28.0560   12.6420 C.3   132  LYS132      0.1596
     86  C         37.6530   29.3590   12.2230 C.2   132  LYS132      0.2287
     87  O         37.2830   30.4570   12.6280 O.2   132  LYS132     -0.2864
     88  CB        37.3060   27.7240   14.0890 C.3   132  LYS132      0.0298
     89  CG        36.5200   26.6060   14.7530 C.3   132  LYS132      0.0038
     90  CD        35.5150   27.2070   15.7270 C.3   132  LYS132      0.0206
     91  CE        34.6910   26.1580   16.4400 C.3   132  LYS132      0.1093
     92  NZ        33.5300   26.8180   17.0980 N.3   132  LYS132     -0.1314
     93  N         38.5150   30.2750    8.8410 N.3   134  SER134     -0.1202
     94  CA        38.4650   30.6730    7.4580 C.3   134  SER134      0.2020
     95  C         37.0080   30.6670    6.9490 C.2   134  SER134      0.2619
     96  O         36.1120   30.2270    7.6460 O.2   134  SER134     -0.2717
     97  CB        39.4050   29.7770    6.6480 C.3   134  SER134      0.2103
     98  OG        39.0030   28.4340    6.6680 O.3   134  SER134     -0.2182
     99  N         36.7320   31.1660    5.7580 N.am  135  ARG135     -0.1965
    100  CA        35.3130   31.1770    5.3920 C.3   135  ARG135      0.1729
    101  C         34.9880   30.4960    4.0780 C.2   135  ARG135      0.2616
    102  O         35.6760   30.6890    3.0840 O.2   135  ARG135     -0.2715
    103  CB        34.7810   32.6290    5.3810 C.3   135  ARG135      0.0348
    104  CG        35.3870   33.4760    4.2900 C.3   135  ARG135      0.0492
    105  CD        34.8200   34.8890    4.2970 C.3   135  ARG135      0.2205
    106  NE        34.7690   35.5060    2.9580 N.pl3 135  ARG135     -0.0865
    107  CZ        35.7820   35.5540    2.0810 C.cat 135  ARG135      0.5346
    108  NH1       36.9650   35.0100    2.3760 N.pl3 135  ARG135      0.1354
    109  NH2       35.6120   36.1640    0.9030 N.pl3 135  ARG135      0.1354
    110  N         33.9290   29.7030    4.0630 N.am  136  ALA136     -0.1977
    111  CA        33.5840   29.0420    2.8160 C.3   136  ALA136      0.1597
    112  C         32.7820   29.9730    1.9040 C.2   136  ALA136      0.2287
    113  O         31.7650   30.5350    2.3150 O.2   136  ALA136     -0.2864
    114  CB        32.8170   27.7900    3.1010 C.3   136  ALA136      0.0319
    115  N         32.2990   24.8330    1.3930 N.3   142  TRP142     -0.1241
    116  CA        31.3340   24.6070    2.4380 C.3   142  TRP142      0.1605
    117  C         31.2790   23.1250    2.8440 C.2   142  TRP142      0.2264
    118  O         31.1330   22.8040    4.0040 O.2   142  TRP142     -0.2867
    119  CB        29.9600   25.0770    1.9820 C.3   142  TRP142      0.0550
    120  CG        28.9500   24.9780    3.0560 C.ar  142  TRP142      0.0003
    121  CD1       28.5830   25.9510    3.9020 C.ar  142  TRP142      0.0946
    122  CD2       28.2570   23.7950    3.4680 C.ar  142  TRP142      0.0152
    123  NE1       27.6950   25.4650    4.8280 N.ar  142  TRP142     -0.2442
    124  CE2       27.4910   24.1380    4.5950 C.ar  142  TRP142      0.0810
    125  CE3       28.2250   22.4720    2.9980 C.ar  142  TRP142      0.0012
    126  CZ2       26.7040   23.2120    5.2790 C.ar  142  TRP142      0.0191
    127  CZ3       27.4470   21.5500    3.6700 C.ar  142  TRP142      0.0001
    128  CH2       26.6980   21.9220    4.8030 C.ar  142  TRP142      0.0015
    129  N         34.4390   22.2460    4.9620 N.3   145  HIS145     -0.1241
    130  CA        34.3660   22.5580    6.3630 C.3   145  HIS145      0.1621
    131  C         33.4170   21.5830    7.0440 C.2   145  HIS145      0.2264
    132  O         33.7980   20.9380    8.0220 O.2   145  HIS145     -0.2867
    133  CB        33.8880   23.9890    6.6180 C.3   145  HIS145      0.0745
    134  CG        34.8640   25.0140    6.1680 C.ar  145  HIS145      0.0817
    135  ND1       34.7070   26.3620    6.4260 N.ar  145  HIS145     -0.2268
    136  CD2       35.9850   24.8930    5.4130 C.ar  145  HIS145      0.1154
    137  CE1       35.6870   27.0270    5.8370 C.ar  145  HIS145      0.1986
    138  NE2       36.4730   26.1610    5.2150 N.ar  145  HIS145     -0.2212
    139  N         33.7680   19.2860   11.0880 N.3   149  TYR149     -0.1241
    140  CA        32.9180   19.3250   12.2760 C.3   149  TYR149      0.1605
    141  C         31.7030   18.4630   12.1450 C.2   149  TYR149      0.2264
    142  O         30.9390   18.2130   13.1220 O.2   149  TYR149     -0.2867
    143  CB        32.4910   20.7600   12.6240 C.3   149  TYR149      0.0534
    144  CG        31.6460   21.4810   11.5920 C.ar  149  TYR149     -0.0201
    145  CD1       30.2450   21.4080   11.6370 C.ar  149  TYR149     -0.0009
    146  CD2       32.2400   22.2650   10.5890 C.ar  149  TYR149     -0.0009
    147  CE1       29.4560   22.0850   10.7330 C.ar  149  TYR149      0.0417
    148  CE2       31.4440   22.9630    9.6590 C.ar  149  TYR149      0.0417
    149  CZ        30.0460   22.8670    9.7410 C.ar  149  TYR149      0.1957
    150  OH        29.2250   23.5560    8.8510 O.3   149  TYR149     -0.2866
    151  N         33.8070   14.3050   12.5020 N.3   153  PHE153     -0.1241
    152  CA        33.3720   14.2360   13.8900 C.3   153  PHE153      0.1605
    153  C         32.4410   13.0410   14.1850 C.2   153  PHE153      0.2264
    154  O         32.6800   12.2640   15.0840 O.2   153  PHE153     -0.2867
    155  CB        32.6480   15.5180   14.2520 C.3   153  PHE153      0.0534
    156  CG        32.2810   15.6090   15.6970 C.ar  153  PHE153     -0.0203
    157  CD1       33.2670   15.6780   16.6670 C.ar  153  PHE153     -0.0042
    158  CD2       30.9390   15.6050   16.0930 C.ar  153  PHE153     -0.0042
    159  CE1       32.9470   15.7300   17.9930 C.ar  153  PHE153     -0.0003
    160  CE2       30.6020   15.6660   17.4370 C.ar  153  PHE153     -0.0003
    161  CZ        31.6170   15.7260   18.3970 C.ar  153  PHE153     -0.0000
    162  N         21.1210   22.4850    9.6580 N.3   189  ASP189     -0.1225
    163  CA        21.3940   23.5090   10.6360 C.3   189  ASP189      0.1805
    164  C         21.7940   24.7870    9.9520 C.2   189  ASP189      0.2597
    165  O         21.3620   25.8330   10.3920 O.2   189  ASP189     -0.2718
    166  CB        22.4130   23.0570   11.6750 C.3   189  ASP189      0.1424
    167  CG        21.8350   21.9940   12.6180 C.2   189  ASP189      0.3668
    168  OD1       22.4590   21.7350   13.6940 O.co2 189  ASP189     -0.2456
    169  OD2       20.7560   21.4040   12.2840 O.co2 189  ASP189     -0.2456
    170  N         22.5710   24.7560    8.8790 N.am  190  ASP190     -0.1974
    171  CA        22.8520   26.0360    8.2550 C.3   190  ASP190      0.1709
    172  C         21.5630   26.6490    7.7840 C.2   190  ASP190      0.2293
    173  O         21.3670   27.8330    7.9450 O.2   190  ASP190     -0.2864
    174  CB        23.7650   25.9270    7.0620 C.3   190  ASP190      0.1436
    175  CG        25.2070   26.2020    7.4180 C.2   190  ASP190      0.3671
    176  OD1       26.0290   26.5150    6.5300 O.co2 190  ASP190     -0.2456
    177  OD2       25.5410   26.1030    8.6050 O.co2 190  ASP190     -0.2456
    178  N         19.5890   27.9070   10.9700 N.3   193  ASP193     -0.1239
    179  CA        20.2620   29.0370   11.5960 C.3   193  ASP193      0.1674
    180  C         20.2440   30.3370   10.8090 C.2   193  ASP193      0.2266
    181  O         20.4230   31.3900   11.3950 O.2   193  ASP193     -0.2867
    182  CB        21.7070   28.6450   11.9820 C.3   193  ASP193      0.1410
    183  CG        21.7450   27.5730   13.0970 C.2   193  ASP193      0.3668
    184  OD1       20.6690   26.9950   13.4030 O.co2 193  ASP193     -0.2456
    185  OD2       22.8400   27.2940   13.6550 O.co2 193  ASP193     -0.2456
    186  N         22.4240   33.8720   10.8860 N.3   199  GLU199     -0.1245
    187  CA        23.7770   33.6170   10.4090 C.3   199  GLU199      0.1567
    188  C         23.9190   33.9540    8.9390 C.2   199  GLU199      0.2260
    189  O         23.0090   33.7320    8.1660 O.2   199  GLU199     -0.2867
    190  CB        24.1430   32.1540   10.6320 C.3   199  GLU199      0.0388
    191  CG        24.8170   31.8890   11.9770 C.3   199  GLU199      0.1160
    192  CD        24.7840   30.4190   12.3550 C.2   199  GLU199      0.3649
    193  OE1       24.6940   29.5710   11.4190 O.co2 199  GLU199     -0.2457
    194  OE2       24.8530   30.1290   13.5810 O.co2 199  GLU199     -0.2457
    195  N         27.6980   34.9120    6.7300 N.3   201  ASP201     -0.1225
    196  CA        28.9530   34.3480    6.2130 C.3   201  ASP201      0.1805
    197  C         29.1260   32.8600    6.2730 C.2   201  ASP201      0.2598
    198  O         28.9990   32.2430    7.3420 O.2   201  ASP201     -0.2718
    199  CB        30.1340   34.9420    6.9290 C.3   201  ASP201      0.1424
    200  CG        30.4900   36.2790    6.3910 C.2   201  ASP201      0.3668
    201  OD1       31.2980   36.3270    5.4190 O.co2 201  ASP201     -0.2456
    202  OD2       29.9310   37.2670    6.9400 O.co2 201  ASP201     -0.2456
    203  N         29.4480   32.2900    5.1230 N.am  202  GLY202     -0.1942
    204  CA        29.6570   30.8610    5.0570 C.3   202  GLY202      0.2014
    205  C         28.4240   30.0410    5.3090 C.2   202  GLY202      0.2638
    206  O         28.4710   28.8460    5.1950 O.2   202  GLY202     -0.2714
    207  N         27.3140   30.6480    5.6760 N.am  203  ASN203     -0.1972
    208  CA        26.1060   29.8700    5.8940 C.3   203  ASN203      0.1688
    209  C         25.5260   29.4010    4.5200 C.2   203  ASN203      0.2292
    210  O         25.4770   30.1470    3.5340 O.2   203  ASN203     -0.2864
    211  CB        25.1350   30.7190    6.6910 C.3   203  ASN203      0.1181
    212  CG        23.8710   30.0160    7.0030 C.2   203  ASN203      0.2629
    213  OD1       22.9540   29.9790    6.1940 O.2   203  ASN203     -0.2716
    214  ND2       23.8000   29.4370    8.1830 N.am  203  ASN203     -0.0877
@<TRIPOS>BOND
     1   109   107    1
     2   115   116    1
     3   112   113    2
     4   112   111    1
     5   119   116    1
     6   119   120    1
     7   107   108    1
     8   107   106    2
     9   116   117    1
    10   111   114    1
    11   111   110    1
    12   117   118    2
    13   106   105    1
    14   125   122   ar
    15   125   127   ar
    16   120   122   ar
    17   120   121   ar
    18   102   101    2
    19   122   124   ar
    20   210   209    2
    21   127   128   ar
    22   121   123   ar
    23   110   101   am
    24   101   100    1
    25   104   105    1
    26   104   103    1
    27   209   208    1
    28   124   123   ar
    29   124   126   ar
    30   128   126   ar
    31   129   130    1
    32   204   203    1
    33   204   205    1
    34   203   197   am
    35   206   205    2
    36   138   136   ar
    37   138   137   ar
    38   205   207   am
    39   103   100    1
    40   100    99    1
    41   136   134   ar
    42   201   200   ar
    43   207   208    1
    44    99    95   am
    45   137   135   ar
    46   208   211    1
    47   134   135   ar
    48   134   133    1
    49   213   212    2
    50   196   197    1
    51   196   195    1
    52   196   199    1
    53   197   198    2
    54   130   133    1
    55   130   131    1
    56   200   199    1
    57   200   202   ar
    58   176   175   ar
    59    97    98    1
    60    97    94    1
    61   211   212    1
    62    95    94    1
    63    95    96    2
    64   212   214   am
    65   131   132    2
    66   174   175    1
    67   174   171    1
    68   175   177   ar
    69    94    93    1
    70   172   173    2
    71   172   171    1
    72   189   188    2
    73   171   170    1
    74   150   149    1
    75   170   164   am
    76    83    81    1
    77   188   187    1
    78    78    81    1
    79    78    77    1
    80    78    79    1
    81    81    82    1
    82   162   163    1
    83   148   149   ar
    84   148   146   ar
    85   149   147   ar
    86   164   165    2
    87   164   163    1
    88    80    79    2
    89   187   190    1
    90   187   186    1
    91    79    84   am
    92   146   144   ar
    93   190   191    1
    94   163   166    1
    95   147   145   ar
    96   180   181    2
    97   180   179    1
    98   178   179    1
    99   139   140    1
   100   193   192   ar
   101   144   145   ar
   102   144   143    1
   103   179   182    1
   104   166   167    1
   105    84    85    1
   106   191   192    1
   107   182   183    1
   108    54    55    1
   109   141   140    1
   110   141   142    2
   111    86    87    2
   112    86    85    1
   113   140   143    1
   114   169   167   ar
   115    68    69    1
   116   192   194   ar
   117   151   152    1
   118   167   168   ar
   119    85    88    1
   120    55    56    1
   121    55    58    1
   122    71    70    2
   123   183   184   ar
   124   183   185   ar
   125    69    70    1
   126    69    72    1
   127    57    56    2
   128    75    74    2
   129    56    62   am
   130   152   153    1
   131   152   155    1
   132    58    59    1
   133    88    89    1
   134   153   154    2
   135    60    59    1
   136   155   156    1
   137    64    65    2
   138    64    63    1
   139    62    63    1
   140    72    73    1
   141    74    73    1
   142    74    76   am
   143    89    90    1
   144    59    61    1
   145    63    66    1
   146   156   158   ar
   147   156   157   ar
   148    90    91    1
   149   158   160   ar
   150    66    67    1
   151    91    92    1
   152   157   159   ar
   153   160   161   ar
   154    12    11    1
   155   159   161   ar
   156    45    43   ar
   157     9    11   ar
   158     9     7   ar
   159    11    10   ar
   160    52    53    1
   161    52    51    1
   162    43    44   ar
   163    43    42    1
   164     7     6   ar
   165    10     8   ar
   166     1     2    1
   167    29    28    1
   168     6     8   ar
   169     6     5    1
   170    42    39    1
   171     2     5    1
   172     2     3    1
   173    51    50    1
   174    50    47    1
   175    27    28    1
   176    27    26    1
   177    39    40    1
   178    39    38    1
   179     4     3    2
   180    49    48    2
   181    17    18    1
   182    17    14    1
   183    18    19    1
   184    41    40    2
   185    48    47    1
   186    16    15    2
   187    19    20    1
   188    47    46    1
   189    38    32   am
   190    26    25    1
   191    25    22    1
   192    15    21   am
   193    15    14    1
   194    22    21    1
   195    22    23    1
   196    14    13    1
   197    37    35    1
   198    24    23    2
   199    33    32    2
   200    32    31    1
   201    35    34    1
   202    35    36    1
   203    34    31    1
   204    31    30    1
