@<TRIPOS>MOLECULE
tmp/5b0kB00.pdb
 178 170 0 0 0
SMALL
GASTEIGER

@<TRIPOS>ATOM
      1  N         44.2580   73.6460   19.6760 N.3    32  ALA32      -0.1231
      2  CA        43.6100   74.6050   20.5210 C.3    32  ALA32       0.1694
      3  C         43.6510   74.1690   21.9820 C.2    32  ALA32       0.2592
      4  O         43.7750   74.9790   22.8880 O.2    32  ALA32      -0.2718
      5  CB        42.2170   74.7580   20.0920 C.3    32  ALA32       0.0304
      6  N         43.5060   72.8830   22.2200 N.am   33  HIS33      -0.1976
      7  CA        43.5440   72.3840   23.5840 C.3    33  HIS33       0.1656
      8  C         44.9000   72.6410   24.2610 C.2    33  HIS33       0.2291
      9  O         44.9240   72.9980   25.4510 O.2    33  HIS33      -0.2864
     10  CB        43.1790   70.8890   23.5790 C.3    33  HIS33       0.0771
     11  CG        43.2520   70.2220   24.9210 C.ar   33  HIS33       0.0820
     12  ND1       42.4700   70.6000   25.9900 N.ar   33  HIS33      -0.2267
     13  CD2       43.9750   69.1570   25.3510 C.ar   33  HIS33       0.1154
     14  CE1       42.7040   69.7930   27.0140 C.ar   33  HIS33       0.1986
     15  NE2       43.6130   68.9110   26.6530 N.ar   33  HIS33      -0.2212
     16  N         45.5740   76.1940   25.1940 N.3    36  ALA36      -0.1231
     17  CA        44.8880   76.6230   26.3740 C.3    36  ALA36       0.1694
     18  C         45.5760   76.1530   27.6470 C.2    36  ALA36       0.2592
     19  O         45.0780   76.4340   28.7300 O.2    36  ALA36      -0.2718
     20  CB        43.4360   76.1380   26.3420 C.3    36  ALA36       0.0304
     21  N         46.6740   75.4190   27.5940 N.am   37  LEU37      -0.1966
     22  CA        47.2560   75.0590   28.8950 C.3    37  LEU37       0.1728
     23  C         48.1250   76.2210   29.4180 C.2    37  LEU37       0.2616
     24  O         49.3590   76.1780   29.3790 O.2    37  LEU37      -0.2715
     25  CB        48.0680   73.7850   28.7800 C.3    37  LEU37       0.0311
     26  CG        47.2770   72.6460   28.1680 C.3    37  LEU37       0.0022
     27  CD1       48.3070   71.6140   27.8550 C.3    37  LEU37       0.0001
     28  CD2       46.0680   72.1220   29.0740 C.3    37  LEU37       0.0001
     29  N         47.4600   77.2680   29.8900 N.am   38  ARG38      -0.1963
     30  CA        48.0920   78.4830   30.3830 C.3    38  ARG38       0.1729
     31  C         49.2700   78.3130   31.3130 C.2    38  ARG38       0.2616
     32  O         50.4370   78.5050   30.8980 O.2    38  ARG38      -0.2715
     33  CB        47.0500   79.3630   31.0860 C.3    38  ARG38       0.0348
     34  CG        46.2880   80.2780   30.1160 C.3    38  ARG38       0.0492
     35  CD        44.7550   80.1430   30.1730 C.3    38  ARG38       0.2205
     36  NE        44.1830   80.4030   28.8620 N.pl3  38  ARG38      -0.0865
     37  CZ        44.6640   81.3130   28.0230 C.cat  38  ARG38       0.5346
     38  NH1       44.1030   81.5240   26.8280 N.pl3  38  ARG38       0.1354
     39  NH2       45.7360   82.0190   28.3840 N.pl3  38  ARG38       0.1354
     40  N         48.9470   77.9840   32.5710 N.am   39  LEU39      -0.1963
     41  CA        49.9320   77.8150   33.6110 C.3    39  LEU39       0.1728
     42  C         51.0350   76.8300   33.2450 C.2    39  LEU39       0.2616
     43  O         52.2110   77.0070   33.5960 O.2    39  LEU39      -0.2715
     44  CB        49.2400   77.3370   34.8350 C.3    39  LEU39       0.0311
     45  CG        50.1290   77.3330   36.0440 C.3    39  LEU39       0.0022
     46  CD1       50.9650   78.5980   36.0940 C.3    39  LEU39       0.0001
     47  CD2       49.2100   77.2330   37.2230 C.3    39  LEU39       0.0001
     48  N         50.6320   75.7760   32.5430 N.am   40  TYR40      -0.1974
     49  CA        51.5550   74.7640   32.0750 C.3    40  TYR40       0.1639
     50  C         52.5330   75.3520   31.0740 C.2    40  TYR40       0.2290
     51  O         53.6380   74.9090   31.0120 O.2    40  TYR40      -0.2864
     52  CB        50.8290   73.6260   31.3850 C.3    40  TYR40       0.0560
     53  CG        49.8740   72.8480   32.2350 C.ar   40  TYR40      -0.0198
     54  CD1       50.3260   71.7630   33.0110 C.ar   40  TYR40      -0.0009
     55  CD2       48.4910   73.1470   32.2230 C.ar   40  TYR40      -0.0009
     56  CE1       49.4450   70.9740   33.7560 C.ar   40  TYR40       0.0417
     57  CE2       47.5930   72.3640   32.9610 C.ar   40  TYR40       0.0417
     58  CZ        48.0800   71.2630   33.7310 C.ar   40  TYR40       0.1957
     59  OH        47.1890   70.4460   34.4360 O.3    40  TYR40      -0.2866
     60  N         54.6230   78.0430   33.4940 N.3    43  VAL43      -0.1245
     61  CA        55.4620   77.5590   34.5880 C.3    43  VAL43       0.1561
     62  C         56.9290   77.2660   34.2110 C.2    43  VAL43       0.2260
     63  O         57.8260   77.4170   35.0450 O.2    43  VAL43      -0.2867
     64  CB        54.8160   76.3550   35.2910 C.3    43  VAL43       0.0252
     65  CG1       54.9780   75.1440   34.4910 C.3    43  VAL43       0.0019
     66  CG2       55.3900   76.1810   36.6350 C.3    43  VAL43       0.0019
     67  N         56.0260   68.8750   29.7460 N.3    68  ILE68      -0.1245
     68  CA        54.9260   69.1060   30.6410 C.3    68  ILE68       0.1561
     69  C         53.6160   69.0060   29.8600 C.2    68  ILE68       0.2260
     70  O         52.6640   68.3800   30.3350 O.2    68  ILE68      -0.2867
     71  CB        54.9530   70.4910   31.2850 C.3    68  ILE68       0.0252
     72  CG1       56.1270   70.6300   32.2480 C.3    68  ILE68       0.0019
     73  CG2       53.6740   70.6710   32.0760 C.3    68  ILE68       0.0019
     74  CD1       56.8050   72.0010   32.2010 C.3    68  ILE68       0.0001
     75  N         50.4380   66.2050   30.5620 N.3    72  LYS72      -0.1245
     76  CA        49.0510   66.5640   30.7820 C.3    72  LYS72       0.1561
     77  C         48.2420   65.8950   29.6540 C.2    72  LYS72       0.2260
     78  O         47.1570   65.4180   29.9030 O.2    72  LYS72      -0.2867
     79  CB        48.8970   68.0910   30.6960 C.3    72  LYS72       0.0271
     80  CG        47.7750   68.7050   31.4710 C.3    72  LYS72       0.0035
     81  CD        46.4780   68.5970   30.7860 C.3    72  LYS72       0.0206
     82  CE        45.3710   68.7690   31.8350 C.3    72  LYS72       0.1093
     83  NZ        45.5330   67.8350   33.0220 N.3    72  LYS72      -0.1314
     84  N         51.1580   64.0850   41.9040 N.3   150  TYR150     -0.1227
     85  CA        50.8520   64.6320   40.5810 C.3   150  TYR150      0.1736
     86  C         51.1140   66.1530   40.5740 C.2   150  TYR150      0.2596
     87  O         50.9900   66.8380   39.5500 O.2   150  TYR150     -0.2718
     88  CB        49.4130   64.3350   40.2110 C.3   150  TYR150      0.0548
     89  CG        48.3780   65.0300   41.0730 C.ar  150  TYR150     -0.0200
     90  CD1       47.8170   66.2280   40.6560 C.ar  150  TYR150     -0.0009
     91  CD2       47.9030   64.4460   42.2630 C.ar  150  TYR150     -0.0009
     92  CE1       46.7960   66.8280   41.3820 C.ar  150  TYR150      0.0417
     93  CE2       46.8810   65.0290   43.0020 C.ar  150  TYR150      0.0417
     94  CZ        46.3090   66.2250   42.5570 C.ar  150  TYR150      0.1957
     95  OH        45.1800   66.7940   43.1690 O.3   150  TYR150     -0.2866
     96  N         51.4980   66.6620   41.7420 N.am  151  GLY151     -0.1957
     97  CA        51.8070   68.0630   41.9100 C.3   151  GLY151      0.1869
     98  C         53.2890   68.2630   42.2150 C.2   151  GLY151      0.2309
     99  O         54.0890   68.4500   41.3160 O.2   151  GLY151     -0.2863
    100  N         55.6640   65.7180   40.3440 N.3   154  PHE154     -0.1227
    101  CA        55.5580   65.9450   38.9180 C.3   154  PHE154      0.1736
    102  C         56.3300   67.1800   38.4640 C.2   154  PHE154      0.2595
    103  O         57.0720   67.1430   37.4940 O.2   154  PHE154     -0.2718
    104  CB        54.1070   66.1030   38.5570 C.3   154  PHE154      0.0547
    105  CG        53.9260   66.4510   37.1760 C.ar  154  PHE154     -0.0202
    106  CD1       54.2970   65.5590   36.1940 C.ar  154  PHE154     -0.0042
    107  CD2       53.4680   67.7040   36.8280 C.ar  154  PHE154     -0.0042
    108  CE1       54.2170   65.9170   34.8420 C.ar  154  PHE154     -0.0003
    109  CE2       53.3820   68.0850   35.5160 C.ar  154  PHE154     -0.0003
    110  CZ        53.7540   67.1970   34.5050 C.ar  154  PHE154     -0.0000
    111  N         56.1390   68.2790   39.1690 N.am  155  LEU155     -0.1980
    112  CA        56.8400   69.4750   38.8540 C.3   155  LEU155      0.1596
    113  C         58.3240   69.4040   39.2680 C.2   155  LEU155      0.2287
    114  O         59.1800   69.6690   38.4620 O.2   155  LEU155     -0.2864
    115  CB        56.1700   70.6240   39.5390 C.3   155  LEU155      0.0297
    116  CG        56.6170   72.0030   39.1050 C.3   155  LEU155      0.0022
    117  CD1       56.2610   72.1270   37.6610 C.3   155  LEU155      0.0001
    118  CD2       55.9170   73.0970   39.9050 C.3   155  LEU155      0.0001
    119  N         54.3750   74.0790   43.1070 N.3   183  ALA183     -0.1245
    120  CA        53.4110   73.1390   42.5320 C.3   183  ALA183      0.1562
    121  C         52.1980   72.8470   43.4380 C.2   183  ALA183      0.2260
    122  O         51.0460   72.7920   42.9990 O.2   183  ALA183     -0.2867
    123  CB        54.0910   71.8440   42.2190 C.3   183  ALA183      0.0290
    124  N         49.6950   75.8590   43.5810 N.3   186  ILE186     -0.1231
    125  CA        48.9280   75.8070   42.3370 C.3   186  ILE186      0.1692
    126  C         47.9200   74.6550   42.3050 C.2   186  ILE186      0.2592
    127  O         46.8300   74.7800   41.7810 O.2   186  ILE186     -0.2718
    128  CB        49.9040   75.6520   41.1490 C.3   186  ILE186      0.0266
    129  CG1       50.5700   76.9620   40.8340 C.3   186  ILE186      0.0019
    130  CG2       49.1910   75.1870   39.9180 C.3   186  ILE186      0.0020
    131  CD1       51.5010   76.7460   39.6640 C.3   186  ILE186      0.0001
    132  N         48.3170   73.5040   42.8180 N.am  187  THR187     -0.1953
    133  CA        47.4160   72.3730   42.8680 C.3   187  THR187      0.1897
    134  C         46.2640   72.7110   43.8090 C.2   187  THR187      0.2313
    135  O         45.1410   72.3400   43.5350 O.2   187  THR187     -0.2863
    136  CB        48.1250   71.1520   43.3830 C.3   187  THR187      0.1794
    137  OG1       49.1490   70.8260   42.4670 O.3   187  THR187     -0.2208
    138  CG2       47.2120   69.9780   43.4610 C.3   187  THR187      0.0378
    139  N         43.9800   74.8580   41.7780 N.3   190  ASP190     -0.1239
    140  CA        43.1710   74.1510   40.8380 C.3   190  ASP190      0.1674
    141  C         42.0580   73.3160   41.5110 C.2   190  ASP190      0.2266
    142  O         40.9650   73.2060   40.9580 O.2   190  ASP190     -0.2867
    143  CB        44.0510   73.3110   39.9310 C.3   190  ASP190      0.1410
    144  CG        43.2700   72.7000   38.7900 C.2   190  ASP190      0.3668
    145  OD1       42.7520   71.5780   38.9710 O.co2 190  ASP190     -0.2456
    146  OD2       43.1390   73.3310   37.7130 O.co2 190  ASP190     -0.2456
    147  N         35.8460   75.0760   37.2540 N.3   195  TYR195     -0.1241
    148  CA        35.7550   75.4590   35.8330 C.3   195  TYR195      0.1605
    149  C         34.4210   75.0280   35.2070 C.2   195  TYR195      0.2264
    150  O         34.1570   75.3330   34.0410 O.2   195  TYR195     -0.2867
    151  CB        36.9100   74.8810   34.9890 C.3   195  TYR195      0.0534
    152  CG        38.2500   75.6000   35.0620 C.ar  195  TYR195     -0.0201
    153  CD1       39.1240   75.4040   36.1450 C.ar  195  TYR195     -0.0009
    154  CD2       38.6570   76.4530   34.0420 C.ar  195  TYR195     -0.0009
    155  CE1       40.3790   76.0490   36.2070 C.ar  195  TYR195      0.0417
    156  CE2       39.8970   77.1010   34.0990 C.ar  195  TYR195      0.0417
    157  CZ        40.7510   76.8980   35.1890 C.ar  195  TYR195      0.1957
    158  OH        41.9380   77.5910   35.2830 O.3   195  TYR195     -0.2866
    159  N         33.0790   72.1060   34.0190 N.3   197  ARG197     -0.1245
    160  CA        33.0890   71.2740   32.8080 C.3   197  ARG197      0.1563
    161  C         32.4480   69.8810   33.0840 C.2   197  ARG197      0.2260
    162  O         31.8980   69.6360   34.1660 O.2   197  ARG197     -0.2867
    163  CB        34.5480   71.1200   32.3090 C.3   197  ARG197      0.0307
    164  CG        34.7410   70.7990   30.8050 C.3   197  ARG197      0.0489
    165  CD        36.2320   70.4890   30.5010 C.3   197  ARG197      0.2205
    166  NE        36.5450   70.4000   29.0640 N.pl3 197  ARG197     -0.0865
    167  CZ        37.7570   70.1370   28.5610 C.cat 197  ARG197      0.5346
    168  NH1       38.7960   69.9260   29.3690 N.pl3 197  ARG197      0.1354
    169  NH2       37.9360   70.1010   27.2420 N.pl3 197  ARG197      0.1354
    170  N         33.8220   67.8950   36.0080 N.3   200  GLU200     -0.1245
    171  CA        34.8450   68.6880   36.6750 C.3   200  GLU200      0.1567
    172  C         33.9320   69.4170   37.6800 C.2   200  GLU200      0.2260
    173  O         33.8580   70.6590   37.7040 O.2   200  GLU200     -0.2867
    174  CB        35.5020   69.6620   35.6660 C.3   200  GLU200      0.0388
    175  CG        36.8640   70.2570   36.0930 C.3   200  GLU200      0.1160
    176  CD        36.7490   71.5510   36.9170 C.2   200  GLU200      0.3649
    177  OE1       37.7790   71.9900   37.4810 O.co2 200  GLU200     -0.2457
    178  OE2       35.6410   72.1350   36.9930 O.co2 200  GLU200     -0.2457
@<TRIPOS>BOND
     1     1     2    1
     2     5     2    1
     3     2     3    1
     4     3     6   am
     5     3     4    2
     6     6     7    1
     7    10     7    1
     8    10    11    1
     9     7     8    1
    10     8     9    2
    11    11    13   ar
    12    11    12   ar
    13    16    17    1
    14    13    15   ar
    15    12    14   ar
    16    20    17    1
    17    17    18    1
    18    15    14   ar
    19    38    37    1
    20   169   167    1
    21    21    18   am
    22    21    22    1
    23    18    19    2
    24    27    26    1
    25    37    39    1
    26    37    36    2
    27    26    25    1
    28    26    28    1
    29   167   166    2
    30   167   168    1
    31    25    22    1
    32    36    35    1
    33    22    23    1
    34   166   165    1
    35    24    23    2
    36    23    29   am
    37    77    78    2
    38    77    76    1
    39    67    68    1
    40    69    70    2
    41    69    68    1
    42    29    30    1
    43    34    35    1
    44    34    33    1
    45    30    33    1
    46    30    31    1
    47   165   164    1
    48    75    76    1
    49    68    71    1
    50    79    76    1
    51    79    80    1
    52    81    80    1
    53    81    82    1
    54   164   163    1
    55    32    31    2
    56    51    50    2
    57    50    49    1
    58    71    73    1
    59    71    72    1
    60    31    40   am
    61    52    49    1
    62    52    53    1
    63    82    83    1
    64    49    48    1
    65    74    72    1
    66    55    53   ar
    67    55    57   ar
    68    53    54   ar
    69   163   160    1
    70    48    42   am
    71    40    41    1
    72   160   161    1
    73   160   159    1
    74    57    58   ar
    75    54    56   ar
    76   161   162    2
    77    42    43    2
    78    42    41    1
    79    60    61    1
    80    41    44    1
    81    58    56   ar
    82    58    59    1
    83   150   149    2
    84   154   156   ar
    85   154   152   ar
    86   156   157   ar
    87    62    61    1
    88    62    63    2
    89    65    64    1
    90   110   108   ar
    91   110   109   ar
    92    61    64    1
    93    44    45    1
    94   108   106   ar
    95   151   152    1
    96   151   148    1
    97   152   153   ar
    98   157   158    1
    99   157   155   ar
   100   149   148    1
   101    64    66    1
   102   109   107   ar
   103   174   175    1
   104   174   171    1
   105   148   147    1
   106   170   171    1
   107    45    46    1
   108    45    47    1
   109   175   176    1
   110   153   155   ar
   111   106   105   ar
   112   171   172    1
   113   107   105   ar
   114   176   178   ar
   115   176   177   ar
   116   105   104    1
   117   103   102    2
   118   117   116    1
   119   172   173    2
   120   146   144   ar
   121   114   113    2
   122   102   101    1
   123   102   111   am
   124   104   101    1
   125   144   145   ar
   126   144   143    1
   127   112   111    1
   128   112   113    1
   129   112   115    1
   130   101   100    1
   131   116   115    1
   132   116   118    1
   133    87    86    2
   134   131   129    1
   135   130   128    1
   136   143   140    1
   137    88    85    1
   138    88    89    1
   139    86    85    1
   140    86    96   am
   141    85    84    1
   142    90    89   ar
   143    90    92   ar
   144   129   128    1
   145   140   141    1
   146   140   139    1
   147   142   141    2
   148    89    91   ar
   149   128   125    1
   150    99    98    2
   151    92    94   ar
   152    96    97    1
   153   127   126    2
   154    97    98    1
   155   123   120    1
   156    91    93   ar
   157   126   125    1
   158   126   132   am
   159   125   124    1
   160   137   136    1
   161   120   119    1
   162   120   121    1
   163    94    93   ar
   164    94    95    1
   165   132   133    1
   166   133   136    1
   167   133   134    1
   168   122   121    2
   169   136   138    1
   170   135   134    2
