@<TRIPOS>MOLECULE
tmp/5b0lB00.pdb
 174 166 0 0 0
SMALL
GASTEIGER

@<TRIPOS>ATOM
      1  N         26.3250   25.2940   76.1600 N.3    37  ALA37      -0.1231
      2  CA        27.0290   26.4900   76.5240 C.3    37  ALA37       0.1694
      3  C         26.2760   27.7560   76.1420 C.2    37  ALA37       0.2592
      4  O         26.7600   28.8570   76.3710 O.2    37  ALA37      -0.2718
      5  CB        28.3650   26.4880   75.8770 C.3    37  ALA37       0.0304
      6  N         25.1130   27.6280   75.5310 N.am   38  LEU38      -0.1966
      7  CA        24.3850   28.8370   75.1680 C.3    38  LEU38       0.1728
      8  C         23.4800   29.3350   76.3300 C.2    38  LEU38       0.2616
      9  O         22.2410   29.3940   76.2240 O.2    38  LEU38      -0.2715
     10  CB        23.6000   28.5640   73.8980 C.3    38  LEU38       0.0311
     11  CG        24.4940   28.1590   72.7380 C.3    38  LEU38       0.0022
     12  CD1       23.6320   27.8000   71.5400 C.3    38  LEU38       0.0001
     13  CD2       25.4600   29.2740   72.3890 C.3    38  LEU38       0.0001
     14  N         24.1230   29.7330   77.4230 N.am   39  ARG39      -0.1963
     15  CA        23.4120   30.1340   78.6380 C.3    39  ARG39       0.1729
     16  C         22.2670   31.0800   78.5380 C.2    39  ARG39       0.2616
     17  O         21.1320   30.7150   78.8550 O.2    39  ARG39      -0.2715
     18  CB        24.4020   30.6610   79.6540 C.3    39  ARG39       0.0348
     19  CG        25.1910   29.5420   80.2580 C.3    39  ARG39       0.0492
     20  CD        26.6960   29.7270   80.2240 C.3    39  ARG39       0.2205
     21  NE        27.2070   28.4480   80.6560 N.pl3  39  ARG39      -0.0865
     22  CZ        26.8300   27.9020   81.8050 C.cat  39  ARG39       0.5346
     23  NH1       27.2800   26.6940   82.1800 N.pl3  39  ARG39       0.1354
     24  NH2       26.0170   28.6150   82.6020 N.pl3  39  ARG39       0.1354
     25  N         22.6090   32.2990   78.1190 N.am   40  LEU40      -0.1963
     26  CA        21.6850   33.4170   77.9290 C.3    40  LEU40       0.1728
     27  C         20.5520   33.0550   76.9700 C.2    40  LEU40       0.2616
     28  O         19.3950   33.4420   77.1540 O.2    40  LEU40      -0.2715
     29  CB        22.4560   34.5860   77.3210 C.3    40  LEU40       0.0311
     30  CG        22.2170   35.9900   77.8260 C.3    40  LEU40       0.0022
     31  CD1       20.8040   36.0240   78.4540 C.3    40  LEU40       0.0001
     32  CD2       23.3430   36.3350   78.8740 C.3    40  LEU40       0.0001
     33  N         20.9430   32.3430   75.9150 N.am   41  TYR41      -0.1974
     34  CA        20.0380   31.8930   74.8760 C.3    41  TYR41       0.1639
     35  C         19.0030   30.9640   75.4940 C.2    41  TYR41       0.2290
     36  O         17.8190   31.0650   75.1940 O.2    41  TYR41      -0.2864
     37  CB        20.8010   31.1310   73.7850 C.3    41  TYR41       0.0560
     38  CG        21.7250   31.9650   72.9250 C.ar   41  TYR41      -0.0198
     39  CD1       21.2680   32.5610   71.7390 C.ar   41  TYR41      -0.0009
     40  CD2       23.0750   32.1470   73.2770 C.ar   41  TYR41      -0.0009
     41  CE1       22.1270   33.3180   70.9150 C.ar   41  TYR41       0.0417
     42  CE2       23.9530   32.9090   72.4570 C.ar   41  TYR41       0.0417
     43  CZ        23.4740   33.4950   71.2720 C.ar   41  TYR41       0.1957
     44  OH        24.3270   34.2620   70.4700 O.3    41  TYR41      -0.2866
     45  N         18.1760   30.7820   78.6750 N.3    43  ARG43      -0.1231
     46  CA        17.5640   31.4720   79.7830 C.3    43  ARG43       0.1694
     47  C         16.5150   32.4870   79.3840 C.2    43  ARG43       0.2591
     48  O         15.4570   32.6140   80.0360 O.2    43  ARG43      -0.2718
     49  CB        18.6680   32.1750   80.5890 C.3    43  ARG43       0.0321
     50  CG        18.1010   33.1590   81.6200 C.3    43  ARG43       0.0489
     51  CD        19.0350   33.4510   82.8360 C.3    43  ARG43       0.2205
     52  NE        20.3470   33.9650   82.4380 N.pl3  43  ARG43      -0.0865
     53  CZ        21.4610   33.2390   82.3440 C.cat  43  ARG43       0.5346
     54  NH1       22.5990   33.8110   81.9600 N.pl3  43  ARG43       0.1354
     55  NH2       21.4390   31.9550   82.6630 N.pl3  43  ARG43       0.1354
     56  N         16.7930   33.1980   78.2950 N.am   44  VAL44      -0.1980
     57  CA        15.9000   34.2680   77.8930 C.3    44  VAL44       0.1595
     58  C         14.4550   33.8820   77.5750 C.2    44  VAL44       0.2287
     59  O         13.5560   34.7080   77.6930 O.2    44  VAL44      -0.2864
     60  CB        16.5580   35.1340   76.8000 C.3    44  VAL44       0.0276
     61  CG1       16.4260   34.4850   75.4390 C.3    44  VAL44       0.0022
     62  CG2       15.9700   36.5140   76.8480 C.3    44  VAL44       0.0022
     63  N         15.5980   29.3310   69.1860 N.3    69  ILE69      -0.1245
     64  CA        16.6600   30.2910   69.3810 C.3    69  ILE69       0.1561
     65  C         18.0130   29.5970   69.1450 C.2    69  ILE69       0.2260
     66  O         18.8890   30.1100   68.4210 O.2    69  ILE69      -0.2867
     67  CB        16.5700   30.9190   70.8060 C.3    69  ILE69       0.0252
     68  CG1       15.2910   31.7300   70.8840 C.3    69  ILE69       0.0019
     69  CG2       17.7380   31.8410   71.0910 C.3    69  ILE69       0.0019
     70  CD1       15.0550   32.3270   72.2330 C.3    69  ILE69       0.0001
     71  N         20.8210   30.1430   66.3720 N.3    73  LYS73      -0.1245
     72  CA        22.2070   30.4340   66.6840 C.3    73  LYS73       0.1561
     73  C         23.0710   29.4730   65.8820 C.2    73  LYS73       0.2260
     74  O         24.1260   29.8770   65.3570 O.2    73  LYS73      -0.2867
     75  CB        22.4920   30.2850   68.1780 C.3    73  LYS73       0.0271
     76  CG        23.6300   31.1620   68.6670 C.3    73  LYS73       0.0035
     77  CD        24.9750   30.4430   68.5060 C.3    73  LYS73       0.0206
     78  CE        26.2020   31.2590   69.0560 C.3    73  LYS73       0.1093
     79  NZ        26.5990   32.5100   68.2990 N.3    73  LYS73      -0.1314
     80  N         19.8570   41.8820   63.9180 N.3   151  TYR151     -0.1227
     81  CA        20.2510   40.5960   64.4790 C.3   151  TYR151      0.1736
     82  C         20.0760   40.4480   65.9930 C.2   151  TYR151      0.2596
     83  O         20.3120   39.3670   66.5560 O.2   151  TYR151     -0.2718
     84  CB        21.6640   40.2110   64.0380 C.3   151  TYR151      0.0548
     85  CG        22.7540   41.0780   64.5610 C.ar  151  TYR151     -0.0200
     86  CD1       23.3620   40.7910   65.7820 C.ar  151  TYR151     -0.0009
     87  CD2       23.1490   42.2110   63.8690 C.ar  151  TYR151     -0.0009
     88  CE1       24.3370   41.6320   66.3190 C.ar  151  TYR151      0.0417
     89  CE2       24.1300   43.0600   64.3770 C.ar  151  TYR151      0.0417
     90  CZ        24.7170   42.7770   65.6100 C.ar  151  TYR151      0.1957
     91  OH        25.6370   43.6470   66.1610 O.3   151  TYR151     -0.2866
     92  N         19.6350   41.5230   66.6470 N.am  152  GLY152     -0.1957
     93  CA        19.3730   41.4920   68.0720 C.3   152  GLY152      0.1869
     94  C         17.8950   41.7720   68.3410 C.2   152  GLY152      0.2309
     95  O         17.1260   40.8870   68.7140 O.2   152  GLY152     -0.2863
     96  N         15.3700   39.8820   65.8400 N.3   155  PHE155     -0.1227
     97  CA        15.5560   38.4750   66.1680 C.3   155  PHE155      0.1736
     98  C         14.7710   38.0640   67.4150 C.2   155  PHE155      0.2595
     99  O         13.9080   37.2010   67.3620 O.2   155  PHE155     -0.2718
    100  CB        17.0480   38.2030   66.3600 C.3   155  PHE155      0.0547
    101  CG        17.3700   36.7740   66.7140 C.ar  155  PHE155     -0.0202
    102  CD1       17.1260   35.7580   65.8150 C.ar  155  PHE155     -0.0042
    103  CD2       17.8810   36.4490   67.9760 C.ar  155  PHE155     -0.0042
    104  CE1       17.3810   34.4260   66.1650 C.ar  155  PHE155     -0.0003
    105  CE2       18.1380   35.1350   68.3320 C.ar  155  PHE155     -0.0003
    106  CZ        17.8860   34.1230   67.4240 C.ar  155  PHE155     -0.0000
    107  N         15.0930   38.6710   68.5420 N.am  156  LEU156     -0.1980
    108  CA        14.3870   38.3970   69.7920 C.3   156  LEU156      0.1596
    109  C         12.8990   38.9250   69.8360 C.2   156  LEU156      0.2287
    110  O         12.0600   38.3920   70.5930 O.2   156  LEU156     -0.2864
    111  CB        15.1550   39.0110   70.9500 C.3   156  LEU156      0.0297
    112  CG        14.7150   38.2470   72.1580 C.3   156  LEU156      0.0022
    113  CD1       15.1030   36.8040   71.8470 C.3   156  LEU156      0.0001
    114  CD2       15.3300   38.7470   73.4780 C.3   156  LEU156      0.0001
    115  N         16.9950   42.8340   74.2760 N.3   184  ALA184     -0.1245
    116  CA        17.8360   42.1850   73.2750 C.3   184  ALA184      0.1562
    117  C         19.0210   43.0590   72.8970 C.2   184  ALA184      0.2260
    118  O         20.1630   42.5780   72.7800 O.2   184  ALA184     -0.2867
    119  CB        17.0370   41.8720   72.0410 C.3   184  ALA184      0.0290
    120  N         21.5920   43.0150   75.9760 N.3   187  ILE187     -0.1231
    121  CA        22.5170   41.8970   76.0740 C.3   187  ILE187      0.1692
    122  C         23.4050   41.7670   74.8720 C.2   187  ILE187      0.2592
    123  O         24.5050   41.1710   74.9680 O.2   187  ILE187     -0.2718
    124  CB        21.8320   40.5600   76.2640 C.3   187  ILE187      0.0266
    125  CG1       20.6740   40.4160   75.2970 C.3   187  ILE187      0.0019
    126  CG2       21.4540   40.3850   77.7620 C.3   187  ILE187      0.0020
    127  CD1       19.5980   39.4820   75.8420 C.3   187  ILE187      0.0001
    128  N         22.9320   42.2970   73.7400 N.am  188  THR188     -0.1953
    129  CA        23.7400   42.2810   72.5280 C.3   188  THR188      0.1897
    130  C         24.9240   43.2200   72.7060 C.2   188  THR188      0.2313
    131  O         26.0100   42.9820   72.1810 O.2   188  THR188     -0.2863
    132  CB        22.9950   42.7370   71.3290 C.3   188  THR188      0.1794
    133  OG1       21.9640   41.7950   71.0080 O.3   188  THR188     -0.2208
    134  CG2       23.9380   42.8510   70.1890 C.3   188  THR188      0.0378
    135  N         27.1700   41.2350   74.9370 N.3   191  ASP191     -0.1239
    136  CA        27.9420   40.2160   74.2490 C.3   191  ASP191      0.1674
    137  C         29.0810   40.8440   73.5350 C.2   191  ASP191      0.2266
    138  O         30.2050   40.3700   73.6480 O.2   191  ASP191     -0.2867
    139  CB        27.1420   39.4300   73.2170 C.3   191  ASP191      0.1410
    140  CG        27.9740   38.2770   72.5850 C.2   191  ASP191      0.3668
    141  OD1       28.5670   37.5000   73.3780 O.co2 191  ASP191     -0.2456
    142  OD2       28.0460   38.1430   71.3230 O.co2 191  ASP191     -0.2456
    143  N         36.1210   36.6240   74.8800 N.3   196  TYR196     -0.1241
    144  CA        36.3290   35.2510   75.3180 C.3   196  TYR196      0.1605
    145  C         37.6420   34.5840   74.8310 C.2   196  TYR196      0.2264
    146  O         38.0640   33.5630   75.3810 O.2   196  TYR196     -0.2867
    147  CB        35.1400   34.3890   74.8960 C.3   196  TYR196      0.0534
    148  CG        33.8190   34.6970   75.5770 C.ar  196  TYR196     -0.0201
    149  CD1       32.8390   35.4860   74.9590 C.ar  196  TYR196     -0.0009
    150  CD2       33.5130   34.1470   76.8160 C.ar  196  TYR196     -0.0009
    151  CE1       31.5780   35.6980   75.5720 C.ar  196  TYR196      0.0417
    152  CE2       32.2600   34.3630   77.4290 C.ar  196  TYR196      0.0417
    153  CZ        31.3040   35.1260   76.8050 C.ar  196  TYR196      0.1957
    154  OH        30.0750   35.2670   77.4040 O.3   196  TYR196     -0.2866
    155  N         38.1990   32.7390   72.3970 N.3   198  ARG198     -0.1245
    156  CA        38.0290   31.4530   71.7090 C.3   198  ARG198      0.1563
    157  C         38.2930   31.6680   70.2110 C.2   198  ARG198      0.2260
    158  O         37.6060   32.4830   69.5710 O.2   198  ARG198     -0.2867
    159  CB        36.6040   30.8660   71.9140 C.3   198  ARG198      0.0307
    160  CG        36.2900   30.2830   73.3090 C.3   198  ARG198      0.0489
    161  CD        36.1380   28.7310   73.3220 C.3   198  ARG198      0.2205
    162  NE        35.5050   28.2410   74.5610 N.pl3 198  ARG198     -0.0865
    163  CZ        34.2420   27.7870   74.6690 C.cat 198  ARG198      0.5346
    164  NH1       33.4410   27.7310   73.5970 N.pl3 198  ARG198      0.1354
    165  NH2       33.7550   27.4350   75.8700 N.pl3 198  ARG198      0.1354
    166  N         38.3670   34.8550   67.3510 N.3   201  GLU201     -0.1245
    167  CA        37.1970   35.6380   67.7130 C.3   201  GLU201      0.1567
    168  C         37.5580   37.1320   67.7450 C.2   201  GLU201      0.2260
    169  O         38.4680   37.5500   68.4810 O.2   201  GLU201     -0.2867
    170  CB        36.6820   35.1700   69.0820 C.3   201  GLU201      0.0388
    171  CG        36.0450   36.2560   69.9170 C.3   201  GLU201      0.1160
    172  CD        35.5260   35.7430   71.2310 C.2   201  GLU201      0.3649
    173  OE1       34.4340   35.1250   71.2430 O.co2 201  GLU201     -0.2457
    174  OE2       36.2260   35.9600   72.2420 O.co2 201  GLU201     -0.2457
@<TRIPOS>BOND
     1    87    89   ar
     2    87    85   ar
     3    80    81    1
     4    84    81    1
     5    84    85    1
     6    89    90   ar
     7    81    82    1
     8    85    86   ar
     9    74    73    2
    10    90    91    1
    11    90    88   ar
    12    86    88   ar
    13   102   104   ar
    14   102   101   ar
    15    96    97    1
    16    73    72    1
    17    82    83    2
    18    82    92   am
    19   104   106   ar
    20    97   100    1
    21    97    98    1
    22   100   101    1
    23    71    72    1
    24    92    93    1
    25    72    75    1
    26   101   103   ar
    27   166   167    1
    28    99    98    2
    29    98   107   am
    30   106   105   ar
    31   167   168    1
    32   167   170    1
    33   168   169    2
    34   103   105   ar
    35    93    94    1
    36    75    76    1
    37    79    78    1
    38    94    95    2
    39    66    65    2
    40    77    76    1
    41    77    78    1
    42   107   108    1
    43   170   171    1
    44    65    64    1
    45    63    64    1
    46    64    67    1
    47   158   157    2
    48   108   109    1
    49   108   111    1
    50   109   110    2
    51   171   172    1
    52   134   132    1
    53   157   156    1
    54    44    43    1
    55    67    68    1
    56    67    69    1
    57    68    70    1
    58    41    43   ar
    59    41    39   ar
    60   111   112    1
    61   133   132    1
    62   172   173   ar
    63   172   174   ar
    64    43    42   ar
    65   142   140   ar
    66   132   129    1
    67    12    11    1
    68   156   159    1
    69   156   155    1
    70    39    38   ar
    71   113   112    1
    72   159   160    1
    73   119   116    1
    74   112   114    1
    75   131   130    2
    76    13    11    1
    77    42    40   ar
    78   129   130    1
    79   129   128    1
    80   140   139    1
    81   140   141   ar
    82    11    10    1
    83   118   117    2
    84   117   116    1
    85    38    40   ar
    86    38    37    1
    87   139   136    1
    88   116   115    1
    89   160   161    1
    90   161   162    1
    91   137   138    2
    92   137   136    1
    93   164   163    1
    94   128   122   am
    95    37    34    1
    96    10     7    1
    97   136   135    1
    98   162   163    2
    99   163   165    1
   100   145   144    1
   101   145   146    2
   102   122   123    2
   103   122   121    1
   104    34    35    1
   105    34    33    1
   106   143   144    1
   107   147   144    1
   108   147   148    1
   109   149   151   ar
   110   149   148   ar
   111     7     6    1
   112     7     8    1
   113    36    35    2
   114   125   127    1
   115   125   124    1
   116    61    60    1
   117     6     3   am
   118   151   153   ar
   119   148   150   ar
   120     5     2    1
   121    33    27   am
   122   120   121    1
   123   121   124    1
   124     3     4    2
   125     3     2    1
   126     1     2    1
   127     9     8    2
   128   124   126    1
   129     8    14   am
   130    60    62    1
   131    60    57    1
   132   153   154    1
   133   153   152   ar
   134   150   152   ar
   135    27    28    2
   136    27    26    1
   137    29    30    1
   138    29    26    1
   139    14    15    1
   140    58    59    2
   141    58    57    1
   142    30    31    1
   143    30    32    1
   144    57    56    1
   145    26    25    1
   146    25    16   am
   147    56    47   am
   148    16    15    1
   149    16    17    2
   150    15    18    1
   151    45    46    1
   152    47    46    1
   153    47    48    2
   154    18    19    1
   155    46    49    1
   156    20    19    1
   157    20    21    1
   158    49    50    1
   159    21    22    2
   160    50    51    1
   161    22    23    1
   162    22    24    1
   163    54    53    1
   164    53    52    2
   165    53    55    1
   166    52    51    1
