@<TRIPOS>MOLECULE
tmp/5b0lB01.pdb
 147 139 0 0 0
SMALL
GASTEIGER

@<TRIPOS>ATOM
      1  N         20.9430   32.3430   75.9150 N.3    41  TYR41      -0.1241
      2  CA        20.0380   31.8930   74.8760 C.3    41  TYR41       0.1605
      3  C         19.0030   30.9640   75.4940 C.2    41  TYR41       0.2264
      4  O         17.8190   31.0650   75.1940 O.2    41  TYR41      -0.2867
      5  CB        20.8010   31.1310   73.7850 C.3    41  TYR41       0.0534
      6  CG        21.7250   31.9650   72.9250 C.ar   41  TYR41      -0.0201
      7  CD1       21.2680   32.5610   71.7390 C.ar   41  TYR41      -0.0009
      8  CD2       23.0750   32.1470   73.2770 C.ar   41  TYR41      -0.0009
      9  CE1       22.1270   33.3180   70.9150 C.ar   41  TYR41       0.0417
     10  CE2       23.9530   32.9090   72.4570 C.ar   41  TYR41       0.0417
     11  CZ        23.4740   33.4950   71.2720 C.ar   41  TYR41       0.1957
     12  OH        24.3270   34.2620   70.4700 O.3    41  TYR41      -0.2866
     13  N         18.5090   28.8930   65.5840 N.3    72  MET72      -0.1230
     14  CA        18.9600   30.0360   64.8420 C.3    72  MET72       0.1702
     15  C         20.3950   30.3660   65.1370 C.2    72  MET72       0.2592
     16  O         21.1320   30.8230   64.2580 O.2    72  MET72      -0.2718
     17  CB        18.0580   31.2190   65.1220 C.3    72  MET72       0.0401
     18  CG        16.6580   31.0320   64.5160 C.3    72  MET72       0.0596
     19  SD        16.6040   30.7840   62.7090 S.3    72  MET72      -0.1393
     20  CE        16.2260   28.9470   62.4780 C.3    72  MET72       0.0692
     21  N         20.8210   30.1430   66.3720 N.am   73  LYS73      -0.1980
     22  CA        22.2070   30.4340   66.6840 C.3    73  LYS73       0.1596
     23  C         23.0710   29.4730   65.8820 C.2    73  LYS73       0.2287
     24  O         24.1260   29.8770   65.3570 O.2    73  LYS73      -0.2864
     25  CB        22.4920   30.2850   68.1780 C.3    73  LYS73       0.0298
     26  CG        23.6300   31.1620   68.6670 C.3    73  LYS73       0.0038
     27  CD        24.9750   30.4430   68.5060 C.3    73  LYS73       0.0206
     28  CE        26.2020   31.2590   69.0560 C.3    73  LYS73       0.1093
     29  NZ        26.5990   32.5100   68.2990 N.3    73  LYS73      -0.1314
     30  N         22.4830   28.1430   62.9760 N.3    75  LEU75      -0.1231
     31  CA        22.5620   28.5300   61.5870 C.3    75  LEU75       0.1693
     32  C         23.5630   29.6840   61.4590 C.2    75  LEU75       0.2592
     33  O         24.3280   29.7690   60.4840 O.2    75  LEU75      -0.2718
     34  CB        21.1890   28.9560   61.1370 C.3    75  LEU75       0.0284
     35  CG        21.0750   29.4810   59.7330 C.3    75  LEU75       0.0019
     36  CD1       21.3890   28.3330   58.7310 C.3    75  LEU75       0.0001
     37  CD2       19.6820   30.0430   59.5760 C.3    75  LEU75       0.0001
     38  N         23.5700   30.5820   62.4530 N.am   76  ASP76      -0.1960
     39  CA        24.5500   31.6800   62.4370 C.3    76  ASP76       0.1840
     40  C         25.9870   31.1060   62.5350 C.2    76  ASP76       0.2622
     41  O         26.8710   31.4890   61.7780 O.2    76  ASP76      -0.2715
     42  CB        24.3060   32.6560   63.5900 C.3    76  ASP76       0.1450
     43  CG        25.0640   33.9710   63.4000 C.2    76  ASP76       0.3671
     44  OD1       24.9370   34.5580   62.2970 O.co2  76  ASP76      -0.2456
     45  OD2       25.7910   34.4150   64.3280 O.co2  76  ASP76      -0.2456
     46  N         26.2070   30.1810   63.4720 N.am   77  ASP77      -0.1971
     47  CA        27.5090   29.5640   63.6000 C.3    77  ASP77       0.1709
     48  C         27.8300   28.8670   62.3010 C.2    77  ASP77       0.2293
     49  O         28.9810   28.8830   61.8540 O.2    77  ASP77      -0.2864
     50  CB        27.5470   28.5670   64.7590 C.3    77  ASP77       0.1436
     51  CG        27.5420   29.2650   66.1250 C.2    77  ASP77       0.3671
     52  OD1       27.8740   30.4990   66.1930 O.co2  77  ASP77      -0.2456
     53  OD2       27.2080   28.5800   67.1340 O.co2  77  ASP77      -0.2456
     54  N         26.9380   29.8160   59.3020 N.3    79  MET79      -0.1230
     55  CA        27.3940   30.7790   58.2790 C.3    79  MET79       0.1702
     56  C         28.7940   31.3610   58.5650 C.2    79  MET79       0.2592
     57  O         29.5450   31.7160   57.6400 O.2    79  MET79      -0.2718
     58  CB        26.3550   31.8940   58.0250 C.3    79  MET79       0.0401
     59  CG        26.2550   33.0510   58.9630 C.3    79  MET79       0.0596
     60  SD        24.8030   34.0250   58.3960 S.3    79  MET79      -0.1393
     61  CE        23.4450   33.3570   59.2980 C.3    79  MET79       0.0692
     62  N         29.1650   31.4110   59.8380 N.am   80  ASP80      -0.1974
     63  CA        30.5030   31.8700   60.2070 C.3    80  ASP80       0.1709
     64  C         31.5580   30.7610   60.1210 C.2    80  ASP80       0.2293
     65  O         32.7050   31.0340   59.8360 O.2    80  ASP80      -0.2864
     66  CB        30.5010   32.4660   61.5970 C.3    80  ASP80       0.1436
     67  CG        29.7390   33.7770   61.6490 C.2    80  ASP80       0.3671
     68  OD1       29.3980   34.3030   60.5390 O.co2  80  ASP80      -0.2456
     69  OD2       29.4980   34.2670   62.7930 O.co2  80  ASP80      -0.2456
     70  N         14.6950   40.6210   58.7600 N.3   126  LEU126     -0.1231
     71  CA        15.7260   39.8830   59.5140 C.3   126  LEU126      0.1693
     72  C         16.7670   39.2530   58.6220 C.2   126  LEU126      0.2592
     73  O         17.9400   39.4420   58.8320 O.2   126  LEU126     -0.2718
     74  CB        15.1010   38.7850   60.3090 C.3   126  LEU126      0.0284
     75  CG        16.1170   37.8470   60.9060 C.3   126  LEU126      0.0019
     76  CD1       16.3970   38.1790   62.3470 C.3   126  LEU126      0.0001
     77  CD2       15.5170   36.4540   60.8080 C.3   126  LEU126      0.0001
     78  N         16.3340   38.5120   57.6120 N.am  127  CYS127     -0.1970
     79  CA        17.2460   37.8570   56.6820 C.3   127  CYS127      0.1712
     80  C         18.0780   38.7660   55.7880 C.2   127  CYS127      0.2296
     81  O         19.2500   38.5210   55.5760 O.2   127  CYS127     -0.2864
     82  CB        16.4600   36.9110   55.8110 C.3   127  CYS127      0.0983
     83  SG        15.7550   35.5880   56.7840 S.3   127  CYS127     -0.0798
     84  N         20.5150   40.5330   58.0850 N.3   130  GLN130     -0.1245
     85  CA        21.6410   39.7580   58.4740 C.3   130  GLN130      0.1566
     86  C         22.7180   39.8610   57.4100 C.2   130  GLN130      0.2260
     87  O         23.8900   39.9740   57.7470 O.2   130  GLN130     -0.2867
     88  CB        21.2190   38.3130   58.6720 C.3   130  GLN130      0.0367
     89  CG        22.2820   37.4290   59.3070 C.3   130  GLN130      0.0905
     90  CD        22.6240   37.8310   60.7190 C.2   130  GLN130      0.2608
     91  OE1       23.1160   37.0160   61.4820 O.2   130  GLN130     -0.2717
     92  NE2       22.3800   39.0960   61.0750 N.am  130  GLN130     -0.0878
     93  N         26.5740   41.5840   58.1370 N.3   134  LYS134     -0.1245
     94  CA        27.8450   40.9310   57.9170 C.3   134  LYS134      0.1561
     95  C         28.6740   41.3680   56.7350 C.2   134  LYS134      0.2260
     96  O         29.8630   41.0350   56.6940 O.2   134  LYS134     -0.2867
     97  CB        27.6570   39.4090   57.8660 C.3   134  LYS134      0.0271
     98  CG        26.7980   38.8980   58.9720 C.3   134  LYS134      0.0035
     99  CD        27.4570   37.7840   59.7310 C.3   134  LYS134      0.0206
    100  CE        26.4450   36.9780   60.5240 C.3   134  LYS134      0.1093
    101  NZ        27.1280   35.9720   61.3470 N.3   134  LYS134     -0.1314
    102  N         19.8570   41.8820   63.9180 N.3   151  TYR151     -0.1241
    103  CA        20.2510   40.5960   64.4790 C.3   151  TYR151      0.1605
    104  C         20.0760   40.4480   65.9930 C.2   151  TYR151      0.2264
    105  O         20.3120   39.3670   66.5560 O.2   151  TYR151     -0.2867
    106  CB        21.6640   40.2110   64.0380 C.3   151  TYR151      0.0534
    107  CG        22.7540   41.0780   64.5610 C.ar  151  TYR151     -0.0201
    108  CD1       23.3620   40.7910   65.7820 C.ar  151  TYR151     -0.0009
    109  CD2       23.1490   42.2110   63.8690 C.ar  151  TYR151     -0.0009
    110  CE1       24.3370   41.6320   66.3190 C.ar  151  TYR151      0.0417
    111  CE2       24.1300   43.0600   64.3770 C.ar  151  TYR151      0.0417
    112  CZ        24.7170   42.7770   65.6100 C.ar  151  TYR151      0.1957
    113  OH        25.6370   43.6470   66.1610 O.3   151  TYR151     -0.2866
    114  N         15.3700   39.8820   65.8400 N.3   155  PHE155     -0.1241
    115  CA        15.5560   38.4750   66.1680 C.3   155  PHE155      0.1605
    116  C         14.7710   38.0640   67.4150 C.2   155  PHE155      0.2264
    117  O         13.9080   37.2010   67.3620 O.2   155  PHE155     -0.2867
    118  CB        17.0480   38.2030   66.3600 C.3   155  PHE155      0.0534
    119  CG        17.3700   36.7740   66.7140 C.ar  155  PHE155     -0.0203
    120  CD1       17.1260   35.7580   65.8150 C.ar  155  PHE155     -0.0042
    121  CD2       17.8810   36.4490   67.9760 C.ar  155  PHE155     -0.0042
    122  CE1       17.3810   34.4260   66.1650 C.ar  155  PHE155     -0.0003
    123  CE2       18.1380   35.1350   68.3320 C.ar  155  PHE155     -0.0003
    124  CZ        17.8860   34.1230   67.4240 C.ar  155  PHE155     -0.0000
    125  N         22.9320   42.2970   73.7400 N.3   188  THR188     -0.1218
    126  CA        23.7400   42.2810   72.5280 C.3   188  THR188      0.1862
    127  C         24.9240   43.2200   72.7060 C.2   188  THR188      0.2287
    128  O         26.0100   42.9820   72.1810 O.2   188  THR188     -0.2866
    129  CB        22.9950   42.7370   71.3290 C.3   188  THR188      0.1770
    130  OG1       21.9640   41.7950   71.0080 O.3   188  THR188     -0.2211
    131  CG2       23.9380   42.8510   70.1890 C.3   188  THR188      0.0375
    132  N         27.1700   41.2350   74.9370 N.3   191  ASP191     -0.1225
    133  CA        27.9420   40.2160   74.2490 C.3   191  ASP191      0.1805
    134  C         29.0810   40.8440   73.5350 C.2   191  ASP191      0.2597
    135  O         30.2050   40.3700   73.6480 O.2   191  ASP191     -0.2718
    136  CB        27.1420   39.4300   73.2170 C.3   191  ASP191      0.1424
    137  CG        27.9740   38.2770   72.5850 C.2   191  ASP191      0.3668
    138  OD1       28.5670   37.5000   73.3780 O.co2 191  ASP191     -0.2456
    139  OD2       28.0460   38.1430   71.3230 O.co2 191  ASP191     -0.2456
    140  N         28.7790   41.9050   72.7910 N.am  192  ASP192     -0.1974
    141  CA        29.7750   42.6580   72.0330 C.3   192  ASP192      0.1709
    142  C         30.9980   43.1570   72.8370 C.2   192  ASP192      0.2293
    143  O         32.1140   43.1040   72.3420 O.2   192  ASP192     -0.2864
    144  CB        29.0930   43.8370   71.3640 C.3   192  ASP192      0.1436
    145  CG        29.8770   44.3720   70.1880 C.2   192  ASP192      0.3671
    146  OD1       29.3930   44.3610   69.0270 O.co2 192  ASP192     -0.2456
    147  OD2       31.0030   44.8110   70.4370 O.co2 192  ASP192     -0.2456
@<TRIPOS>BOND
     1    81    80    2
     2    80    79    1
     3    82    79    1
     4    82    83    1
     5    79    78    1
     6    96    95    2
     7    95    94    1
     8    86    87    2
     9    86    85    1
    10    78    72   am
    11    57    56    2
    12    97    94    1
    13    97    98    1
    14    94    93    1
    15    58    55    1
    16    58    59    1
    17    84    85    1
    18    55    56    1
    19    55    54    1
    20    60    59    1
    21    60    61    1
    22    85    88    1
    23    56    62   am
    24    72    73    2
    25    72    71    1
    26    88    89    1
    27    36    35    1
    28    70    71    1
    29    98    99    1
    30    89    90    1
    31    71    74    1
    32    37    35    1
    33    99   100    1
    34    35    34    1
    35    65    64    2
    36    62    63    1
    37    64    63    1
    38    63    66    1
    39    74    75    1
    40    33    32    2
    41   100   101    1
    42    68    67   ar
    43    90    92   am
    44    90    91    2
    45    77    75    1
    46    75    76    1
    47    34    31    1
    48    32    31    1
    49    32    38   am
    50    31    30    1
    51    66    67    1
    52    67    69   ar
    53    41    40    2
    54    49    48    2
    55    44    43   ar
    56    48    47    1
    57    39    38    1
    58    39    40    1
    59    39    42    1
    60    20    19    1
    61    40    46   am
    62    19    18    1
    63    43    42    1
    64    43    45   ar
    65    46    47    1
    66    47    50    1
    67   109   111   ar
    68   109   107   ar
    69   102   103    1
    70   106   103    1
    71   106   107    1
    72    16    15    2
    73   111   112   ar
    74   103   104    1
    75    18    17    1
    76   107   108   ar
    77    50    51    1
    78    14    17    1
    79    14    15    1
    80    14    13    1
    81    15    21   am
    82    24    23    2
    83   112   113    1
    84   112   110   ar
    85   108   110   ar
    86   120   122   ar
    87   120   119   ar
    88   114   115    1
    89    23    22    1
    90   104   105    2
    91    51    52   ar
    92    51    53   ar
    93   122   124   ar
    94   115   118    1
    95   115   116    1
    96   118   119    1
    97    21    22    1
    98    22    25    1
    99   119   121   ar
   100   117   116    2
   101   124   123   ar
   102   121   123   ar
   103    25    26    1
   104    29    28    1
   105    27    26    1
   106    27    28    1
   107   146   145   ar
   108   145   147   ar
   109   145   144    1
   110   131   129    1
   111    12    11    1
   112     9    11   ar
   113     9     7   ar
   114   130   129    1
   115    11    10   ar
   116   139   137   ar
   117   129   126    1
   118   144   141    1
   119     7     6   ar
   120   141   140    1
   121   141   142    1
   122   128   127    2
   123   143   142    2
   124    10     8   ar
   125   126   127    1
   126   126   125    1
   127   137   136    1
   128   137   138   ar
   129   140   134   am
   130     6     8   ar
   131     6     5    1
   132   136   133    1
   133   134   135    2
   134   134   133    1
   135     5     2    1
   136   133   132    1
   137     2     3    1
   138     2     1    1
   139     4     3    2
