@<TRIPOS>MOLECULE
tmp/5b0mH02.pdb
 222 212 0 0 0
SMALL
GASTEIGER

@<TRIPOS>ATOM
      1  N         11.6830   17.7310  105.5210 N.3     2  ASP2       -0.1225
      2  CA        13.1440   17.9030  105.6910 C.3     2  ASP2        0.1805
      3  C         13.8000   18.1560  104.3580 C.2     2  ASP2        0.2597
      4  O         14.9950   17.9080  104.1650 O.2     2  ASP2       -0.2718
      5  CB        13.7670   16.6700  106.3090 C.3     2  ASP2        0.1424
      6  CG        13.3690   16.5040  107.7290 C.2     2  ASP2        0.3668
      7  OD1       13.8390   17.3230  108.5550 O.co2   2  ASP2       -0.2456
      8  OD2       12.5730   15.5790  108.0080 O.co2   2  ASP2       -0.2456
      9  N         12.9510   18.5890  103.4350 N.am    3  ASP3       -0.1974
     10  CA        13.3300   18.9760  102.1080 C.3     3  ASP3        0.1709
     11  C         13.5320   20.4530  102.3720 C.2     3  ASP3        0.2293
     12  O         14.3790   21.0870  101.7620 O.2     3  ASP3       -0.2864
     13  CB        12.1810   18.7240  101.1420 C.3     3  ASP3        0.1436
     14  CG        12.0310   17.2590  100.8190 C.2     3  ASP3        0.3671
     15  OD1       12.4510   16.4460  101.6740 O.co2   3  ASP3       -0.2456
     16  OD2       11.5030   16.9170   99.7310 O.co2   3  ASP3       -0.2456
     17  N         14.6540   21.6660  105.1290 N.3     5  LYS5       -0.1231
     18  CA        15.9530   21.6780  105.7860 C.3     5  LYS5        0.1693
     19  C         17.0510   21.7320  104.7510 C.2     5  LYS5        0.2591
     20  O         17.9160   22.6040  104.7820 O.2     5  LYS5       -0.2718
     21  CB        16.1200   20.4050  106.6160 C.3     5  LYS5        0.0285
     22  CG        15.7290   20.5480  108.0660 C.3     5  LYS5        0.0035
     23  CD        16.8290   21.1940  108.8700 C.3     5  LYS5        0.0206
     24  CE        17.9710   20.2170  109.1490 C.3     5  LYS5        0.1093
     25  NZ        19.0250   20.8240  110.0220 N.3     5  LYS5       -0.1314
     26  N         16.9980   20.7670  103.8360 N.am    6  MET6       -0.1979
     27  CA        17.9650   20.6330  102.7580 C.3     6  MET6        0.1605
     28  C         17.8590   21.7830  101.8070 C.2     6  MET6        0.2287
     29  O         18.7410   22.6340  101.7300 O.2     6  MET6       -0.2864
     30  CB        17.7040   19.3530  102.0100 C.3     6  MET6        0.0413
     31  CG        18.1270   19.3730  100.5910 C.3     6  MET6        0.0598
     32  SD        18.5160   17.6890  100.1600 S.3     6  MET6       -0.1393
     33  CE        16.9640   16.6520  100.7840 C.3     6  MET6        0.0692
     34  N         23.4110   27.2630   89.1320 N.3    36  ALA36      -0.1231
     35  CA        22.7860   26.0990   88.5780 C.3    36  ALA36       0.1694
     36  C         23.3740   24.7500   89.0250 C.2    36  ALA36       0.2592
     37  O         22.7560   23.7360   88.7690 O.2    36  ALA36      -0.2718
     38  CB        22.7890   26.2240   87.0640 C.3    36  ALA36       0.0304
     39  N         24.5430   24.7210   89.6750 N.am   37  LEU37      -0.1966
     40  CA        25.1350   23.4510   90.1410 C.3    37  LEU37       0.1728
     41  C         24.4500   22.9760   91.4450 C.2    37  LEU37       0.2616
     42  O         24.9990   23.1240   92.5440 O.2    37  LEU37      -0.2715
     43  CB        26.6260   23.6160   90.4220 C.3    37  LEU37       0.0311
     44  CG        27.6230   24.1930   89.4380 C.3    37  LEU37       0.0022
     45  CD1       28.7240   24.9260   90.2010 C.3    37  LEU37       0.0001
     46  CD2       28.1960   23.0820   88.6290 C.3    37  LEU37       0.0001
     47  N         23.2670   22.3810   91.3260 N.am   38  ARG38      -0.1963
     48  CA        22.5340   21.9570   92.5060 C.3    38  ARG38       0.1729
     49  C         23.1280   20.8280   93.3330 C.2    38  ARG38       0.2616
     50  O         23.2890   20.9630   94.5580 O.2    38  ARG38      -0.2715
     51  CB        21.0940   21.6330   92.1260 C.3    38  ARG38       0.0348
     52  CG        20.3290   22.8950   91.8050 C.3    38  ARG38       0.0492
     53  CD        18.9080   22.6510   91.3190 C.3    38  ARG38       0.2205
     54  NE        17.9390   22.7840   92.3980 N.pl3  38  ARG38      -0.0865
     55  CZ        17.4150   21.7540   93.0500 C.cat  38  ARG38       0.5346
     56  NH1       16.5340   21.9680   94.0370 N.pl3  38  ARG38       0.1354
     57  NH2       17.7670   20.5090   92.6940 N.pl3  38  ARG38       0.1354
     58  N         23.4700   19.7200   92.6900 N.am   39  LEU39      -0.1963
     59  CA        24.0010   18.6190   93.4530 C.3    39  LEU39       0.1728
     60  C         25.1860   19.1060   94.2250 C.2    39  LEU39       0.2616
     61  O         25.3590   18.7970   95.4040 O.2    39  LEU39      -0.2715
     62  CB        24.4510   17.5320   92.5370 C.3    39  LEU39       0.0311
     63  CG        24.5970   16.2100   93.2630 C.3    39  LEU39       0.0022
     64  CD1       23.2110   15.4640   93.2730 C.3    39  LEU39       0.0001
     65  CD2       25.7320   15.4180   92.5570 C.3    39  LEU39       0.0001
     66  N         26.0140   19.8810   93.5430 N.am   40  TYR40      -0.1974
     67  CA        27.1970   20.4260   94.1720 C.3    40  TYR40       0.1639
     68  C         26.8820   21.3600   95.3270 C.2    40  TYR40       0.2290
     69  O         27.5750   21.3550   96.3330 O.2    40  TYR40      -0.2864
     70  CB        28.0340   21.1380   93.1350 C.3    40  TYR40       0.0560
     71  CG        28.5180   20.1970   92.0760 C.ar   40  TYR40      -0.0198
     72  CD1       29.1370   18.9980   92.4190 C.ar   40  TYR40      -0.0009
     73  CD2       28.3670   20.4980   90.7380 C.ar   40  TYR40      -0.0009
     74  CE1       29.5900   18.1270   91.4630 C.ar   40  TYR40       0.0417
     75  CE2       28.8240   19.6310   89.7650 C.ar   40  TYR40       0.0417
     76  CZ        29.4320   18.4470   90.1360 C.ar   40  TYR40       0.1957
     77  OH        29.8700   17.5820   89.1600 O.3    40  TYR40      -0.2866
     78  N         24.1070   21.1990   97.0230 N.3    42  ARG42      -0.1245
     79  CA        23.3320   20.4310   97.9860 C.3    42  ARG42       0.1563
     80  C         24.1490   19.3870   98.7850 C.2    42  ARG42       0.2260
     81  O         23.9470   19.2520   99.9950 O.2    42  ARG42      -0.2867
     82  CB        22.1930   19.7230   97.2760 C.3    42  ARG42       0.0307
     83  CG        21.3210   18.9320   98.2210 C.3    42  ARG42       0.0489
     84  CD        20.5240   17.8560   97.4930 C.3    42  ARG42       0.2205
     85  NE        19.8280   18.3050   96.2740 N.pl3  42  ARG42      -0.0865
     86  CZ        18.7330   19.0580   96.2650 C.cat  42  ARG42       0.5346
     87  NH1       18.1770   19.4120   95.1230 N.pl3  42  ARG42       0.1354
     88  NH2       18.1940   19.4550   97.4080 N.pl3  42  ARG42       0.1354
     89  N         25.2580   19.5650  102.3910 N.3    45  HIS45      -0.1226
     90  CA        24.2280   19.3590  103.3900 C.3    45  HIS45       0.1752
     91  C         24.3140   17.9580  103.9790 C.2    45  HIS45       0.2596
     92  O         24.2370   17.7860  105.1930 O.2    45  HIS45      -0.2718
     93  CB        22.8450   19.5480  102.7890 C.3    45  HIS45       0.0759
     94  CG        21.7720   19.5600  103.8140 C.ar   45  HIS45       0.0818
     95  ND1       21.7540   20.4820  104.8400 N.ar   45  HIS45      -0.2268
     96  CD2       20.7500   18.7060  104.0460 C.ar   45  HIS45       0.1154
     97  CE1       20.7670   20.1860  105.6660 C.ar   45  HIS45       0.1986
     98  NE2       20.1440   19.1140  105.2060 N.ar   45  HIS45      -0.2212
     99  N         24.4580   16.9600  103.1140 N.am   46  PHE46      -0.1976
    100  CA        24.5720   15.5970  103.5850 C.3    46  PHE46       0.1639
    101  C         25.8870   15.3760  104.3730 C.2    46  PHE46       0.2290
    102  O         25.9010   14.8150  105.4770 O.2    46  PHE46      -0.2864
    103  CB        24.4810   14.6530  102.4030 C.3    46  PHE46       0.0560
    104  CG        23.2470   14.8290  101.5990 C.ar   46  PHE46      -0.0200
    105  CD1       22.0100   14.9430  102.2220 C.ar   46  PHE46      -0.0042
    106  CD2       23.3060   14.8670  100.2090 C.ar   46  PHE46      -0.0042
    107  CE1       20.8400   15.0920  101.4780 C.ar   46  PHE46      -0.0003
    108  CE2       22.1510   15.0150   99.4480 C.ar   46  PHE46      -0.0003
    109  CZ        20.9120   15.1290  100.0850 C.ar   46  PHE46      -0.0000
    110  N         25.6150   16.2930  108.2610 N.3    49  GLU49      -0.1245
    111  CA        24.5000   15.8260  109.0810 C.3    49  GLU49       0.1567
    112  C         24.9330   15.5520  110.5170 C.2    49  GLU49       0.2260
    113  O         24.2210   15.8690  111.4650 O.2    49  GLU49      -0.2867
    114  CB        23.9090   14.5510  108.4590 C.3    49  GLU49       0.0388
    115  CG        22.7210   13.9580  109.1920 C.3    49  GLU49       0.1160
    116  CD        21.4170   14.7660  109.0640 C.2    49  GLU49       0.3649
    117  OE1       20.4500   14.4510  109.7950 O.co2  49  GLU49      -0.2457
    118  OE2       21.3400   15.7030  108.2460 O.co2  49  GLU49      -0.2457
    119  N         25.9600    8.4980   93.0220 N.3   186  ILE186     -0.1245
    120  CA        25.6570    9.7690   92.3540 C.3   186  ILE186      0.1561
    121  C         26.2120    9.6500   90.9320 C.2   186  ILE186      0.2260
    122  O         25.5720   10.0810   89.9790 O.2   186  ILE186     -0.2867
    123  CB        26.3650   10.9730   93.0980 C.3   186  ILE186      0.0252
    124  CG1       25.3480   11.8950   93.7410 C.3   186  ILE186      0.0019
    125  CG2       27.1800   11.8130   92.1360 C.3   186  ILE186      0.0019
    126  CD1       24.4390   11.2190   94.6590 C.3   186  ILE186      0.0001
    127  N         24.2590    7.1620   88.5970 N.3   189  ALA189     -0.1231
    128  CA        23.0040    7.8630   88.2680 C.3   189  ALA189      0.1694
    129  C         23.3350    8.8370   87.1540 C.2   189  ALA189      0.2592
    130  O         22.6670    8.8790   86.1530 O.2   189  ALA189     -0.2718
    131  CB        22.4380    8.6250   89.4910 C.3   189  ALA189      0.0304
    132  N         24.3860    9.6160   87.3290 N.am  190  ASP190     -0.1974
    133  CA        24.7890   10.5450   86.3030 C.3   190  ASP190      0.1709
    134  C         24.9800    9.8490   84.9630 C.2   190  ASP190      0.2293
    135  O         24.3610   10.2470   83.9950 O.2   190  ASP190     -0.2864
    136  CB        26.0820   11.2460   86.6880 C.3   190  ASP190      0.1436
    137  CG        25.9210   12.7520   86.7370 C.2   190  ASP190      0.3671
    138  OD1       25.2820   13.2430   87.7170 O.co2 190  ASP190     -0.2456
    139  OD2       26.4120   13.4410   85.7900 O.co2 190  ASP190     -0.2456
    140  N         21.8380    8.5310   83.2160 N.3   193  THR193     -0.1218
    141  CA        21.0070    9.6710   82.8590 C.3   193  THR193      0.1862
    142  C         21.5550   10.3880   81.6250 C.2   193  THR193      0.2287
    143  O         20.8170   10.6420   80.6620 O.2   193  THR193     -0.2866
    144  CB        20.9240   10.6270   84.0930 C.3   193  THR193      0.1770
    145  OG1       19.8270   10.2240   84.9030 O.3   193  THR193     -0.2211
    146  CG2       20.7900   12.1010   83.7260 C.3   193  THR193      0.0375
    147  N         20.3530   12.4330   78.0770 N.3   197  ARG197     -0.1245
    148  CA        20.4890   13.8910   78.1890 C.3   197  ARG197      0.1563
    149  C         21.5210   14.4950   77.2530 C.2   197  ARG197      0.2260
    150  O         21.3630   15.6480   76.8500 O.2   197  ARG197     -0.2867
    151  CB        20.8450   14.3040   79.6190 C.3   197  ARG197      0.0307
    152  CG        20.3280   15.6830   79.9730 C.3   197  ARG197      0.0489
    153  CD        20.5510   16.0590   81.4480 C.3   197  ARG197      0.2205
    154  NE        21.7480   16.8860   81.6430 N.pl3 197  ARG197     -0.0865
    155  CZ        22.0430   17.5690   82.7550 C.cat 197  ARG197      0.5346
    156  NH1       23.1700   18.2840   82.8060 N.pl3 197  ARG197      0.1354
    157  NH2       21.2220   17.5510   83.8140 N.pl3 197  ARG197      0.1354
    158  N         19.5650   10.4300  110.0390 N.3   242  GLY242     -0.1210
    159  CA        18.9390   11.3610  109.1050 C.3   242  GLY242      0.1956
    160  C         19.2580   11.1200  107.6320 C.2   242  GLY242      0.2611
    161  O         18.4460   11.4220  106.7410 O.2   242  GLY242     -0.2717
    162  N         20.4520   10.5700  107.3970 N.am  243  LEU243     -0.1979
    163  CA        20.9760   10.2620  106.0730 C.3   243  LEU243      0.1596
    164  C         20.4940    8.9300  105.5300 C.2   243  LEU243      0.2287
    165  O         20.7930    8.5630  104.3710 O.2   243  LEU243     -0.2864
    166  CB        22.5020   10.2670  106.1090 C.3   243  LEU243      0.0297
    167  CG        23.1310   11.6340  105.8630 C.3   243  LEU243      0.0022
    168  CD1       24.6350   11.5900  106.0700 C.3   243  LEU243      0.0001
    169  CD2       22.7930   12.0570  104.4330 C.3   243  LEU243      0.0001
    170  N         17.2360    7.8160  104.8140 N.3   245  PRO245     -0.2102
    171  CA        16.2780    7.8720  103.7010 C.3   245  PRO245      0.1504
    172  C         16.9890    8.4610  102.4780 C.2   245  PRO245      0.2575
    173  O         16.6550    8.1350  101.3470 O.2   245  PRO245     -0.2718
    174  CB        15.1710    8.7610  104.2450 C.3   245  PRO245      0.0282
    175  CG        15.9280    9.7040  105.1640 C.3   245  PRO245      0.0208
    176  CD        16.9050    8.8020  105.8640 C.3   245  PRO245      0.0893
    177  N         17.9840    9.3150  102.7090 N.am  246  VAL246     -0.1980
    178  CA        18.7210    9.8780  101.6080 C.3   246  VAL246      0.1595
    179  C         19.3780    8.7570  100.8300 C.2   246  VAL246      0.2287
    180  O         19.0890    8.5820   99.6480 O.2   246  VAL246     -0.2864
    181  CB        19.8350   10.8260  102.0540 C.3   246  VAL246      0.0276
    182  CG1       20.5700   11.3660  100.8290 C.3   246  VAL246      0.0022
    183  CG2       19.2660   11.9650  102.8520 C.3   246  VAL246      0.0022
    184  N         16.9300    6.8020   98.9370 N.3   249  LEU249     -0.1231
    185  CA        16.2810    7.5930   97.8800 C.3   249  LEU249      0.1693
    186  C         17.1110    7.5450   96.6080 C.2   249  LEU249      0.2592
    187  O         16.6340    7.1290   95.5500 O.2   249  LEU249     -0.2718
    188  CB        16.1320    9.0450   98.3550 C.3   249  LEU249      0.0284
    189  CG        15.2780   10.0540   97.5910 C.3   249  LEU249      0.0019
    190  CD1       15.1700   11.3000   98.4360 C.3   249  LEU249      0.0001
    191  CD2       15.8970   10.3650   96.2370 C.3   249  LEU249      0.0001
    192  N         18.3690    7.9460   96.7370 N.am  250  TYR250     -0.1976
    193  CA        19.2650    7.9520   95.6030 C.3   250  TYR250      0.1639
    194  C         19.4530    6.5840   95.0090 C.2   250  TYR250      0.2290
    195  O         19.2440    6.4070   93.8200 O.2   250  TYR250     -0.2864
    196  CB        20.6060    8.5920   95.9840 C.3   250  TYR250      0.0560
    197  CG        20.4890   10.1010   96.1310 C.ar  250  TYR250     -0.0198
    198  CD1       20.5970   10.9350   95.0250 C.ar  250  TYR250     -0.0009
    199  CD2       20.2030   10.6920   97.3640 C.ar  250  TYR250     -0.0009
    200  CE1       20.4200   12.3340   95.1310 C.ar  250  TYR250      0.0417
    201  CE2       20.0270   12.0910   97.4760 C.ar  250  TYR250      0.0417
    202  CZ        20.1350   12.9050   96.3500 C.ar  250  TYR250      0.1957
    203  OH        19.9220   14.2680   96.4300 O.3   250  TYR250     -0.2866
    204  N         16.3300    5.3600   93.3650 N.3   253  ASP253     -0.1239
    205  CA        15.9390    6.0770   92.1680 C.3   253  ASP253      0.1674
    206  C         16.7090    5.5420   90.9760 C.2   253  ASP253      0.2266
    207  O         16.2150    5.6280   89.8630 O.2   253  ASP253     -0.2867
    208  CB        16.1990    7.5710   92.2610 C.3   253  ASP253      0.1410
    209  CG        15.3900    8.3670   91.2280 C.2   253  ASP253      0.3668
    210  OD1       14.1420    8.2880   91.2820 O.co2 253  ASP253     -0.2456
    211  OD2       15.9860    9.0650   90.3770 O.co2 253  ASP253     -0.2456
    212  N         14.0370    4.1680   88.4700 N.3   257  ARG257     -0.1245
    213  CA        13.8670    5.1050   87.3550 C.3   257  ARG257      0.1563
    214  C         14.8690    5.0170   86.1750 C.2   257  ARG257      0.2260
    215  O         14.4570    5.0890   85.0140 O.2   257  ARG257     -0.2867
    216  CB        13.8460    6.5370   87.9210 C.3   257  ARG257      0.0307
    217  CG        13.7890    7.6420   86.8610 C.3   257  ARG257      0.0489
    218  CD        13.5850    9.0510   87.4630 C.3   257  ARG257      0.2205
    219  NE        14.7950    9.6940   88.0070 N.pl3 257  ARG257     -0.0865
    220  CZ        15.7640   10.2650   87.2790 C.cat 257  ARG257      0.5346
    221  NH1       15.6950   10.2830   85.9440 N.pl3 257  ARG257      0.1354
    222  NH2       16.7990   10.8470   87.8930 N.pl3 257  ARG257      0.1354
@<TRIPOS>BOND
     1   150   149    2
     2   149   148    1
     3   147   148    1
     4   148   151    1
     5   151   152    1
     6   152   153    1
     7   143   142    2
     8   153   154    1
     9   142   141    1
    10   154   155    2
    11   155   156    1
    12   155   157    1
    13   141   140    1
    14   141   144    1
    15   146   144    1
    16   135   134    2
    17   144   145    1
    18   134   133    1
    19   215   214    2
    20   139   137   ar
    21   221   220    1
    22   130   129    2
    23   214   213    1
    24   133   136    1
    25   133   132    1
    26   136   137    1
    27   137   138   ar
    28   217   218    1
    29   217   216    1
    30    38    35    1
    31   129   132   am
    32   129   128    1
    33   220   222    1
    34   220   219    2
    35   213   216    1
    36   213   212    1
    37   218   219    1
    38   128   127    1
    39   128   131    1
    40    35    36    1
    41    35    34    1
    42    46    44    1
    43    37    36    2
    44    36    39   am
    45    77    76    1
    46    44    45    1
    47    44    43    1
    48    39    40    1
    49    75    76   ar
    50    75    73   ar
    51   207   206    2
    52   122   121    2
    53    76    74   ar
    54    40    43    1
    55    40    41    1
    56   211   209   ar
    57    73    71   ar
    58   121   120    1
    59   206   205    1
    60   209   210   ar
    61   209   208    1
    62    53    52    1
    63    53    54    1
    64    47    41   am
    65    47    48    1
    66    41    42    2
    67    74    72   ar
    68    52    51    1
    69    71    72   ar
    70    71    70    1
    71    51    48    1
    72   125   123    1
    73   205   208    1
    74   205   204    1
    75   120   119    1
    76   120   123    1
    77    54    55    2
    78    48    49    1
    79    62    63    1
    80    62    59    1
    81    65    63    1
    82    58    49   am
    83    58    59    1
    84    57    55    1
    85    55    56    1
    86   123   124    1
    87    70    67    1
    88    63    64    1
    89    49    50    2
    90    59    60    1
    91    66    67    1
    92    66    60   am
    93   124   126    1
    94   195   194    2
    95    67    68    1
    96    60    61    2
    97   194   193    1
    98   198   200   ar
    99   198   197   ar
   100    87    86    1
   101   200   202   ar
   102    68    69    2
   103   187   186    2
   104   193   196    1
   105   193   192    1
   106   196   197    1
   107   197   199   ar
   108   191   189    1
   109    86    85    2
   110    86    88    1
   111    85    84    1
   112   202   203    1
   113   202   201   ar
   114   186   192   am
   115   186   185    1
   116    78    79    1
   117    82    79    1
   118    82    83    1
   119   199   201   ar
   120    84    83    1
   121   189   188    1
   122   189   190    1
   123   185   188    1
   124   185   184    1
   125    79    80    1
   126    80    81    2
   127   108   109   ar
   128   108   106   ar
   129   180   179    2
   130    16    14   ar
   131   109   107   ar
   132    32    31    1
   133    32    33    1
   134   106   104   ar
   135    31    30    1
   136    14    13    1
   137    14    15   ar
   138   182   181    1
   139   179   178    1
   140    13    10    1
   141   173   172    2
   142   107   105   ar
   143   104   105   ar
   144   104   103    1
   145   178   181    1
   146   178   177    1
   147    29    28    2
   148    12    11    2
   149    28    27    1
   150    30    27    1
   151   181   183    1
   152    10    11    1
   153    10     9    1
   154    89    90    1
   155   103   100    1
   156   172   177   am
   157   172   171    1
   158    27    26    1
   159    93    90    1
   160    93    94    1
   161    99   100    1
   162    99    91   am
   163    90    91    1
   164     9     3   am
   165   100   101    1
   166   171   174    1
   167   171   170    1
   168    94    96   ar
   169    94    95   ar
   170    26    19   am
   171    91    92    2
   172    96    98   ar
   173     4     3    2
   174   174   175    1
   175     3     2    1
   176   165   164    2
   177   101   102    2
   178   169   167    1
   179    19    20    2
   180    19    18    1
   181   170   176    1
   182    95    97   ar
   183    17    18    1
   184   175   176    1
   185    98    97   ar
   186     1     2    1
   187   164   163    1
   188     2     5    1
   189    18    21    1
   190   167   168    1
   191   167   166    1
   192   163   166    1
   193   163   162    1
   194     5     6    1
   195    21    22    1
   196   161   160    2
   197   162   160   am
   198   160   159    1
   199     6     8   ar
   200     6     7   ar
   201    22    23    1
   202   118   116   ar
   203   110   111    1
   204   114   111    1
   205   114   115    1
   206    23    24    1
   207   116   115    1
   208   116   117   ar
   209   111   112    1
   210   159   158    1
   211    24    25    1
   212   112   113    2
