@<TRIPOS>MOLECULE
tmp/5b0mG01.pdb
 124 115 0 0 0
SMALL
GASTEIGER

@<TRIPOS>ATOM
      1  N         72.4180   38.0250   85.3710 N.3     3  ASP3       -0.1239
      2  CA        71.9300   37.7540   86.7240 C.3     3  ASP3        0.1674
      3  C         72.5110   36.4390   87.3460 C.2     3  ASP3        0.2266
      4  O         72.0400   35.9780   88.3850 O.2     3  ASP3       -0.2867
      5  CB        70.3580   37.7430   86.6630 C.3     3  ASP3        0.1410
      6  CG        69.7380   38.7500   85.5720 C.2     3  ASP3        0.3668
      7  OD1       69.8080   39.9990   85.6980 O.co2   3  ASP3       -0.2456
      8  OD2       69.1510   38.2750   84.5730 O.co2   3  ASP3       -0.2456
      9  N         62.5150   30.2470   84.8150 N.3    40  ARG40      -0.1231
     10  CA        63.6060   30.7000   85.6890 C.3    40  ARG40       0.1694
     11  C         63.3860   31.7730   86.7610 C.2    40  ARG40       0.2591
     12  O         63.6620   31.5300   87.9490 O.2    40  ARG40      -0.2718
     13  CB        64.7940   31.0540   84.8110 C.3    40  ARG40       0.0321
     14  CG        65.1590   29.8710   83.9340 C.3    40  ARG40       0.0489
     15  CD        66.4800   30.0730   83.2760 C.3    40  ARG40       0.2205
     16  NE        67.5170   30.2080   84.2840 N.pl3  40  ARG40      -0.0865
     17  CZ        68.7710   30.5610   84.0240 C.cat  40  ARG40       0.5346
     18  NH1       69.1460   30.8100   82.7720 N.pl3  40  ARG40       0.1354
     19  NH2       69.6400   30.6910   85.0200 N.pl3  40  ARG40       0.1354
     20  N         62.8990   32.9510   86.3680 N.am   41  LEU41      -0.1980
     21  CA        62.6680   33.9980   87.3640 C.3    41  LEU41       0.1596
     22  C         61.6830   33.5190   88.4220 C.2    41  LEU41       0.2287
     23  O         61.8900   33.7320   89.6240 O.2    41  LEU41      -0.2864
     24  CB        62.1210   35.2870   86.7480 C.3    41  LEU41       0.0297
     25  CG        62.1440   36.4000   87.7950 C.3    41  LEU41       0.0022
     26  CD1       63.5380   37.0050   87.8020 C.3    41  LEU41       0.0001
     27  CD2       61.1060   37.4500   87.5230 C.3    41  LEU41       0.0001
     28  N         63.3250   31.5210   90.6890 N.3    44  ARG44      -0.1245
     29  CA        64.4040   32.1580   91.4160 C.3    44  ARG44       0.1563
     30  C         63.9920   33.3070   92.3300 C.2    44  ARG44       0.2260
     31  O         64.7130   33.7330   93.2500 O.2    44  ARG44      -0.2867
     32  CB        65.3920   32.6320   90.3820 C.3    44  ARG44       0.0307
     33  CG        66.3430   33.6390   90.8680 C.3    44  ARG44       0.0489
     34  CD        66.8810   34.3650   89.6750 C.3    44  ARG44       0.2205
     35  NE        67.7870   33.5410   88.8810 N.pl3  44  ARG44      -0.0865
     36  CZ        68.3880   33.9760   87.7840 C.cat  44  ARG44       0.5346
     37  NH1       69.2160   33.1770   87.1190 N.pl3  44  ARG44       0.1354
     38  NH2       68.1420   35.2140   87.3550 N.pl3  44  ARG44       0.1354
     39  N         60.7530   44.1590   87.6550 N.3   188  ILE188     -0.1245
     40  CA        60.7330   42.9180   86.8730 C.3   188  ILE188      0.1561
     41  C         59.8220   43.1300   85.6500 C.2   188  ILE188      0.2260
     42  O         60.1910   42.8300   84.5220 O.2   188  ILE188     -0.2867
     43  CB        60.1910   41.7270   87.7730 C.3   188  ILE188      0.0252
     44  CG1       61.3120   41.1620   88.6590 C.3   188  ILE188      0.0019
     45  CG2       59.5230   40.6640   86.9360 C.3   188  ILE188      0.0019
     46  CD1       62.6380   40.9280   87.9640 C.3   188  ILE188      0.0001
     47  N         61.1710   45.7120   82.9600 N.3   191  ALA191     -0.1231
     48  CA        62.2470   45.0210   82.2800 C.3   191  ALA191      0.1694
     49  C         61.6460   44.0720   81.2730 C.2   191  ALA191      0.2592
     50  O         62.0960   43.9720   80.1440 O.2   191  ALA191     -0.2718
     51  CB        63.0790   44.2690   83.2780 C.3   191  ALA191      0.0304
     52  N         60.6000   43.3930   81.6930 N.am  192  ASP192     -0.1974
     53  CA        59.8990   42.4420   80.8530 C.3   192  ASP192      0.1709
     54  C         59.3060   43.1020   79.6110 C.2   192  ASP192      0.2293
     55  O         59.5630   42.6720   78.5010 O.2   192  ASP192     -0.2864
     56  CB        58.7790   41.8230   81.6750 C.3   192  ASP192      0.1436
     57  CG        58.8090   40.3210   81.6700 C.2   192  ASP192      0.3671
     58  OD1       59.7260   39.7410   82.3190 O.co2 192  ASP192     -0.2456
     59  OD2       57.9040   39.7300   81.0150 O.co2 192  ASP192     -0.2456
     60  N         61.5320   44.1570   76.9940 N.3   195  THR195     -0.1203
     61  CA        62.1370   43.0380   76.2940 C.3   195  THR195      0.1994
     62  C         61.2150   42.4290   75.2530 C.2   195  THR195      0.2617
     63  O         61.5860   42.2310   74.0930 O.2   195  THR195     -0.2717
     64  CB        62.4550   41.9460   77.2310 C.3   195  THR195      0.1784
     65  OG1       63.5490   42.3460   78.0610 O.3   195  THR195     -0.2211
     66  CG2       62.7940   40.7020   76.4450 C.3   195  THR195      0.0376
     67  N         60.0270   42.0820   75.7400 N.am  196  ASP196     -0.1973
     68  CA        58.9340   41.5000   74.9770 C.3   196  ASP196      0.1709
     69  C         58.5910   42.3320   73.7590 C.2   196  ASP196      0.2293
     70  O         58.0000   41.8190   72.8300 O.2   196  ASP196     -0.2864
     71  CB        57.6700   41.4120   75.8380 C.3   196  ASP196      0.1436
     72  CG        57.6620   40.2290   76.7530 C.2   196  ASP196      0.3671
     73  OD1       58.7100   39.5570   76.8530 O.co2 196  ASP196     -0.2456
     74  OD2       56.6000   39.9840   77.3750 O.co2 196  ASP196     -0.2456
     75  N         61.4200   40.8270   71.4970 N.3   199  ARG199     -0.1245
     76  CA        61.3310   39.3750   71.4620 C.3   199  ARG199      0.1563
     77  C         60.0930   38.8900   70.6950 C.2   199  ARG199      0.2260
     78  O         60.1810   37.9340   69.9510 O.2   199  ARG199     -0.2867
     79  CB        61.3180   38.8120   72.8790 C.3   199  ARG199      0.0307
     80  CG        62.0940   37.5200   73.0130 C.3   199  ARG199      0.0489
     81  CD        62.2280   37.0270   74.4550 C.3   199  ARG199      0.2205
     82  NE        61.2000   36.0740   74.8620 N.pl3 199  ARG199     -0.0865
     83  CZ        60.1160   36.3930   75.5620 C.cat 199  ARG199      0.5346
     84  NH1       59.9170   37.6510   75.9380 N.pl3 199  ARG199      0.1354
     85  NH2       59.2300   35.4530   75.8930 N.pl3 199  ARG199      0.1354
     86  N         69.2780   44.1890   88.8250 N.3   252  TYR252     -0.1241
     87  CA        68.0670   44.1830   88.0110 C.3   252  TYR252      0.1605
     88  C         67.6070   45.5640   87.5670 C.2   252  TYR252      0.2264
     89  O         66.8250   45.6850   86.6170 O.2   252  TYR252     -0.2867
     90  CB        66.9420   43.5030   88.7600 C.3   252  TYR252      0.0534
     91  CG        67.1090   42.0130   88.8240 C.ar  252  TYR252     -0.0201
     92  CD1       66.7310   41.2050   87.7610 C.ar  252  TYR252     -0.0009
     93  CD2       67.6330   41.4080   89.9550 C.ar  252  TYR252     -0.0009
     94  CE1       66.8640   39.8450   87.8320 C.ar  252  TYR252      0.0417
     95  CE2       67.7730   40.0550   90.0320 C.ar  252  TYR252      0.0417
     96  CZ        67.3890   39.2690   88.9680 C.ar  252  TYR252      0.1957
     97  OH        67.5650   37.8960   89.0510 O.3   252  TYR252     -0.2866
     98  N         70.4050   46.5670   84.8660 N.3   255  ASP255     -0.1239
     99  CA        70.1680   45.8340   83.6230 C.3   255  ASP255      0.1674
    100  C         69.1330   46.5760   82.7550 C.2   255  ASP255      0.2266
    101  O         69.3270   46.7380   81.5590 O.2   255  ASP255     -0.2867
    102  CB        69.7400   44.3730   83.9310 C.3   255  ASP255      0.1410
    103  CG        69.4280   43.5340   82.6530 C.2   255  ASP255      0.3668
    104  OD1       70.3240   43.3310   81.7840 O.co2 255  ASP255     -0.2456
    105  OD2       68.2610   43.0680   82.5420 O.co2 255  ASP255     -0.2456
    106  N         70.9150   47.9290   79.2870 N.3   259  ARG259     -0.1231
    107  CA        70.5250   47.0400   78.1760 C.3   259  ARG259      0.1694
    108  C         69.1840   47.3100   77.4510 C.2   259  ARG259      0.2591
    109  O         69.1370   47.4540   76.2170 O.2   259  ARG259     -0.2718
    110  CB        70.5010   45.6140   78.7310 C.3   259  ARG259      0.0321
    111  CG        71.0830   44.5040   77.8850 C.3   259  ARG259      0.0489
    112  CD        71.1920   43.2460   78.7630 C.3   259  ARG259      0.2205
    113  NE        69.8680   42.7800   79.1700 N.pl3 259  ARG259     -0.0865
    114  CZ        69.0500   42.1160   78.3610 C.cat 259  ARG259      0.5346
    115  NH1       69.4490   41.8390   77.1270 N.pl3 259  ARG259      0.1354
    116  NH2       67.8290   41.7690   78.7620 N.pl3 259  ARG259      0.1354
    117  N         68.1030   47.3950   78.2210 N.am  260  LEU260     -0.1980
    118  CA        66.7720   47.5760   77.6490 C.3   260  LEU260      0.1596
    119  C         66.1890   48.9790   77.5410 C.2   260  LEU260      0.2287
    120  O         65.3690   49.2290   76.6570 O.2   260  LEU260     -0.2864
    121  CB        65.7670   46.7270   78.4190 C.3   260  LEU260      0.0297
    122  CG        66.2850   45.3950   78.9380 C.3   260  LEU260      0.0022
    123  CD1       65.3630   44.9520   80.0290 C.3   260  LEU260      0.0001
    124  CD2       66.3900   44.3720   77.8280 C.3   260  LEU260      0.0001
@<TRIPOS>BOND
     1    78    77    2
     2    77    76    1
     3    76    75    1
     4    76    79    1
     5    70    69    2
     6    79    80    1
     7    80    81    1
     8    69    68    1
     9    63    62    2
    10    81    82    1
    11    82    83    2
    12    68    67    1
    13    68    71    1
    14    62    67   am
    15    62    61    1
    16    83    85    1
    17    83    84    1
    18    71    72    1
    19   109   108    2
    20    61    60    1
    21    61    64    1
    22    66    64    1
    23   120   119    2
    24    72    73   ar
    25    72    74   ar
    26   115   114    1
    27    64    65    1
    28   108   107    1
    29   108   117   am
    30   119   118    1
    31   118   117    1
    32   118   121    1
    33   124   122    1
    34   111   110    1
    35   111   112    1
    36   107   110    1
    37   107   106    1
    38   114   116    1
    39   114   113    2
    40   121   122    1
    41    55    54    2
    42   112   113    1
    43   122   123    1
    44    54    53    1
    45    50    49    2
    46    53    56    1
    47    53    52    1
    48    59    57   ar
    49    49    52   am
    50    49    48    1
    51   101   100    2
    52    57    56    1
    53    57    58   ar
    54   104   103   ar
    55    48    47    1
    56    48    51    1
    57   105   103   ar
    58   103   102    1
    59   100    99    1
    60    18    17    1
    61    15    14    1
    62    15    16    1
    63    99   102    1
    64    99    98    1
    65    14    13    1
    66    17    16    2
    67    17    19    1
    68    42    41    2
    69     8     6   ar
    70    13    10    1
    71     9    10    1
    72     1     2    1
    73     6     7   ar
    74     6     5    1
    75    41    40    1
    76    10    11    1
    77    20    11   am
    78    20    21    1
    79    89    88    2
    80     5     2    1
    81     2     3    1
    82    24    21    1
    83    24    25    1
    84    11    12    2
    85    40    39    1
    86    40    43    1
    87    45    43    1
    88    37    36    1
    89     3     4    2
    90    38    36    1
    91    21    22    1
    92    27    25    1
    93    88    87    1
    94    92    94   ar
    95    92    91   ar
    96    43    44    1
    97    36    35    2
    98    25    26    1
    99    94    96   ar
   100    46    44    1
   101    87    90    1
   102    87    86    1
   103    22    23    2
   104    90    91    1
   105    91    93   ar
   106    35    34    1
   107    96    97    1
   108    96    95   ar
   109    34    33    1
   110    93    95   ar
   111    32    33    1
   112    32    29    1
   113    28    29    1
   114    29    30    1
   115    30    31    2
