@<TRIPOS>MOLECULE
tmp/5b0oB00.pdb
 103 101 0 0 0
SMALL
GASTEIGER

@<TRIPOS>ATOM
      1  N        -22.6270  -40.4480   29.1820 N.3   182  GLY182     -0.1210
      2  CA       -23.5680  -40.9100   30.1800 C.3   182  GLY182      0.1956
      3  C        -23.3900  -42.3980   30.3820 C.2   182  GLY182      0.2613
      4  O        -22.3230  -42.9440   30.0930 O.2   182  GLY182     -0.2717
      5  N        -24.4320  -43.0600   30.8680 N.am  183  SER183     -0.1938
      6  CA       -24.3530  -44.4920   31.1070 C.3   183  SER183      0.2055
      7  C        -24.7760  -45.3140   29.8850 C.2   183  SER183      0.2644
      8  O        -25.8470  -45.0980   29.3200 O.2   183  SER183     -0.2714
      9  CB       -25.1910  -44.8590   32.3260 C.3   183  SER183      0.2130
     10  OG       -24.7540  -44.1210   33.4540 O.3   183  SER183     -0.2179
     11  N        -23.9210  -46.2490   29.4800 N.am  184  GLY184     -0.1939
     12  CA       -24.2450  -47.1810   28.4120 C.3   184  GLY184      0.2014
     13  C        -24.3450  -46.5680   27.0280 C.2   184  GLY184      0.2639
     14  O        -25.0940  -47.0500   26.1780 O.2   184  GLY184     -0.2714
     15  N        -23.5980  -45.4950   26.8100 N.am  185  VAL185     -0.1963
     16  CA       -23.5670  -44.8150   25.5180 C.3   185  VAL185      0.1727
     17  C        -22.3790  -45.2140   24.6240 C.2   185  VAL185      0.2617
     18  O        -22.1410  -44.6100   23.5770 O.2   185  VAL185     -0.2715
     19  CB       -23.6730  -43.2930   25.6910 C.3   185  VAL185      0.0290
     20  CG1      -25.0880  -42.9230   26.1060 C.3   185  VAL185      0.0023
     21  CG2      -22.6760  -42.8090   26.7260 C.3   185  VAL185      0.0023
     22  N        -21.6150  -46.2090   25.0630 N.am  186  GLY186     -0.1940
     23  CA       -20.5000  -46.7160   24.2800 C.3   186  GLY186      0.2014
     24  C        -19.1300  -46.2720   24.7700 C.2   186  GLY186      0.2639
     25  O        -18.1230  -46.4990   24.0940 O.2   186  GLY186     -0.2714
     26  N        -19.0880  -45.6420   25.9430 N.am  187  LYS187     -0.1963
     27  CA       -17.8420  -45.1220   26.4950 C.3   187  LYS187      0.1728
     28  C        -16.7650  -46.1960   26.6060 C.2   187  LYS187      0.2617
     29  O        -15.7370  -46.1270   25.9340 O.2   187  LYS187     -0.2715
     30  CB       -18.0800  -44.5060   27.8720 C.3   187  LYS187      0.0311
     31  CG       -16.8380  -43.8720   28.4770 C.3   187  LYS187      0.0038
     32  CD       -16.9630  -43.7300   29.9770 C.3   187  LYS187      0.0206
     33  CE       -16.9780  -45.0840   30.6610 C.3   187  LYS187      0.1093
     34  NZ       -16.9800  -44.9420   32.1440 N.3   187  LYS187     -0.1314
     35  N        -17.0030  -47.1840   27.4630 N.am  188  SER188     -0.1936
     36  CA       -16.0150  -48.2240   27.7280 C.3   188  SER188      0.2055
     37  C        -15.5100  -48.8740   26.4470 C.2   188  SER188      0.2643
     38  O        -14.3060  -48.9470   26.2130 O.2   188  SER188     -0.2714
     39  CB       -16.6020  -49.2780   28.6590 C.3   188  SER188      0.2130
     40  OG       -17.2510  -48.6590   29.7560 O.3   188  SER188     -0.2179
     41  N        -16.4360  -49.3400   25.6180 N.am  189  VAL189     -0.1963
     42  CA       -16.0860  -49.9630   24.3470 C.3   189  VAL189      0.1727
     43  C        -15.2280  -49.0430   23.4820 C.2   189  VAL189      0.2616
     44  O        -14.2720  -49.4910   22.8460 O.2   189  VAL189     -0.2715
     45  CB       -17.3450  -50.3880   23.5610 C.3   189  VAL189      0.0290
     46  CG1      -16.9890  -50.7280   22.1290 C.3   189  VAL189      0.0023
     47  CG2      -18.0180  -51.5690   24.2360 C.3   189  VAL189      0.0023
     48  N        -15.5710  -47.7580   23.4650 N.am  190  LEU190     -0.1977
     49  CA       -14.8240  -46.7770   22.6810 C.3   190  LEU190      0.1596
     50  C        -13.4090  -46.5910   23.2160 C.2   190  LEU190      0.2287
     51  O        -12.4680  -46.3820   22.4470 O.2   190  LEU190     -0.2864
     52  CB       -15.5440  -45.4280   22.6660 C.3   190  LEU190      0.0297
     53  CG       -14.7270  -44.2910   22.0450 C.3   190  LEU190      0.0022
     54  CD1      -14.4420  -44.5740   20.5820 C.3   190  LEU190      0.0001
     55  CD2      -15.4310  -42.9630   22.2070 C.3   190  LEU190      0.0001
     56  N        -11.4190  -49.3830   22.0040 N.3   193  MET193     -0.1245
     57  CA       -11.0500  -49.1310   20.6170 C.3   193  MET193      0.1570
     58  C         -9.7860  -48.2800   20.5270 C.2   193  MET193      0.2261
     59  O         -8.8410  -48.6360   19.8260 O.2   193  MET193     -0.2867
     60  CB       -12.1990  -48.4720   19.8490 C.3   193  MET193      0.0387
     61  CG       -13.3920  -49.3870   19.6070 C.3   193  MET193      0.0595
     62  SD       -14.6950  -48.6650   18.5770 S.3   193  MET193     -0.1393
     63  CE       -13.8000  -48.2020   17.0950 C.3   193  MET193      0.0692
     64  N        -22.9900  -46.0680   16.3630 N.3   362  TYR362     -0.1228
     65  CA       -21.7950  -46.2990   17.1680 C.3   362  TYR362      0.1721
     66  C        -20.5050  -46.2450   16.3450 C.2   362  TYR362      0.2437
     67  O        -20.4470  -46.7870   15.2430 O.2   362  TYR362     -0.2733
     68  CB       -21.8990  -47.6610   17.8400 C.3   362  TYR362      0.0547
     69  CG       -22.9280  -47.7590   18.9460 C.ar  362  TYR362     -0.0200
     70  CD1      -23.7990  -48.8380   19.0130 C.ar  362  TYR362     -0.0009
     71  CD2      -23.0060  -46.7990   19.9420 C.ar  362  TYR362     -0.0009
     72  CE1      -24.7310  -48.9480   20.0280 C.ar  362  TYR362      0.0417
     73  CE2      -23.9340  -46.9040   20.9620 C.ar  362  TYR362      0.0417
     74  CZ       -24.7930  -47.9790   20.9980 C.ar  362  TYR362      0.1957
     75  OH       -25.7160  -48.0830   22.0110 O.3   362  TYR362     -0.2866
     76  N        -19.4500  -45.6210   16.8950 N.am  363  PRO363     -0.2729
     77  CA       -19.4700  -44.9040   18.1730 C.3   363  PRO363      0.1401
     78  C        -20.4770  -43.7640   18.1740 C.2   363  PRO363      0.2269
     79  O        -20.8040  -43.2290   17.1200 O.2   363  PRO363     -0.2865
     80  CB       -18.0540  -44.3310   18.2750 C.3   363  PRO363      0.0296
     81  CG       -17.2280  -45.2360   17.4600 C.3   363  PRO363      0.0237
     82  CD       -18.1010  -45.6460   16.3090 C.3   363  PRO363      0.0939
     83  N        -18.6240  -47.1430   13.2260 N.3   433  GLN433     -0.1231
     84  CA       -17.4150  -47.9500   13.1150 C.3   433  GLN433      0.1698
     85  C        -17.5260  -49.2530   13.8950 C.2   433  GLN433      0.2593
     86  O        -18.0030  -49.2680   15.0270 O.2   433  GLN433     -0.2718
     87  CB       -16.2120  -47.1420   13.6060 C.3   433  GLN433      0.0381
     88  CG       -14.8710  -47.8480   13.5260 C.3   433  GLN433      0.0905
     89  CD       -13.7200  -46.8860   13.7290 C.2   433  GLN433      0.2608
     90  OE1      -13.8960  -45.6710   13.6460 O.2   433  GLN433     -0.2717
     91  NE2      -12.5350  -47.4210   13.9970 N.am  433  GLN433     -0.0878
     92  N        -17.0870  -50.3460   13.2820 N.am  434  GLY434     -0.1942
     93  CA       -17.0540  -51.6240   13.9630 C.3   434  GLY434      0.2014
     94  C        -16.0660  -51.6250   15.1110 C.2   434  GLY434      0.2638
     95  O        -14.9830  -51.0470   15.0220 O.2   434  GLY434     -0.2714
     96  N        -16.4470  -52.2840   16.1960 N.am  435  ILE435     -0.1977
     97  CA       -15.5860  -52.4300   17.3540 C.3   435  ILE435      0.1596
     98  C        -14.1960  -52.9350   16.9580 C.2   435  ILE435      0.2287
     99  O        -13.1880  -52.4600   17.4720 O.2   435  ILE435     -0.2864
    100  CB       -16.2360  -53.3690   18.3870 C.3   435  ILE435      0.0276
    101  CG1      -17.5940  -52.8000   18.8180 C.3   435  ILE435      0.0022
    102  CG2      -15.3180  -53.5880   19.5800 C.3   435  ILE435      0.0022
    103  CD1      -18.2710  -53.5560   19.9510 C.3   435  ILE435      0.0001
@<TRIPOS>BOND
     1    84    83    1
     2    84    87    1
     3    84    85    1
     4    92    85   am
     5    92    93    1
     6    88    87    1
     7    88    89    1
     8    90    89    2
     9    89    91   am
    10    85    86    2
    11    93    94    1
    12    95    94    2
    13    94    96   am
    14    67    66    2
    15    96    97    1
    16    82    76    1
    17    82    81    1
    18    66    76   am
    19    66    65    1
    20    64    65    1
    21    76    77    1
    22    98    97    1
    23    98    99    2
    24    63    62    1
    25    79    78    2
    26    65    68    1
    27    97   100    1
    28    81    80    1
    29    68    69    1
    30    77    78    1
    31    77    80    1
    32   100   101    1
    33   100   102    1
    34    62    61    1
    35   101   103    1
    36    69    70   ar
    37    69    71   ar
    38    70    72   ar
    39    61    60    1
    40    59    58    2
    41    60    57    1
    42    71    73   ar
    43    72    74   ar
    44    58    57    1
    45    54    53    1
    46    57    56    1
    47    73    74   ar
    48    74    75    1
    49    53    55    1
    50    53    52    1
    51    46    45    1
    52    51    50    2
    53    52    49    1
    54    49    50    1
    55    49    48    1
    56    44    43    2
    57    48    43   am
    58    43    42    1
    59    45    47    1
    60    45    42    1
    61    18    17    2
    62    25    24    2
    63    23    24    1
    64    23    22    1
    65    42    41    1
    66    17    22   am
    67    17    16    1
    68    24    26   am
    69    16    19    1
    70    16    15    1
    71    41    37   am
    72    19    20    1
    73    19    21    1
    74    29    28    2
    75    26    27    1
    76    14    13    2
    77    38    37    2
    78    37    36    1
    79    27    28    1
    80    27    30    1
    81    28    35   am
    82    15    13   am
    83    13    12    1
    84    35    36    1
    85    36    39    1
    86    30    31    1
    87    12    11    1
    88    31    32    1
    89    39    40    1
    90     1     2    1
    91     8     7    2
    92    11     7   am
    93     7     6    1
    94    32    33    1
    95     4     3    2
    96     2     3    1
    97     3     5   am
    98    33    34    1
    99     5     6    1
   100     6     9    1
   101     9    10    1
