@<TRIPOS>MOLECULE
tmp/5b0pB01.pdb
 85 82 0 0 0
SMALL
GASTEIGER

@<TRIPOS>ATOM
      1  N        -45.7270   -1.9550    5.1190 N.3   147  ILE147     -0.1231
      2  CA       -44.9850   -2.2230    3.8930 C.3   147  ILE147      0.1692
      3  C        -43.6130   -2.8350    4.3250 C.2   147  ILE147      0.2593
      4  O        -42.7580   -2.1730    4.9370 O.2   147  ILE147     -0.2718
      5  CB       -44.8160   -1.0370    2.9550 C.3   147  ILE147      0.0266
      6  CG1      -46.2040   -0.4530    2.5860 C.3   147  ILE147      0.0019
      7  CG2      -44.1820   -1.4940    1.6360 C.3   147  ILE147      0.0020
      8  CD1      -46.1520    0.8460    1.8220 C.3   147  ILE147      0.0001
      9  N        -43.4090   -4.1360    3.9930 N.am  148  GLY148     -0.1942
     10  CA       -42.2240   -4.8380    4.5530 C.3   148  GLY148      0.2014
     11  C        -42.2500   -4.7970    6.0260 C.2   148  GLY148      0.2639
     12  O        -43.2690   -5.1650    6.6230 O.2   148  GLY148     -0.2714
     13  N        -41.1780   -4.3180    6.6490 N.am  149  ASP149     -0.1957
     14  CA       -41.0970   -4.2100    8.0740 C.3   149  ASP149      0.1840
     15  C        -41.5660   -2.8500    8.6560 C.2   149  ASP149      0.2622
     16  O        -41.5790   -2.7070    9.8980 O.2   149  ASP149     -0.2715
     17  CB       -39.6260   -4.3680    8.5990 C.3   149  ASP149      0.1450
     18  CG       -39.0860   -5.7850    8.3800 C.2   149  ASP149      0.3671
     19  OD1      -39.8970   -6.7520    8.3760 O.co2 149  ASP149     -0.2456
     20  OD2      -37.8610   -5.8530    8.2400 O.co2 149  ASP149     -0.2456
     21  N        -41.9950   -1.9290    7.8000 N.am  150  THR150     -0.1951
     22  CA       -42.3610   -0.5860    8.3000 C.3   150  THR150      0.1897
     23  C        -43.9140   -0.4270    8.3830 C.2   150  THR150      0.2313
     24  O        -44.6210   -0.6640    7.3960 O.2   150  THR150     -0.2863
     25  CB       -41.7560    0.4690    7.4100 C.3   150  THR150      0.1794
     26  OG1      -40.3180    0.3500    7.4570 O.3   150  THR150     -0.2208
     27  CG2      -42.0800    1.8810    7.9860 C.3   150  THR150      0.0378
     28  N        -46.8610    2.2120    8.7380 N.3   152  HIS152     -0.1241
     29  CA       -47.2610    3.6280    8.4680 C.3   152  HIS152      0.1621
     30  C        -48.5430    3.8960    9.1910 C.2   152  HIS152      0.2264
     31  O        -49.5750    3.2690    8.8880 O.2   152  HIS152     -0.2867
     32  CB       -47.4230    3.8300    6.9750 C.3   152  HIS152      0.0745
     33  CG       -46.2010    3.4540    6.2150 C.ar  152  HIS152      0.0817
     34  ND1      -45.8450    2.1310    6.0060 N.ar  152  HIS152     -0.2268
     35  CD2      -45.1980    4.2020    5.6800 C.ar  152  HIS152      0.1154
     36  CE1      -44.7050    2.0950    5.3130 C.ar  152  HIS152      0.1986
     37  NE2      -44.2810    3.3290    5.1200 N.ar  152  HIS152     -0.2212
     38  N        -41.0500    0.4580   13.1360 N.3   171  LYS171     -0.1245
     39  CA       -40.9010   -0.9980   12.8480 C.3   171  LYS171      0.1561
     40  C        -41.2600   -1.8370   14.0590 C.2   171  LYS171      0.2260
     41  O        -41.4260   -3.0670   13.9170 O.2   171  LYS171     -0.2867
     42  CB       -39.5000   -1.2880   12.3930 C.3   171  LYS171      0.0271
     43  CG       -39.0060   -0.4460   11.2400 C.3   171  LYS171      0.0035
     44  CD       -37.7200   -1.0710   10.6710 C.3   171  LYS171      0.0206
     45  CE       -37.3320   -0.4830    9.3580 C.3   171  LYS171      0.1093
     46  NZ       -36.0040   -0.9240    8.8760 N.3   171  LYS171     -0.1314
     47  N        -45.9450    4.9410   -5.0850 N.3   201  TYR201     -0.1241
     48  CA       -46.8240    4.6020   -3.9980 C.3   201  TYR201      0.1605
     49  C        -48.1430    5.3620   -4.2080 C.2   201  TYR201      0.2264
     50  O        -48.1830    6.3150   -4.9950 O.2   201  TYR201     -0.2867
     51  CB       -46.2690    4.9530   -2.6610 C.3   201  TYR201      0.0534
     52  CG       -44.9920    4.2600   -2.3370 C.ar  201  TYR201     -0.0201
     53  CD1      -45.0050    2.9400   -1.8360 C.ar  201  TYR201     -0.0009
     54  CD2      -43.7400    4.8570   -2.6180 C.ar  201  TYR201     -0.0009
     55  CE1      -43.7840    2.2940   -1.5530 C.ar  201  TYR201      0.0417
     56  CE2      -42.5390    4.1980   -2.3360 C.ar  201  TYR201      0.0417
     57  CZ       -42.5830    2.9340   -1.8120 C.ar  201  TYR201      0.1957
     58  OH       -41.3890    2.2980   -1.5590 O.3   201  TYR201     -0.2866
     59  N        -42.2810    8.5440   -2.2050 N.3   224  ASP224     -0.1225
     60  CA       -41.5520    8.2330   -0.9770 C.3   224  ASP224      0.1805
     61  C        -42.4400    8.0570    0.2330 C.2   224  ASP224      0.2598
     62  O        -41.9290    7.9240    1.3250 O.2   224  ASP224     -0.2718
     63  CB       -40.5150    9.3300   -0.7120 C.3   224  ASP224      0.1424
     64  CG       -41.1310   10.7230   -0.7370 C.2   224  ASP224      0.3668
     65  OD1      -42.4010   10.8590   -0.5970 O.co2 224  ASP224     -0.2456
     66  OD2      -40.3640   11.6680   -0.8210 O.co2 224  ASP224     -0.2456
     67  N        -43.7800    8.1340    0.0620 N.am  225  LEU225     -0.1966
     68  CA       -44.6850    8.1350    1.2520 C.3   225  LEU225      0.1728
     69  C        -44.4210    9.2360    2.2410 C.2   225  LEU225      0.2616
     70  O        -44.6490    9.1020    3.4570 O.2   225  LEU225     -0.2715
     71  CB       -44.7360    6.7480    1.9070 C.3   225  LEU225      0.0311
     72  CG       -45.4470    5.7310    1.0230 C.3   225  LEU225      0.0022
     73  CD1      -45.3470    4.3630    1.6260 C.3   225  LEU225      0.0001
     74  CD2      -46.9210    6.0070    0.7160 C.3   225  LEU225      0.0001
     75  N        -43.9070   10.3500    1.7360 N.am  226  ARG226     -0.1977
     76  CA       -43.8060   11.6030    2.5230 C.3   226  ARG226      0.1597
     77  C        -44.4900   12.8100    1.7950 C.2   226  ARG226      0.2287
     78  O        -45.1240   13.6100    2.4490 O.2   226  ARG226     -0.2864
     79  CB       -42.3630   11.9690    2.7910 C.3   226  ARG226      0.0334
     80  CG       -41.5080   10.9070    3.4480 C.3   226  ARG226      0.0492
     81  CD       -41.9270   10.5720    4.8310 C.3   226  ARG226      0.2205
     82  NE       -41.1220    9.4720    5.3860 N.pl3 226  ARG226     -0.0865
     83  CZ       -41.3400    8.1710    5.2350 C.cat 226  ARG226      0.5346
     84  NH1      -40.5170    7.3290    5.8150 N.pl3 226  ARG226      0.1354
     85  NH2      -42.4220    7.6510    4.6280 N.pl3 226  ARG226      0.1354
@<TRIPOS>BOND
     1    47    48    1
     2    50    49    2
     3    49    48    1
     4    48    51    1
     5    51    52    1
     6    54    52   ar
     7    54    56   ar
     8    52    53   ar
     9    56    57   ar
    10    59    60    1
    11    53    55   ar
    12    57    58    1
    13    57    55   ar
    14    60    63    1
    15    60    61    1
    16    66    64   ar
    17    64    63    1
    18    64    65   ar
    19    67    61   am
    20    67    68    1
    21    61    62    2
    22    74    72    1
    23    72    73    1
    24    72    71    1
    25    68    71    1
    26    68    69    1
    27     7     5    1
    28    75    69   am
    29    75    76    1
    30    77    78    2
    31    77    76    1
    32     8     6    1
    33    69    70    2
    34    76    79    1
    35     6     5    1
    36    79    80    1
    37     5     2    1
    38    80    81    1
    39     2     3    1
    40     2     1    1
    41     9     3   am
    42     9    10    1
    43     3     4    2
    44    10    11    1
    45    85    83    1
    46    81    82    1
    47    37    36   ar
    48    37    35   ar
    49    83    82    2
    50    83    84    1
    51    36    34   ar
    52    35    33   ar
    53    34    33   ar
    54    11    12    2
    55    11    13   am
    56    33    32    1
    57    13    14    1
    58    32    29    1
    59    24    23    2
    60    25    26    1
    61    25    27    1
    62    25    22    1
    63    21    22    1
    64    21    15   am
    65    14    17    1
    66    14    15    1
    67    20    18   ar
    68    22    23    1
    69    19    18   ar
    70    18    17    1
    71    29    28    1
    72    29    30    1
    73    15    16    2
    74    46    45    1
    75    31    30    2
    76    45    44    1
    77    44    43    1
    78    43    42    1
    79    42    39    1
    80    39    38    1
    81    39    40    1
    82    41    40    2
