@<TRIPOS>MOLECULE
tmp/5b0rA00.pdb
 134 126 0 0 0
SMALL
GASTEIGER

@<TRIPOS>ATOM
      1  N        -54.6080   39.7870  -13.4300 N.3    31  ASN31      -0.1240
      2  CA       -53.8620   38.8130  -12.6040 C.3    31  ASN31       0.1653
      3  C        -52.8170   38.0260  -13.3630 C.2    31  ASN31       0.2266
      4  O        -52.7000   36.8120  -13.2820 O.2    31  ASN31      -0.2867
      5  CB       -54.8210   37.8610  -11.8700 C.3    31  ASN31       0.1155
      6  CG       -55.6670   38.5910  -10.8560 C.2    31  ASN31       0.2627
      7  OD1      -55.5280   39.8060  -10.6620 O.2    31  ASN31      -0.2716
      8  ND2      -56.5520   37.8600  -10.1830 N.am   31  ASN31      -0.0877
      9  N        -54.8540   36.4640  -17.2950 N.3    46  ARG46      -0.1245
     10  CA       -56.1260   35.7660  -17.1170 C.3    46  ARG46       0.1563
     11  C        -57.1720   36.5740  -17.8180 C.2    46  ARG46       0.2260
     12  O        -57.4550   37.7490  -17.5180 O.2    46  ARG46      -0.2867
     13  CB       -56.4600   35.6570  -15.6120 C.3    46  ARG46       0.0307
     14  CG       -57.8660   35.0780  -15.3650 C.3    46  ARG46       0.0489
     15  CD       -58.1710   35.1740  -13.8880 C.3    46  ARG46       0.2205
     16  NE       -59.5510   34.7530  -13.6270 N.pl3  46  ARG46      -0.0865
     17  CZ       -60.1000   34.7440  -12.4040 C.cat  46  ARG46       0.5346
     18  NH1      -59.3690   35.0810  -11.3380 N.pl3  46  ARG46       0.1354
     19  NH2      -61.4160   34.5380  -12.2920 N.pl3  46  ARG46       0.1354
     20  N        -68.8590   37.6470   -8.9390 N.3    89  ARG89      -0.1245
     21  CA       -67.9570   36.6840   -9.4190 C.3    89  ARG89       0.1563
     22  C        -68.5560   35.2890   -9.4710 C.2    89  ARG89       0.2260
     23  O        -67.9590   34.3480  -10.0450 O.2    89  ARG89      -0.2867
     24  CB       -66.7420   36.6540   -8.5210 C.3    89  ARG89       0.0307
     25  CG       -66.0090   38.0150   -8.4350 C.3    89  ARG89       0.0489
     26  CD       -64.9910   37.9790   -7.3020 C.3    89  ARG89       0.2205
     27  NE       -65.5800   37.7860   -5.9930 N.pl3  89  ARG89      -0.0865
     28  CZ       -64.8980   37.6210   -4.9010 C.cat  89  ARG89       0.5346
     29  NH1      -63.5690   37.5940   -4.9130 N.pl3  89  ARG89       0.1354
     30  NH2      -65.5420   37.3810   -3.7470 N.pl3  89  ARG89       0.1354
     31  N        -57.1160   29.8990  -14.0120 N.3   140  GLU140     -0.1231
     32  CA       -56.9890   31.2620  -13.4760 C.3   140  GLU140      0.1699
     33  C        -55.5710   31.5250  -12.9510 C.2   140  GLU140      0.2592
     34  O        -54.9780   30.6400  -12.3320 O.2   140  GLU140     -0.2718
     35  CB       -58.0160   31.5770  -12.3610 C.3   140  GLU140      0.0402
     36  CG       -59.4530   31.2100  -12.6470 C.3   140  GLU140      0.1161
     37  CD       -60.3310   31.3480  -11.4040 C.2   140  GLU140      0.3649
     38  OE1      -59.8210   31.2090  -10.2590 O.co2 140  GLU140     -0.2457
     39  OE2      -61.5670   31.3050  -11.6280 O.co2 140  GLU140     -0.2457
     40  N        -55.1730   32.7920  -13.0240 N.am  141  ASP141     -0.1974
     41  CA       -54.0910   33.3460  -12.1850 C.3   141  ASP141      0.1709
     42  C        -52.7550   32.5400  -12.2330 C.2   141  ASP141      0.2293
     43  O        -52.2270   31.9680  -11.2470 O.2   141  ASP141     -0.2864
     44  CB       -54.5540   33.4460  -10.7130 C.3   141  ASP141      0.1436
     45  CG       -55.7890   34.2340  -10.5010 C.2   141  ASP141      0.3671
     46  OD1      -56.2790   35.0050  -11.3220 O.co2 141  ASP141     -0.2456
     47  OD2      -56.2910   34.0890   -9.3310 O.co2 141  ASP141     -0.2456
     48  N        -54.8200   27.4290   -3.9050 N.3   188  LYS188     -0.1231
     49  CA       -54.4710   28.3170   -4.9600 C.3   188  LYS188      0.1693
     50  C        -53.2860   29.2530   -4.4620 C.2   188  LYS188      0.2592
     51  O        -52.7960   29.0430   -3.3420 O.2   188  LYS188     -0.2718
     52  CB       -55.6780   29.1720   -5.4510 C.3   188  LYS188      0.0285
     53  CG       -56.2330   30.1540   -4.4520 C.3   188  LYS188      0.0035
     54  CD       -57.1830   31.1900   -5.1130 C.3   188  LYS188      0.0206
     55  CE       -58.4090   30.6020   -5.7710 C.3   188  LYS188      0.1093
     56  NZ       -59.2780   31.7110   -6.2220 N.3   188  LYS188     -0.1314
     57  N        -52.9610   30.2470   -5.2640 N.am  189  ASP189     -0.1974
     58  CA       -51.8470   31.1670   -4.8330 C.3   189  ASP189      0.1709
     59  C        -50.5850   30.3990   -4.4630 C.2   189  ASP189      0.2293
     60  O        -49.9470   30.6360   -3.4500 O.2   189  ASP189     -0.2864
     61  CB       -52.2970   32.0030   -3.6350 C.3   189  ASP189      0.1436
     62  CG       -53.5200   32.8680   -3.9460 C.2   189  ASP189      0.3671
     63  OD1      -53.5700   33.5380   -5.0060 O.co2 189  ASP189     -0.2456
     64  OD2      -54.3970   32.9440   -3.0230 O.co2 189  ASP189     -0.2456
     65  N        -58.1380   37.3620    4.6370 N.3   246  ARG246     -0.1245
     66  CA       -57.2960   36.3600    3.9680 C.3   246  ARG246      0.1563
     67  C        -55.9580   36.9200    3.5810 C.2   246  ARG246      0.2260
     68  O        -55.7730   38.1650    3.4310 O.2   246  ARG246     -0.2867
     69  CB       -57.9680   35.8080    2.6860 C.3   246  ARG246      0.0307
     70  CG       -58.0820   36.8400    1.5960 C.3   246  ARG246      0.0489
     71  CD       -58.8790   36.3420    0.4210 C.3   246  ARG246      0.2205
     72  NE       -60.2720   36.1790    0.8430 N.pl3 246  ARG246     -0.0865
     73  CZ       -61.0880   35.2680    0.3470 C.cat 246  ARG246      0.5346
     74  NH1      -60.6700   34.3950   -0.5640 N.pl3 246  ARG246      0.1354
     75  NH2      -62.2990   35.1280    0.8380 N.pl3 246  ARG246      0.1354
     76  N        -50.6260   39.2340   -1.1750 N.3   265  HIS265     -0.1297
     77  CA       -51.8110   40.0370   -1.0540 C.3   265  HIS265      0.1306
     78  C        -52.5670   39.7170    0.2110 C.3   265  HIS265      0.2013
     79  O        -52.6120   38.5390    0.7360 O.3   265  HIS265     -0.2188
     80  CB       -52.7200   39.8540   -2.2870 C.3   265  HIS265      0.0691
     81  CG       -53.2110   38.4770   -2.4340 C.ar  265  HIS265      0.0814
     82  ND1      -52.6430   37.5590   -3.3050 N.ar  265  HIS265     -0.2268
     83  CD2      -54.2480   37.8430   -1.8230 C.ar  265  HIS265      0.1154
     84  CE1      -53.2970   36.4130   -3.2010 C.ar  265  HIS265      0.1986
     85  NE2      -54.2630   36.5400   -2.3030 N.ar  265  HIS265     -0.2212
     86  N        -58.4920   44.4470   -1.4100 N.3   273  TYR273     -0.1241
     87  CA       -57.1840   43.7800   -1.5300 C.3   273  TYR273      0.1605
     88  C        -56.0450   44.7800   -1.6610 C.2   273  TYR273      0.2264
     89  O        -56.1660   45.7210   -2.4980 O.2   273  TYR273     -0.2867
     90  CB       -57.1110   42.9000   -2.7710 C.3   273  TYR273      0.0534
     91  CG       -57.8360   41.5810   -2.6510 C.ar  273  TYR273     -0.0201
     92  CD1      -57.1360   40.4100   -2.6330 C.ar  273  TYR273     -0.0009
     93  CD2      -59.2420   41.4980   -2.5790 C.ar  273  TYR273     -0.0009
     94  CE1      -57.7670   39.1940   -2.4760 C.ar  273  TYR273      0.0417
     95  CE2      -59.9020   40.2590   -2.5000 C.ar  273  TYR273      0.0417
     96  CZ       -59.1500   39.0860   -2.5220 C.ar  273  TYR273      0.1957
     97  OH       -59.7720   37.8420   -2.4370 O.3   273  TYR273     -0.2866
     98  N        -64.6960   44.2220  -10.0870 N.3   309  PHE309     -0.1241
     99  CA       -64.7400   43.8910   -8.6830 C.3   309  PHE309      0.1605
    100  C        -63.7610   44.9130   -8.0620 C.2   309  PHE309      0.2264
    101  O        -62.5370   44.7030   -8.0390 O.2   309  PHE309     -0.2867
    102  CB       -64.3280   42.4340   -8.4310 C.3   309  PHE309      0.0534
    103  CG       -64.6010   41.9760   -7.0630 C.ar  309  PHE309     -0.0203
    104  CD1      -65.8960   41.7570   -6.6500 C.ar  309  PHE309     -0.0042
    105  CD2      -63.6140   41.7210   -6.1960 C.ar  309  PHE309     -0.0042
    106  CE1      -66.1650   41.2580   -5.3430 C.ar  309  PHE309     -0.0003
    107  CE2      -63.8720   41.2130   -4.9050 C.ar  309  PHE309     -0.0003
    108  CZ       -65.1430   41.0000   -4.4860 C.ar  309  PHE309     -0.0000
    109  N        -59.3310   46.4160   -5.6300 N.3   312  VAL312     -0.1245
    110  CA       -58.3880   45.3580   -5.7190 C.3   312  VAL312      0.1561
    111  C        -57.1130   45.7690   -6.4660 C.2   312  VAL312      0.2260
    112  O        -57.1850   46.2240   -7.6320 O.2   312  VAL312     -0.2867
    113  CB       -59.0190   44.1480   -6.4620 C.3   312  VAL312      0.0252
    114  CG1      -57.9840   43.0100   -6.6620 C.3   312  VAL312      0.0019
    115  CG2      -60.2130   43.6660   -5.6740 C.3   312  VAL312      0.0019
    116  N        -53.8080   43.1800   -7.1890 N.3   314  PHE314     -0.1241
    117  CA       -53.4870   41.7350   -7.0290 C.3   314  PHE314      0.1605
    118  C        -52.2710   41.4010   -7.8710 C.2   314  PHE314      0.2264
    119  O        -52.3530   41.1400   -9.0830 O.2   314  PHE314     -0.2867
    120  CB       -54.7310   40.9840   -7.4030 C.3   314  PHE314      0.0534
    121  CG       -54.7350   39.5350   -6.9540 C.ar  314  PHE314     -0.0203
    122  CD1      -55.3670   39.1860   -5.7770 C.ar  314  PHE314     -0.0042
    123  CD2      -54.1590   38.5020   -7.7240 C.ar  314  PHE314     -0.0042
    124  CE1      -55.3630   37.8920   -5.3430 C.ar  314  PHE314     -0.0003
    125  CE2      -54.2090   37.1590   -7.2690 C.ar  314  PHE314     -0.0003
    126  CZ       -54.8320   36.8530   -6.0820 C.ar  314  PHE314     -0.0000
    127  N        -60.0570   43.3490  -10.7190 N.3   333  ASP333     -0.1239
    128  CA       -60.3430   42.1280  -11.5000 C.3   333  ASP333      0.1674
    129  C        -60.7570   42.4530  -12.9660 C.2   333  ASP333      0.2266
    130  O        -61.5490   41.7070  -13.6100 O.2   333  ASP333     -0.2867
    131  CB       -61.4990   41.2550  -10.8710 C.3   333  ASP333      0.1410
    132  CG       -61.1100   40.5730   -9.6120 C.2   333  ASP333      0.3668
    133  OD1      -59.9070   40.6730   -9.1850 O.co2 333  ASP333     -0.2456
    134  OD2      -61.9740   39.8140   -9.0930 O.co2 333  ASP333     -0.2456
@<TRIPOS>BOND
     1    11    12    2
     2    11    10    1
     3     9    10    1
     4    10    13    1
     5    13    14    1
     6    14    15    1
     7    31    32    1
     8    15    16    1
     9    16    17    2
    10   130   129    2
    11    32    33    1
    12    32    35    1
    13     1     2    1
    14     3     4    2
    15     3     2    1
    16    40    33   am
    17    40    41    1
    18   129   128    1
    19    33    34    2
    20    36    35    1
    21    36    37    1
    22     2     5    1
    23    17    19    1
    24    17    18    1
    25    42    41    1
    26    42    43    2
    27    41    44    1
    28     5     6    1
    29    39    37   ar
    30   128   131    1
    31   128   127    1
    32    37    38   ar
    33    46    45   ar
    34   131   132    1
    35     6     7    2
    36     6     8   am
    37    44    45    1
    38    45    47   ar
    39    98    99    1
    40    23    22    2
    41   132   133   ar
    42   132   134   ar
    43    22    21    1
    44    21    20    1
    45    21    24    1
    46   119   118    2
    47    99   102    1
    48    99   100    1
    49    24    25    1
    50    25    26    1
    51   102   103    1
    52   100   101    2
    53   118   117    1
    54   123   125   ar
    55   123   121   ar
    56   112   111    2
    57   120   117    1
    58   120   121    1
    59    26    27    1
    60   125   126   ar
    61   116   117    1
    62   103   104   ar
    63   103   105   ar
    64   121   122   ar
    65   114   113    1
    66   104   106   ar
    67   111   110    1
    68   113   110    1
    69   113   115    1
    70    56    55    1
    71   105   107   ar
    72   126   124   ar
    73    27    28    2
    74   122   124   ar
    75    55    54    1
    76   110   109    1
    77    52    49    1
    78    52    53    1
    79   106   108   ar
    80    57    58    1
    81    57    50   am
    82    54    53    1
    83    63    62   ar
    84    49    50    1
    85    49    48    1
    86    29    28    1
    87   107   108   ar
    88    28    30    1
    89    58    59    1
    90    58    61    1
    91    59    60    2
    92    50    51    2
    93    62    61    1
    94    62    64   ar
    95    82    84   ar
    96    82    81   ar
    97    84    85   ar
    98    90    91    1
    99    90    87    1
   100    91    92   ar
   101    91    93   ar
   102    92    94   ar
   103    93    95   ar
   104    96    95   ar
   105    96    94   ar
   106    96    97    1
   107    89    88    2
   108    81    80    1
   109    81    83   ar
   110    85    83   ar
   111    80    77    1
   112    88    87    1
   113    87    86    1
   114    76    77    1
   115    77    78    1
   116    74    73    1
   117    78    79    1
   118    73    75    1
   119    73    72    2
   120    71    72    1
   121    71    70    1
   122    70    69    1
   123    69    66    1
   124    68    67    2
   125    67    66    1
   126    66    65    1
