@<TRIPOS>MOLECULE
tmp/5b0rA01.pdb
 150 141 0 0 0
SMALL
GASTEIGER

@<TRIPOS>ATOM
      1  N        -56.4510   40.2260  -16.5500 N.3    30  PHE30      -0.1227
      2  CA       -56.0070   40.5200  -15.1850 C.3    30  PHE30       0.1736
      3  C        -55.1640   39.4920  -14.5810 C.2    30  PHE30       0.2595
      4  O        -54.8540   38.4670  -15.1880 O.2    30  PHE30      -0.2718
      5  CB       -57.1650   40.9920  -14.3750 C.3    30  PHE30       0.0547
      6  CG       -58.1420   39.8910  -13.9860 C.ar   30  PHE30      -0.0202
      7  CD1      -58.3130   39.5420  -12.6610 C.ar   30  PHE30      -0.0042
      8  CD2      -59.1060   39.4450  -14.9620 C.ar   30  PHE30      -0.0042
      9  CE1      -59.3810   38.6480  -12.2850 C.ar   30  PHE30      -0.0003
     10  CE2      -60.0610   38.4820  -14.6380 C.ar   30  PHE30      -0.0003
     11  CZ       -60.1920   38.0930  -13.3090 C.ar   30  PHE30      -0.0000
     12  N        -54.6080   39.7870  -13.4300 N.am   31  ASN31      -0.1974
     13  CA       -53.8620   38.8130  -12.6040 C.3    31  ASN31       0.1688
     14  C        -52.8170   38.0260  -13.3630 C.2    31  ASN31       0.2292
     15  O        -52.7000   36.8120  -13.2820 O.2    31  ASN31      -0.2864
     16  CB       -54.8210   37.8610  -11.8700 C.3    31  ASN31       0.1181
     17  CG       -55.6670   38.5910  -10.8560 C.2    31  ASN31       0.2629
     18  OD1      -55.5280   39.8060  -10.6620 O.2    31  ASN31      -0.2716
     19  ND2      -56.5520   37.8600  -10.1830 N.am   31  ASN31      -0.0877
     20  N        -54.8540   36.4640  -17.2950 N.3    46  ARG46      -0.1245
     21  CA       -56.1260   35.7660  -17.1170 C.3    46  ARG46       0.1563
     22  C        -57.1720   36.5740  -17.8180 C.2    46  ARG46       0.2260
     23  O        -57.4550   37.7490  -17.5180 O.2    46  ARG46      -0.2867
     24  CB       -56.4600   35.6570  -15.6120 C.3    46  ARG46       0.0307
     25  CG       -57.8660   35.0780  -15.3650 C.3    46  ARG46       0.0489
     26  CD       -58.1710   35.1740  -13.8880 C.3    46  ARG46       0.2205
     27  NE       -59.5510   34.7530  -13.6270 N.pl3  46  ARG46      -0.0865
     28  CZ       -60.1000   34.7440  -12.4040 C.cat  46  ARG46       0.5346
     29  NH1      -59.3690   35.0810  -11.3380 N.pl3  46  ARG46       0.1354
     30  NH2      -61.4160   34.5380  -12.2920 N.pl3  46  ARG46       0.1354
     31  N        -68.8590   37.6470   -8.9390 N.3    89  ARG89      -0.1231
     32  CA       -67.9570   36.6840   -9.4190 C.3    89  ARG89       0.1694
     33  C        -68.5560   35.2890   -9.4710 C.2    89  ARG89       0.2591
     34  O        -67.9590   34.3480  -10.0450 O.2    89  ARG89      -0.2718
     35  CB       -66.7420   36.6540   -8.5210 C.3    89  ARG89       0.0321
     36  CG       -66.0090   38.0150   -8.4350 C.3    89  ARG89       0.0489
     37  CD       -64.9910   37.9790   -7.3020 C.3    89  ARG89       0.2205
     38  NE       -65.5800   37.7860   -5.9930 N.pl3  89  ARG89      -0.0865
     39  CZ       -64.8980   37.6210   -4.9010 C.cat  89  ARG89       0.5346
     40  NH1      -63.5690   37.5940   -4.9130 N.pl3  89  ARG89       0.1354
     41  NH2      -65.5420   37.3810   -3.7470 N.pl3  89  ARG89       0.1354
     42  N        -69.6940   35.0990   -8.8190 N.am   90  MET90      -0.1979
     43  CA       -70.1490   33.7480   -8.5790 C.3    90  MET90       0.1605
     44  C        -71.6970   33.6520   -8.3800 C.2    90  MET90       0.2287
     45  O        -72.3550   34.6460   -8.0370 O.2    90  MET90      -0.2864
     46  CB       -69.4390   33.0810   -7.4030 C.3    90  MET90       0.0413
     47  CG       -69.4890   33.8100   -6.1810 C.3    90  MET90       0.0598
     48  SD       -68.3420   33.1380   -4.8450 S.3    90  MET90      -0.1393
     49  CE       -66.8170   33.5670   -5.3460 C.3    90  MET90       0.0692
     50  N        -69.5510   28.3640   -3.7330 N.3   100  PHE100     -0.1241
     51  CA       -70.2050   28.7210   -5.0000 C.3   100  PHE100      0.1605
     52  C        -70.6310   27.4530   -5.6760 C.2   100  PHE100      0.2264
     53  O        -69.9690   26.3990   -5.6040 O.2   100  PHE100     -0.2867
     54  CB       -69.3980   29.6290   -5.9420 C.3   100  PHE100      0.0534
     55  CG       -68.0560   29.1120   -6.3200 C.ar  100  PHE100     -0.0203
     56  CD1      -67.9270   28.2370   -7.3790 C.ar  100  PHE100     -0.0042
     57  CD2      -66.9790   29.4970   -5.6100 C.ar  100  PHE100     -0.0042
     58  CE1      -66.7050   27.7110   -7.7460 C.ar  100  PHE100     -0.0003
     59  CE2      -65.6730   28.9830   -5.9600 C.ar  100  PHE100     -0.0003
     60  CZ       -65.5780   28.1150   -7.0370 C.ar  100  PHE100     -0.0000
     61  N        -69.2790   29.8420  -11.3910 N.3   103  LEU103     -0.1245
     62  CA       -68.7360   31.1350  -11.5870 C.3   103  LEU103      0.1561
     63  C        -69.5490   31.8710  -12.6250 C.2   103  LEU103      0.2260
     64  O        -70.1990   31.2300  -13.4720 O.2   103  LEU103     -0.2867
     65  CB       -67.2760   31.0880  -12.0150 C.3   103  LEU103      0.0270
     66  CG       -66.3270   30.4020  -10.9850 C.3   103  LEU103      0.0019
     67  CD1      -64.8980   30.4440  -11.5380 C.3   103  LEU103      0.0001
     68  CD2      -66.3980   30.9670   -9.5830 C.3   103  LEU103      0.0001
     69  N        -57.1160   29.8990  -14.0120 N.3   140  GLU140     -0.1231
     70  CA       -56.9890   31.2620  -13.4760 C.3   140  GLU140      0.1699
     71  C        -55.5710   31.5250  -12.9510 C.2   140  GLU140      0.2592
     72  O        -54.9780   30.6400  -12.3320 O.2   140  GLU140     -0.2718
     73  CB       -58.0160   31.5770  -12.3610 C.3   140  GLU140      0.0402
     74  CG       -59.4530   31.2100  -12.6470 C.3   140  GLU140      0.1161
     75  CD       -60.3310   31.3480  -11.4040 C.2   140  GLU140      0.3649
     76  OE1      -59.8210   31.2090  -10.2590 O.co2 140  GLU140     -0.2457
     77  OE2      -61.5670   31.3050  -11.6280 O.co2 140  GLU140     -0.2457
     78  N        -55.1730   32.7920  -13.0240 N.am  141  ASP141     -0.1974
     79  CA       -54.0910   33.3460  -12.1850 C.3   141  ASP141      0.1709
     80  C        -52.7550   32.5400  -12.2330 C.2   141  ASP141      0.2293
     81  O        -52.2270   31.9680  -11.2470 O.2   141  ASP141     -0.2864
     82  CB       -54.5540   33.4460  -10.7130 C.3   141  ASP141      0.1436
     83  CG       -55.7890   34.2340  -10.5010 C.2   141  ASP141      0.3671
     84  OD1      -56.2790   35.0050  -11.3220 O.co2 141  ASP141     -0.2456
     85  OD2      -56.2910   34.0890   -9.3310 O.co2 141  ASP141     -0.2456
     86  N        -60.1770   25.2030  -11.6820 N.3   158  VAL158     -0.1245
     87  CA       -61.4900   25.2390  -11.0110 C.3   158  VAL158      0.1561
     88  C        -62.4440   24.2300  -11.7300 C.2   158  VAL158      0.2260
     89  O        -62.6210   24.3510  -12.9660 O.2   158  VAL158     -0.2867
     90  CB       -62.1160   26.6200  -11.1540 C.3   158  VAL158      0.0252
     91  CG1      -63.3580   26.8040  -10.2540 C.3   158  VAL158      0.0019
     92  CG2      -61.1200   27.7350  -10.7140 C.3   158  VAL158      0.0019
     93  N        -61.1800   23.4780   -6.2700 N.3   163  VAL163     -0.1245
     94  CA       -60.2390   24.4140   -6.8290 C.3   163  VAL163      0.1561
     95  C        -58.8470   23.8740   -6.4190 C.2   163  VAL163      0.2260
     96  O        -58.4830   23.8410   -5.2320 O.2   163  VAL163     -0.2867
     97  CB       -60.4220   25.8450   -6.2930 C.3   163  VAL163      0.0252
     98  CG1      -59.3990   26.7380   -6.8910 C.3   163  VAL163      0.0019
     99  CG2      -61.8620   26.4070   -6.5130 C.3   163  VAL163      0.0019
    100  N        -54.8200   27.4290   -3.9050 N.3   188  LYS188     -0.1245
    101  CA       -54.4710   28.3170   -4.9600 C.3   188  LYS188      0.1561
    102  C        -53.2860   29.2530   -4.4620 C.2   188  LYS188      0.2260
    103  O        -52.7960   29.0430   -3.3420 O.2   188  LYS188     -0.2867
    104  CB       -55.6780   29.1720   -5.4510 C.3   188  LYS188      0.0271
    105  CG       -56.2330   30.1540   -4.4520 C.3   188  LYS188      0.0035
    106  CD       -57.1830   31.1900   -5.1130 C.3   188  LYS188      0.0206
    107  CE       -58.4090   30.6020   -5.7710 C.3   188  LYS188      0.1093
    108  NZ       -59.2780   31.7110   -6.2220 N.3   188  LYS188     -0.1314
    109  N        -58.1380   37.3620    4.6370 N.3   246  ARG246     -0.1245
    110  CA       -57.2960   36.3600    3.9680 C.3   246  ARG246      0.1563
    111  C        -55.9580   36.9200    3.5810 C.2   246  ARG246      0.2260
    112  O        -55.7730   38.1650    3.4310 O.2   246  ARG246     -0.2867
    113  CB       -57.9680   35.8080    2.6860 C.3   246  ARG246      0.0307
    114  CG       -58.0820   36.8400    1.5960 C.3   246  ARG246      0.0489
    115  CD       -58.8790   36.3420    0.4210 C.3   246  ARG246      0.2205
    116  NE       -60.2720   36.1790    0.8430 N.pl3 246  ARG246     -0.0865
    117  CZ       -61.0880   35.2680    0.3470 C.cat 246  ARG246      0.5346
    118  NH1      -60.6700   34.3950   -0.5640 N.pl3 246  ARG246      0.1354
    119  NH2      -62.2990   35.1280    0.8380 N.pl3 246  ARG246      0.1354
    120  N        -58.4920   44.4470   -1.4100 N.3   273  TYR273     -0.1241
    121  CA       -57.1840   43.7800   -1.5300 C.3   273  TYR273      0.1605
    122  C        -56.0450   44.7800   -1.6610 C.2   273  TYR273      0.2264
    123  O        -56.1660   45.7210   -2.4980 O.2   273  TYR273     -0.2867
    124  CB       -57.1110   42.9000   -2.7710 C.3   273  TYR273      0.0534
    125  CG       -57.8360   41.5810   -2.6510 C.ar  273  TYR273     -0.0201
    126  CD1      -57.1360   40.4100   -2.6330 C.ar  273  TYR273     -0.0009
    127  CD2      -59.2420   41.4980   -2.5790 C.ar  273  TYR273     -0.0009
    128  CE1      -57.7670   39.1940   -2.4760 C.ar  273  TYR273      0.0417
    129  CE2      -59.9020   40.2590   -2.5000 C.ar  273  TYR273      0.0417
    130  CZ       -59.1500   39.0860   -2.5220 C.ar  273  TYR273      0.1957
    131  OH       -59.7720   37.8420   -2.4370 O.3   273  TYR273     -0.2866
    132  N        -53.8080   43.1800   -7.1890 N.3   314  PHE314     -0.1241
    133  CA       -53.4870   41.7350   -7.0290 C.3   314  PHE314      0.1605
    134  C        -52.2710   41.4010   -7.8710 C.2   314  PHE314      0.2264
    135  O        -52.3530   41.1400   -9.0830 O.2   314  PHE314     -0.2867
    136  CB       -54.7310   40.9840   -7.4030 C.3   314  PHE314      0.0534
    137  CG       -54.7350   39.5350   -6.9540 C.ar  314  PHE314     -0.0203
    138  CD1      -55.3670   39.1860   -5.7770 C.ar  314  PHE314     -0.0042
    139  CD2      -54.1590   38.5020   -7.7240 C.ar  314  PHE314     -0.0042
    140  CE1      -55.3630   37.8920   -5.3430 C.ar  314  PHE314     -0.0003
    141  CE2      -54.2090   37.1590   -7.2690 C.ar  314  PHE314     -0.0003
    142  CZ       -54.8320   36.8530   -6.0820 C.ar  314  PHE314     -0.0000
    143  N        -60.0570   43.3490  -10.7190 N.3   333  ASP333     -0.1239
    144  CA       -60.3430   42.1280  -11.5000 C.3   333  ASP333      0.1674
    145  C        -60.7570   42.4530  -12.9660 C.2   333  ASP333      0.2266
    146  O        -61.5490   41.7070  -13.6100 O.2   333  ASP333     -0.2867
    147  CB       -61.4990   41.2550  -10.8710 C.3   333  ASP333      0.1410
    148  CG       -61.1100   40.5730   -9.6120 C.2   333  ASP333      0.3668
    149  OD1      -59.9070   40.6730   -9.1850 O.co2 333  ASP333     -0.2456
    150  OD2      -61.9740   39.8140   -9.0930 O.co2 333  ASP333     -0.2456
@<TRIPOS>BOND
     1    22    23    2
     2    22    21    1
     3    20    21    1
     4    21    24    1
     5     1     2    1
     6    24    25    1
     7    25    26    1
     8     4     3    2
     9     2     3    1
    10     2     5    1
    11     8    10   ar
    12     8     6   ar
    13    10    11   ar
    14     3    12   am
    15     5     6    1
    16    69    70    1
    17     6     7   ar
    18    26    27    1
    19    27    28    2
    20   146   145    2
    21    70    71    1
    22    70    73    1
    23    64    63    2
    24    12    13    1
    25    14    15    2
    26    14    13    1
    27    11     9   ar
    28    78    71   am
    29    78    79    1
    30   145   144    1
    31    89    88    2
    32    71    72    2
    33     7     9   ar
    34    74    73    1
    35    74    75    1
    36    63    62    1
    37    13    16    1
    38    28    30    1
    39    28    29    1
    40    80    79    1
    41    80    81    2
    42    79    82    1
    43    65    62    1
    44    65    66    1
    45    16    17    1
    46    88    87    1
    47    86    87    1
    48    77    75   ar
    49    62    61    1
    50    67    66    1
    51   144   147    1
    52   144   143    1
    53    75    76   ar
    54    84    83   ar
    55    90    87    1
    56    90    92    1
    57    90    91    1
    58    66    68    1
    59   147   148    1
    60    17    18    2
    61    17    19   am
    62    82    83    1
    63    83    85   ar
    64    34    33    2
    65   148   149   ar
    66   148   150   ar
    67    33    32    1
    68    33    42   am
    69    32    31    1
    70    32    35    1
    71   135   134    2
    72    42    43    1
    73    43    44    1
    74    43    46    1
    75    35    36    1
    76    36    37    1
    77    44    45    2
    78   134   133    1
    79    58    56   ar
    80    58    60   ar
    81   139   141   ar
    82   139   137   ar
    83    46    47    1
    84   136   133    1
    85   136   137    1
    86    56    55   ar
    87    37    38    1
    88   141   142   ar
    89   132   133    1
    90    60    59   ar
    91   137   138   ar
    92    98    97    1
    93    94    95    1
    94    94    97    1
    95    94    93    1
    96    99    97    1
    97    95    96    2
    98    55    54    1
    99    55    57   ar
   100   108   107    1
   101    47    48    1
   102   142   140   ar
   103    38    39    2
   104    59    57   ar
   105    54    51    1
   106   138   140   ar
   107   107   106    1
   108    52    53    2
   109    52    51    1
   110   104   101    1
   111   104   105    1
   112    49    48    1
   113   106   105    1
   114    51    50    1
   115   101   102    1
   116   101   100    1
   117    40    39    1
   118    39    41    1
   119   102   103    2
   120   124   125    1
   121   124   121    1
   122   125   126   ar
   123   125   127   ar
   124   126   128   ar
   125   127   129   ar
   126   130   129   ar
   127   130   128   ar
   128   130   131    1
   129   123   122    2
   130   122   121    1
   131   121   120    1
   132   118   117    1
   133   117   119    1
   134   117   116    2
   135   115   116    1
   136   115   114    1
   137   114   113    1
   138   113   110    1
   139   112   111    2
   140   111   110    1
   141   110   109    1
