@<TRIPOS>MOLECULE
tmp/5b0sB04.pdb
 117 109 0 0 0
SMALL
GASTEIGER

@<TRIPOS>ATOM
      1  N        -69.8840  -15.5420   -1.3080 N.3    89  ARG89      -0.1231
      2  CA       -68.4710  -15.4810   -1.0320 C.3    89  ARG89       0.1694
      3  C        -67.8060  -16.8620   -1.0170 C.2    89  ARG89       0.2591
      4  O        -66.5660  -16.9590   -0.9650 O.2    89  ARG89      -0.2718
      5  CB       -68.2500  -14.8370    0.3210 C.3    89  ARG89       0.0321
      6  CG       -68.8340  -13.4820    0.5130 C.3    89  ARG89       0.0489
      7  CD       -68.7360  -13.0210    1.9470 C.3    89  ARG89       0.2205
      8  NE       -69.5770  -13.8470    2.7860 N.pl3  89  ARG89      -0.0865
      9  CZ       -69.5980  -13.7720    4.1060 C.cat  89  ARG89       0.5346
     10  NH1      -70.2780  -14.6620    4.7480 N.pl3  89  ARG89       0.1354
     11  NH2      -68.8480  -12.8640    4.7830 N.pl3  89  ARG89       0.1354
     12  N        -68.5950  -17.9230   -1.0420 N.am   90  MET90      -0.1979
     13  CA       -67.9840  -19.2410   -0.7920 C.3    90  MET90       0.1605
     14  C        -68.7610  -20.3780   -1.3170 C.2    90  MET90       0.2287
     15  O        -69.9790  -20.2930   -1.4820 O.2    90  MET90      -0.2864
     16  CB       -67.5980  -19.4560    0.7230 C.3    90  MET90       0.0413
     17  CG       -68.6430  -19.3150    1.8170 C.3    90  MET90       0.0598
     18  SD       -68.0170  -18.7050    3.4410 S.3    90  MET90      -0.1393
     19  CE       -69.5580  -18.2150    4.1600 C.3    90  MET90       0.0692
     20  N        -71.2330  -23.9250    8.6680 N.3    98  GLU98      -0.1231
     21  CA       -70.4430  -23.0450    9.5290 C.3    98  GLU98       0.1699
     22  C        -69.0560  -22.6840    8.8860 C.2    98  GLU98       0.2593
     23  O        -68.3160  -21.8420    9.4180 O.2    98  GLU98      -0.2718
     24  CB       -70.3070  -23.6840   10.9860 C.3    98  GLU98       0.0402
     25  CG       -69.2410  -24.8020   11.1630 C.3    98  GLU98       0.1161
     26  CD       -69.7390  -26.1920   10.8090 C.2    98  GLU98       0.3649
     27  OE1      -70.8010  -26.2960   10.1440 O.co2  98  GLU98      -0.2457
     28  OE2      -69.0700  -27.1780   11.1610 O.co2  98  GLU98      -0.2457
     29  N        -68.6890  -23.3490    7.7720 N.am   99  GLY99      -0.1942
     30  CA       -67.3690  -23.1910    7.1440 C.3    99  GLY99       0.2014
     31  C        -67.4320  -22.9770    5.6260 C.2    99  GLY99       0.2638
     32  O        -68.3930  -22.4820    5.0860 O.2    99  GLY99      -0.2714
     33  N        -66.3780  -23.3950    4.9490 N.am  100  PHE100     -0.1973
     34  CA       -66.3710  -23.4250    3.5020 C.3   100  PHE100      0.1639
     35  C        -65.3760  -24.4480    3.0030 C.2   100  PHE100      0.2290
     36  O        -64.4120  -24.7400    3.6720 O.2   100  PHE100     -0.2864
     37  CB       -66.0840  -22.0430    2.8840 C.3   100  PHE100      0.0560
     38  CG       -64.7910  -21.3890    3.3440 C.ar  100  PHE100     -0.0200
     39  CD1      -63.6080  -21.6660    2.6990 C.ar  100  PHE100     -0.0042
     40  CD2      -64.7710  -20.5200    4.4700 C.ar  100  PHE100     -0.0042
     41  CE1      -62.3990  -21.1130    3.1060 C.ar  100  PHE100     -0.0003
     42  CE2      -63.5570  -19.9260    4.8910 C.ar  100  PHE100     -0.0003
     43  CZ       -62.3800  -20.2000    4.1930 C.ar  100  PHE100     -0.0000
     44  N        -57.2810  -20.7820   13.6100 N.3   186  GLU186     -0.1245
     45  CA       -58.0670  -19.9060   12.7100 C.3   186  GLU186      0.1567
     46  C        -58.0620  -18.4890   13.3510 C.2   186  GLU186      0.2260
     47  O        -58.5590  -18.3000   14.4430 O.2   186  GLU186     -0.2867
     48  CB       -59.4950  -20.4140   12.5360 C.3   186  GLU186      0.0388
     49  CG       -60.3360  -19.5950   11.5480 C.3   186  GLU186      0.1160
     50  CD       -61.5640  -20.3090   11.0710 C.2   186  GLU186      0.3649
     51  OE1      -61.5800  -21.5660   10.9710 O.co2 186  GLU186     -0.2457
     52  OE2      -62.5030  -19.6370   10.7250 O.co2 186  GLU186     -0.2457
     53  N        -57.8840  -13.9580   12.2510 N.3   188  LYS188     -0.1245
     54  CA       -57.8840  -12.8400   11.3340 C.3   188  LYS188      0.1561
     55  C        -58.0960  -11.5320   12.1390 C.2   188  LYS188      0.2260
     56  O        -58.1810  -11.5740   13.3870 O.2   188  LYS188     -0.2867
     57  CB       -58.8620  -13.0390   10.2050 C.3   188  LYS188      0.0271
     58  CG       -60.3110  -13.0860   10.5810 C.3   188  LYS188      0.0035
     59  CD       -61.2100  -12.9240    9.3840 C.3   188  LYS188      0.0206
     60  CE       -60.9880  -13.9690    8.2650 C.3   188  LYS188      0.1093
     61  NZ       -62.0900  -13.7620    7.3000 N.3   188  LYS188     -0.1314
     62  N        -58.4060  -12.3040   16.6980 N.3   206  ARG206     -0.1245
     63  CA       -59.8130  -12.7240   16.6930 C.3   206  ARG206      0.1563
     64  C        -59.9200  -14.2180   16.3040 C.2   206  ARG206      0.2260
     65  O        -60.2760  -14.5610   15.1550 O.2   206  ARG206     -0.2867
     66  CB       -60.6160  -11.8630   15.7080 C.3   206  ARG206      0.0307
     67  CG       -62.0750  -11.6090   16.0790 C.3   206  ARG206      0.0489
     68  CD       -62.9210  -12.8670   16.2090 C.3   206  ARG206      0.2205
     69  NE       -62.9720  -13.5190   14.8840 N.pl3 206  ARG206     -0.0865
     70  CZ       -63.6720  -13.0230   13.8790 C.cat 206  ARG206      0.5346
     71  NH1      -64.5100  -11.9400   14.0420 N.pl3 206  ARG206      0.1354
     72  NH2      -63.5570  -13.5920   12.7030 N.pl3 206  ARG206      0.1354
     73  N        -61.3540  -17.7780   15.5530 N.3   208  SER208     -0.1217
     74  CA       -62.6380  -18.4380   15.2690 C.3   208  SER208      0.1889
     75  C        -62.5620  -19.8030   15.8170 C.2   208  SER208      0.2288
     76  O        -61.5650  -20.4690   15.6010 O.2   208  SER208     -0.2866
     77  CB       -62.9860  -18.5670   13.8030 C.3   208  SER208      0.2089
     78  OG       -62.8690  -17.2990   13.2710 O.3   208  SER208     -0.2183
     79  N        -67.1550  -15.5200   18.3870 N.3   215  LEU215     -0.1245
     80  CA       -66.2430  -14.7400   17.5520 C.3   215  LEU215      0.1561
     81  C        -65.9020  -13.4050   18.2210 C.2   215  LEU215      0.2260
     82  O        -66.4570  -12.3680   17.8620 O.2   215  LEU215     -0.2867
     83  CB       -66.8130  -14.5120   16.1430 C.3   215  LEU215      0.0270
     84  CG       -66.9680  -15.8240   15.3190 C.3   215  LEU215      0.0019
     85  CD1      -67.9440  -15.6510   14.1430 C.3   215  LEU215      0.0001
     86  CD2      -65.6490  -16.2510   14.7590 C.3   215  LEU215      0.0001
     87  N        -70.7780  -11.1680   15.7530 N.3   246  ARG246     -0.1245
     88  CA       -69.3230  -11.2260   15.8920 C.3   246  ARG246      0.1563
     89  C        -68.7050   -9.8640   16.0660 C.2   246  ARG246      0.2260
     90  O        -69.3190   -8.8310   15.6950 O.2   246  ARG246     -0.2867
     91  CB       -68.6950  -11.8770   14.6310 C.3   246  ARG246      0.0307
     92  CG       -68.7490  -11.0390   13.3430 C.3   246  ARG246      0.0489
     93  CD       -68.7800  -11.9260   12.0870 C.3   246  ARG246      0.2205
     94  NE       -70.0250  -12.6810   12.1440 N.pl3 246  ARG246     -0.0865
     95  CZ       -71.1240  -12.5550   11.3830 C.cat 246  ARG246      0.5346
     96  NH1      -71.1220  -11.8740   10.2340 N.pl3 246  ARG246      0.1354
     97  NH2      -72.2320  -13.2410   11.7160 N.pl3 246  ARG246      0.1354
     98  N        -75.5180  -10.6340    9.3410 N.3   271  ASN271     -0.1240
     99  CA       -74.3830  -10.1450    8.5690 C.3   271  ASN271      0.1653
    100  C        -74.4810   -8.6840    8.1290 C.2   271  ASN271      0.2266
    101  O        -73.8870   -8.2910    7.1130 O.2   271  ASN271     -0.2867
    102  CB       -74.0840  -11.0720    7.3710 C.3   271  ASN271      0.1155
    103  CG       -73.6280  -12.4650    7.8240 C.2   271  ASN271      0.2627
    104  OD1      -72.6920  -12.6160    8.5990 O.2   271  ASN271     -0.2716
    105  ND2      -74.2720  -13.4530    7.3380 N.am  271  ASN271     -0.0877
    106  N        -72.8940   -5.2700    8.9330 N.3   273  TYR273     -0.1241
    107  CA       -71.6490   -4.8780    9.5730 C.3   273  TYR273      0.1605
    108  C        -71.6680   -3.3680    9.8770 C.2   273  TYR273      0.2264
    109  O        -71.8950   -2.5650    8.9590 O.2   273  TYR273     -0.2867
    110  CB       -70.4220   -5.1920    8.7080 C.3   273  TYR273      0.0534
    111  CG       -69.9070   -6.6510    8.7670 C.ar  273  TYR273     -0.0201
    112  CD1      -70.6220   -7.6900    8.2190 C.ar  273  TYR273     -0.0009
    113  CD2      -68.7270   -6.9660    9.4350 C.ar  273  TYR273     -0.0009
    114  CE1      -70.1180   -8.9880    8.2570 C.ar  273  TYR273      0.0417
    115  CE2      -68.2320   -8.2430    9.5050 C.ar  273  TYR273      0.0417
    116  CZ       -68.9580   -9.2640    8.8740 C.ar  273  TYR273      0.1957
    117  OH       -68.4930  -10.5570    8.9670 O.3   273  TYR273     -0.2866
@<TRIPOS>BOND
     1    15    14    2
     2    14    13    1
     3     1     2    1
     4    12     3   am
     5    12    13    1
     6     2     3    1
     7     2     5    1
     8     3     4    2
     9    13    16    1
    10     5     6    1
    11     6     7    1
    12    16    17    1
    13    17    18    1
    14     7     8    1
    15    39    41   ar
    16    39    38   ar
    17     8     9    2
    18    37    38    1
    19    37    34    1
    20    35    34    1
    21    35    36    2
    22    41    43   ar
    23    38    40   ar
    24    18    19    1
    25    34    33    1
    26     9    10    1
    27     9    11    1
    28    43    42   ar
    29    40    42   ar
    30    33    31   am
    31    32    31    2
    32    31    30    1
    33   101   100    2
    34    30    29    1
    35    61    60    1
    36   105   103   am
    37   102   103    1
    38   102    99    1
    39    29    22   am
    40   103   104    2
    41   100    99    1
    42   112   114   ar
    43   112   111   ar
    44   114   116   ar
    45    60    59    1
    46    99    98    1
    47    20    21    1
    48   110   111    1
    49   110   107    1
    50   111   113   ar
    51   116   117    1
    52   116   115   ar
    53    22    23    2
    54    22    21    1
    55   106   107    1
    56   109   108    2
    57    59    58    1
    58   113   115   ar
    59    21    24    1
    60   107   108    1
    61    27    26   ar
    62    57    58    1
    63    57    54    1
    64    96    95    1
    65    52    50   ar
    66    26    28   ar
    67    26    25    1
    68    51    50   ar
    69    24    25    1
    70    50    49    1
    71    54    55    1
    72    54    53    1
    73    95    97    1
    74    95    94    2
    75    49    48    1
    76    93    94    1
    77    93    92    1
    78    55    56    2
    79    48    45    1
    80    72    70    1
    81    45    46    1
    82    45    44    1
    83    78    77    1
    84    92    91    1
    85    46    47    2
    86    77    74    1
    87    70    71    1
    88    70    69    2
    89    85    84    1
    90    91    88    1
    91    86    84    1
    92    69    68    1
    93    65    64    2
    94    74    73    1
    95    74    75    1
    96    84    83    1
    97    76    75    2
    98    90    89    2
    99    66    67    1
   100    66    63    1
   101    87    88    1
   102    88    89    1
   103    67    68    1
   104    83    80    1
   105    64    63    1
   106    63    62    1
   107    80    81    1
   108    80    79    1
   109    82    81    2
