@<TRIPOS>MOLECULE
tmp/5b0wA02.pdb
 119 115 0 0 0
SMALL
GASTEIGER

@<TRIPOS>ATOM
      1  N         33.7070   17.5300   17.5520 N.3   130  THR130     -0.1203
      2  CA        34.3930   16.7090   16.5550 C.3   130  THR130      0.1994
      3  C         35.2530   15.6320   17.2070 C.2   130  THR130      0.2617
      4  O         35.1610   14.4530   16.8570 O.2   130  THR130     -0.2717
      5  CB        35.3050   17.5540   15.6350 C.3   130  THR130      0.1784
      6  OG1       34.5020   18.4420   14.8530 O.3   130  THR130     -0.2211
      7  CG2       36.0960   16.6490   14.6990 C.3   130  THR130      0.0376
      8  N         36.0900   16.0350   18.1480 N.am  131  LYS131     -0.1979
      9  CA        36.9540   15.0730   18.7990 C.3   131  LYS131      0.1596
     10  C         36.1720   14.1430   19.7360 C.2   131  LYS131      0.2287
     11  O         36.5930   13.0130   19.9340 O.2   131  LYS131     -0.2864
     12  CB        38.0840   15.7840   19.5480 C.3   131  LYS131      0.0298
     13  CG        38.8990   16.7430   18.6360 C.3   131  LYS131      0.0038
     14  CD        40.0740   17.3940   19.3890 C.3   131  LYS131      0.0206
     15  CE        40.5570   18.6810   18.6910 C.3   131  LYS131      0.1093
     16  NZ        41.8190   19.2230   19.2840 N.3   131  LYS131     -0.1314
     17  N         34.9100   11.6320   17.2230 N.3   134  THR134     -0.1218
     18  CA        35.9770   10.7600   16.7190 C.3   134  THR134      0.1862
     19  C         36.4230    9.7220   17.7610 C.2   134  THR134      0.2287
     20  O         36.5530    8.5360   17.4600 O.2   134  THR134     -0.2866
     21  CB        37.2120   11.5970   16.2870 C.3   134  THR134      0.1770
     22  OG1       36.8320   12.4870   15.2290 O.3   134  THR134     -0.2211
     23  CG2       38.3360   10.6930   15.7970 C.3   134  THR134      0.0375
     24  N         35.3370    5.6740   17.2170 N.3   138  PHE138     -0.1241
     25  CA        36.4090    4.7090   17.0050 C.3   138  PHE138      0.1605
     26  C         36.5690    3.7750   18.1940 C.2   138  PHE138      0.2264
     27  O         36.9470    2.6240   18.0500 O.2   138  PHE138     -0.2867
     28  CB        37.7270    5.4180   16.6790 C.3   138  PHE138      0.0534
     29  CG        37.8650    5.7450   15.2020 C.ar  138  PHE138     -0.0203
     30  CD1       38.3860    4.7940   14.3200 C.ar  138  PHE138     -0.0042
     31  CD2       37.4070    6.9590   14.6980 C.ar  138  PHE138     -0.0042
     32  CE1       38.4520    5.0400   12.9390 C.ar  138  PHE138     -0.0003
     33  CE2       37.4570    7.2290   13.3090 C.ar  138  PHE138     -0.0003
     34  CZ        37.9830    6.2640   12.4310 C.ar  138  PHE138     -0.0000
     35  N         43.2760  -12.8600   14.2710 N.3   160  TRP160     -0.1227
     36  CA        44.2920  -11.8370   14.4350 C.3   160  TRP160      0.1737
     37  C         44.1280  -10.6350   13.5050 C.2   160  TRP160      0.2595
     38  O         44.6620   -9.5570   13.7860 O.2   160  TRP160     -0.2718
     39  CB        45.6920  -12.4790   14.3400 C.3   160  TRP160      0.0564
     40  CG        45.9250  -13.5150   15.4430 C.ar  160  TRP160      0.0003
     41  CD1       45.7920  -14.8710   15.3330 C.ar  160  TRP160      0.0946
     42  CD2       46.2850  -13.2600   16.8180 C.ar  160  TRP160      0.0152
     43  NE1       46.0510  -15.4760   16.5420 N.ar  160  TRP160     -0.2442
     44  CE2       46.3570  -14.5140   17.4700 C.ar  160  TRP160      0.0810
     45  CE3       46.5540  -12.0980   17.5570 C.ar  160  TRP160      0.0012
     46  CZ2       46.6940  -14.6430   18.8350 C.ar  160  TRP160      0.0191
     47  CZ3       46.8910  -12.2240   18.9220 C.ar  160  TRP160      0.0001
     48  CH2       46.9580  -13.4870   19.5380 C.ar  160  TRP160      0.0015
     49  N         43.3860  -10.8000   12.4030 N.am  161  PHE161     -0.1976
     50  CA        43.1170   -9.6830   11.4800 C.3   161  PHE161      0.1639
     51  C         42.1180   -8.7370   12.1770 C.2   161  PHE161      0.2290
     52  O         42.2670   -7.5180   12.1140 O.2   161  PHE161     -0.2864
     53  CB        42.5080  -10.2000   10.1600 C.3   161  PHE161      0.0560
     54  CG        42.0710   -9.1060    9.2090 C.ar  161  PHE161     -0.0200
     55  CD1       42.9930   -8.1900    8.7100 C.ar  161  PHE161     -0.0042
     56  CD2       40.7380   -9.0080    8.8030 C.ar  161  PHE161     -0.0042
     57  CE1       42.5950   -7.1890    7.8120 C.ar  161  PHE161     -0.0003
     58  CE2       40.3300   -8.0230    7.9180 C.ar  161  PHE161     -0.0003
     59  CZ        41.2520   -7.1090    7.4160 C.ar  161  PHE161     -0.0000
     60  N         44.0040   -6.8190   14.7260 N.3   164  ALA164     -0.1231
     61  CA        44.7660   -5.7070   14.1730 C.3   164  ALA164      0.1694
     62  C         43.8710   -4.5140   13.8110 C.2   164  ALA164      0.2591
     63  O         44.2470   -3.3660   14.0480 O.2   164  ALA164     -0.2718
     64  CB        45.5790   -6.1770   12.9500 C.3   164  ALA164      0.0304
     65  N         42.6990   -4.7580   13.2240 N.am  165  ILE165     -0.1980
     66  CA        41.7790   -3.6480   12.9140 C.3   165  ILE165      0.1595
     67  C         41.4210   -2.9400   14.2320 C.2   165  ILE165      0.2287
     68  O         41.4280   -1.7110   14.3090 O.2   165  ILE165     -0.2864
     69  CB        40.4530   -4.1570   12.2750 C.3   165  ILE165      0.0276
     70  CG1       40.7180   -4.6470   10.8460 C.3   165  ILE165      0.0022
     71  CG2       39.4160   -3.0240   12.2100 C.3   165  ILE165      0.0022
     72  CD1       39.5010   -5.3560   10.2490 C.3   165  ILE165      0.0001
     73  N         43.9910   -0.6760   15.3560 N.3   168  ALA168     -0.1231
     74  CA        44.0160    0.5270   14.5290 C.3   168  ALA168      0.1694
     75  C         43.0600    1.5510   15.1260 C.2   168  ALA168      0.2592
     76  O         43.3840    2.7310   15.2190 O.2   168  ALA168     -0.2718
     77  CB        43.5970    0.2050   13.0740 C.3   168  ALA168      0.0304
     78  N         41.8780    1.0860   15.5260 N.am  169  CYS169     -0.1970
     79  CA        40.8750    1.9610   16.1310 C.3   169  CYS169      0.1712
     80  C         41.4120    2.5230   17.4610 C.2   169  CYS169      0.2296
     81  O         41.2190    3.7060   17.7560 O.2   169  CYS169     -0.2864
     82  CB        39.5730    1.1800   16.3790 C.3   169  CYS169      0.0983
     83  SG        38.6840    0.6520   14.8330 S.3   169  CYS169     -0.0798
     84  N         43.6880    5.5140   17.2830 N.3   172  VAL172     -0.1245
     85  CA        42.9890    6.7860   17.0640 C.3   172  VAL172      0.1561
     86  C         42.5390    7.3800   18.4090 C.2   172  VAL172      0.2260
     87  O         42.7050    8.5710   18.6630 O.2   172  VAL172     -0.2867
     88  CB        41.7490    6.5940   16.1630 C.3   172  VAL172      0.0252
     89  CG1       40.9040    7.8460   16.1410 C.3   172  VAL172      0.0019
     90  CG2       42.2020    6.2120   14.7470 C.3   172  VAL172      0.0019
     91  N         45.4660    8.7560   20.3190 N.3   175  TYR175     -0.1227
     92  CA        45.9180   10.0270   19.7560 C.3   175  TYR175      0.1736
     93  C         45.1270   11.1780   20.3290 C.2   175  TYR175      0.2595
     94  O         45.6970   12.1830   20.7450 O.2   175  TYR175     -0.2718
     95  CB        45.7850   10.0340   18.2350 C.3   175  TYR175      0.0548
     96  CG        46.3560   11.2990   17.6320 C.ar  175  TYR175     -0.0200
     97  CD1       45.5750   12.4360   17.4770 C.ar  175  TYR175     -0.0009
     98  CD2       47.7020   11.3650   17.2730 C.ar  175  TYR175     -0.0009
     99  CE1       46.1250   13.6310   16.9760 C.ar  175  TYR175      0.0417
    100  CE2       48.2600   12.5410   16.7740 C.ar  175  TYR175      0.0417
    101  CZ        47.4690   13.6650   16.6280 C.ar  175  TYR175      0.1957
    102  OH        48.0270   14.8240   16.1290 O.3   175  TYR175     -0.2866
    103  N         43.8060   11.0500   20.3290 N.am  176  ILE176     -0.1980
    104  CA        42.9830   12.1050   20.8850 C.3   176  ILE176      0.1595
    105  C         43.3640   12.2760   22.3520 C.2   176  ILE176      0.2287
    106  O         43.7060   13.3670   22.7840 O.2   176  ILE176     -0.2864
    107  CB        41.4890   11.7730   20.7120 C.3   176  ILE176      0.0276
    108  CG1       41.1160   11.9550   19.2330 C.3   176  ILE176      0.0022
    109  CG2       40.6140   12.6750   21.5800 C.3   176  ILE176      0.0022
    110  CD1       39.9460   11.1050   18.7940 C.3   176  ILE176      0.0001
    111  N         45.4030   15.5200   21.5550 N.3   180  GLU180     -0.1245
    112  CA        44.4170   16.5770   21.4970 C.3   180  GLU180      0.1567
    113  C         43.7930   17.0550   22.8170 C.2   180  GLU180      0.2260
    114  O         43.7500   18.2560   23.0650 O.2   180  GLU180     -0.2867
    115  CB        43.3220   16.1760   20.4800 C.3   180  GLU180      0.0388
    116  CG        43.8510   15.4290   19.2080 C.3   180  GLU180      0.1160
    117  CD        44.0380   16.3000   17.9490 C.2   180  GLU180      0.3649
    118  OE1       44.7890   17.2870   18.0170 O.co2 180  GLU180     -0.2457
    119  OE2       43.4470   15.9770   16.8790 O.co2 180  GLU180     -0.2457
@<TRIPOS>BOND
     1    59    57   ar
     2    59    58   ar
     3    57    55   ar
     4    58    56   ar
     5    55    54   ar
     6    56    54   ar
     7    54    53    1
     8    53    50    1
     9    72    70    1
    10    70    69    1
    11    50    51    1
    12    50    49    1
    13    52    51    2
    14    71    69    1
    15    69    66    1
    16    49    37   am
    17    34    32   ar
    18    34    33   ar
    19    66    65    1
    20    66    67    1
    21    32    30   ar
    22    64    61    1
    23    77    74    1
    24    65    62   am
    25    33    31   ar
    26    37    38    2
    27    37    36    1
    28    62    63    2
    29    62    61    1
    30    61    60    1
    31    67    68    2
    32    35    36    1
    33    30    29   ar
    34    39    36    1
    35    39    40    1
    36    74    75    1
    37    74    73    1
    38    31    29   ar
    39     7     5    1
    40    90    88    1
    41    83    82    1
    42     6     5    1
    43    75    76    2
    44    75    78   am
    45    29    28    1
    46    22    21    1
    47    41    40   ar
    48    41    43   ar
    49    40    42   ar
    50    78    79    1
    51     5     2    1
    52    23    21    1
    53   102   101    1
    54    79    82    1
    55    79    80    1
    56    89    88    1
    57    88    85    1
    58    21    18    1
    59    43    44   ar
    60     2     3    1
    61     2     1    1
    62   101   100   ar
    63   101    99   ar
    64    28    25    1
    65    18    17    1
    66    18    19    1
    67   100    98   ar
    68    42    44   ar
    69    42    45   ar
    70     4     3    2
    71   119   117   ar
    72    99    97   ar
    73    25    24    1
    74    25    26    1
    75    85    84    1
    76    85    86    1
    77     3     8   am
    78    98    96   ar
    79    20    19    2
    80    80    81    2
    81    44    46   ar
    82    97    96   ar
    83    45    47   ar
    84    96    95    1
    85   117   118   ar
    86   117   116    1
    87    27    26    2
    88     8     9    1
    89    95    92    1
    90    86    87    2
    91    13    14    1
    92    13    12    1
    93    15    16    1
    94    15    14    1
    95   110   108    1
    96     9    12    1
    97     9    10    1
    98    46    48   ar
    99    47    48   ar
   100   116   115    1
   101   108   107    1
   102    10    11    2
   103    92    91    1
   104    92    93    1
   105   103    93   am
   106   103   104    1
   107    93    94    2
   108   115   112    1
   109   107   104    1
   110   107   109    1
   111   104   105    1
   112   112   111    1
   113   112   113    1
   114   105   106    2
   115   113   114    2
