@<TRIPOS>MOLECULE
tmp/5b0xA00.pdb
 167 159 0 0 0
SMALL
GASTEIGER

@<TRIPOS>ATOM
      1  N        -24.3260    9.8070    9.9570 N.3    42  ARG42      -0.1245
      2  CA       -24.2470    9.2820    8.6010 C.3    42  ARG42       0.1563
      3  C        -23.3700    8.0430    8.5870 C.2    42  ARG42       0.2260
      4  O        -22.5330    7.8570    9.4690 O.2    42  ARG42      -0.2867
      5  CB       -23.6910   10.3490    7.6470 C.3    42  ARG42       0.0307
      6  CG       -22.3270   10.9150    8.0200 C.3    42  ARG42       0.0489
      7  CD       -22.0450   12.1800    7.2150 C.3    42  ARG42       0.2205
      8  NE       -20.7260   12.7560    7.4770 N.pl3  42  ARG42      -0.0865
      9  CZ       -19.5890   12.3070    6.9540 C.cat  42  ARG42       0.5346
     10  NH1      -18.4400   12.8980    7.2530 N.pl3  42  ARG42       0.1354
     11  NH2      -19.5960   11.2730    6.1250 N.pl3  42  ARG42       0.1354
     12  N        -20.4110    5.6210    7.2150 N.3    44  LEU44      -0.1245
     13  CA       -19.0930    5.7630    6.6030 C.3    44  LEU44       0.1561
     14  C        -18.6590    4.3970    6.0710 C.2    44  LEU44       0.2260
     15  O        -18.9770    3.3720    6.6680 O.2    44  LEU44      -0.2867
     16  CB       -18.0810    6.2520    7.6460 C.3    44  LEU44       0.0270
     17  CG       -18.4180    7.5020    8.4710 C.3    44  LEU44       0.0019
     18  CD1      -17.3560    7.7030    9.5440 C.3    44  LEU44       0.0001
     19  CD2      -18.5010    8.7220    7.5700 C.3    44  LEU44       0.0001
     20  N        -19.9420    1.2910   10.4310 N.3    52  VAL52      -0.1245
     21  CA       -19.3360    2.4680   11.0270 C.3    52  VAL52       0.1561
     22  C        -20.0820    3.7300   10.6400 C.2    52  VAL52       0.2260
     23  O        -20.3780    3.9620    9.4660 O.2    52  VAL52      -0.2867
     24  CB       -17.8630    2.5950   10.6020 C.3    52  VAL52       0.0252
     25  CG1      -17.2090    3.7690   11.3160 C.3    52  VAL52       0.0019
     26  CG2      -17.1290    1.2970   10.9120 C.3    52  VAL52       0.0019
     27  N        -20.6330    8.1480   11.4880 N.3    54  GLU54      -0.1245
     28  CA       -20.0700    9.3370   12.0780 C.3    54  GLU54       0.1567
     29  C        -21.1940    9.6130   13.0620 C.2    54  GLU54       0.2260
     30  O        -22.3550    9.3420   12.7560 O.2    54  GLU54      -0.2867
     31  CB       -19.9770   10.4800   11.0770 C.3    54  GLU54       0.0388
     32  CG       -19.4970   11.7630   11.7240 C.3    54  GLU54       0.1160
     33  CD       -19.4550   12.9200   10.7620 C.2    54  GLU54       0.3649
     34  OE1      -18.7570   12.8110    9.7330 O.co2  54  GLU54      -0.2457
     35  OE2      -20.1170   13.9390   11.0370 O.co2  54  GLU54      -0.2457
     36  N        -17.1700    8.5060   16.3940 N.3    65  VAL65      -0.1245
     37  CA       -17.3790    7.4520   15.4080 C.3    65  VAL65       0.1561
     38  C        -17.9050    6.2240   16.1420 C.2    65  VAL65       0.2260
     39  O        -17.3770    5.8350   17.1850 O.2    65  VAL65      -0.2867
     40  CB       -16.0680    7.1020   14.6550 C.3    65  VAL65       0.0252
     41  CG1      -16.2960    5.9220   13.7180 C.3    65  VAL65       0.0019
     42  CG2      -15.6010    8.3080   13.8520 C.3    65  VAL65       0.0019
     43  N        -18.8940    2.1470   15.8320 N.3    67  LYS67      -0.1245
     44  CA       -18.7920    0.9090   15.0760 C.3    67  LYS67       0.1561
     45  C        -19.7450   -0.1090   15.6890 C.2    67  LYS67       0.2260
     46  O        -19.5340   -0.5870   16.8060 O.2    67  LYS67      -0.2867
     47  CB       -17.3600    0.3560   15.0820 C.3    67  LYS67       0.0271
     48  CG       -17.2290   -0.9380   14.2790 C.3    67  LYS67       0.0035
     49  CD       -15.7860   -1.3050   13.9360 C.3    67  LYS67       0.0206
     50  CE       -14.9920   -1.7370   15.1560 C.3    67  LYS67       0.1093
     51  NZ       -13.6610   -2.2850   14.7720 N.3    67  LYS67      -0.1314
     52  N        -11.1490   -7.5580   20.5660 N.3    80  GLU80      -0.1245
     53  CA       -10.8940   -6.1910   20.1220 C.3    80  GLU80       0.1567
     54  C        -11.0840   -5.2030   21.2650 C.2    80  GLU80       0.2260
     55  O        -10.3050   -4.2630   21.4180 O.2    80  GLU80      -0.2867
     56  CB       -11.8150   -5.8130   18.9520 C.3    80  GLU80       0.0388
     57  CG       -11.7510   -4.3300   18.5620 C.3    80  GLU80       0.1160
     58  CD       -12.5170   -4.0100   17.2870 C.2    80  GLU80       0.3649
     59  OE1      -13.4360   -4.7780   16.9270 O.co2  80  GLU80      -0.2457
     60  OE2      -12.2080   -2.9790   16.6510 O.co2  80  GLU80      -0.2457
     61  N         -5.9030    4.7130   18.3310 N.3    94  ILE94      -0.1245
     62  CA        -7.2680    5.2460   18.3170 C.3    94  ILE94       0.1561
     63  C         -7.8580    5.0510   19.7160 C.2    94  ILE94       0.2260
     64  O         -7.6980    3.9900   20.3190 O.2    94  ILE94      -0.2867
     65  CB        -8.1550    4.5250   17.2560 C.3    94  ILE94       0.0252
     66  CG1       -9.4440    5.3210   17.0080 C.3    94  ILE94       0.0019
     67  CG2       -8.5100    3.1250   17.7300 C.3    94  ILE94       0.0019
     68  CD1       -9.2210    6.7330   16.4800 C.3    94  ILE94       0.0001
     69  N        -15.5450    5.5600   19.2110 N.3   112  PHE112     -0.1227
     70  CA       -14.1650    6.0300   19.0980 C.3   112  PHE112      0.1736
     71  C        -14.0590    7.5430   18.9900 C.2   112  PHE112      0.2595
     72  O        -15.0260    8.2180   18.6540 O.2   112  PHE112     -0.2718
     73  CB       -13.5190    5.4440   17.8420 C.3   112  PHE112      0.0547
     74  CG       -13.4870    3.9500   17.8100 C.ar  112  PHE112     -0.0202
     75  CD1      -12.4900    3.2520   18.4700 C.ar  112  PHE112     -0.0042
     76  CD2      -14.4530    3.2390   17.1140 C.ar  112  PHE112     -0.0042
     77  CE1      -12.4540    1.8690   18.4350 C.ar  112  PHE112     -0.0003
     78  CE2      -14.4250    1.8570   17.0750 C.ar  112  PHE112     -0.0003
     79  CZ       -13.4240    1.1700   17.7350 C.ar  112  PHE112     -0.0000
     80  N        -12.8690    8.0690   19.2620 N.am  113  GLU113     -0.1965
     81  CA       -12.6540    9.5050   19.1730 C.3   113  GLU113      0.1733
     82  C        -12.7850    9.7800   17.6790 C.2   113  GLU113      0.2616
     83  O        -12.5300    8.8940   16.8630 O.2   113  GLU113     -0.2715
     84  CB       -11.2450    9.8790   19.6560 C.3   113  GLU113      0.0429
     85  CG       -10.1000    9.2310   18.8740 C.3   113  GLU113      0.1163
     86  CD        -8.7240    9.6870   19.3550 C.2   113  GLU113      0.3649
     87  OE1       -8.4550   10.9040   19.3150 O.co2 113  GLU113     -0.2457
     88  OE2       -7.9120    8.8320   19.7710 O.co2 113  GLU113     -0.2457
     89  N        -13.1900   10.9890   17.3140 N.am  114  HIS114     -0.1959
     90  CA       -13.3400   11.3220   15.9050 C.3   114  HIS114      0.1787
     91  C        -12.0750   11.9200   15.3120 C.2   114  HIS114      0.2620
     92  O        -11.3550   12.6690   15.9680 O.2   114  HIS114     -0.2715
     93  CB       -14.5060   12.2920   15.7050 C.3   114  HIS114      0.0785
     94  CG       -14.6710   12.7540   14.2890 C.ar  114  HIS114      0.0821
     95  ND1      -13.7940   13.6270   13.6830 N.ar  114  HIS114     -0.2267
     96  CD2      -15.6080   12.4570   13.3580 C.ar  114  HIS114      0.1154
     97  CE1      -14.1840   13.8500   12.4410 C.ar  114  HIS114      0.1986
     98  NE2      -15.2830   13.1520   12.2180 N.ar  114  HIS114     -0.2212
     99  N        -11.8100   11.5700   14.0600 N.am  115  VAL115     -0.1963
    100  CA       -10.6380   12.0640   13.3580 C.3   115  VAL115      0.1727
    101  C        -11.0830   12.6310   12.0210 C.2   115  VAL115      0.2616
    102  O        -11.6780   11.9250   11.2070 O.2   115  VAL115     -0.2715
    103  CB        -9.6150   10.9360   13.0940 C.3   115  VAL115      0.0290
    104  CG1       -8.4160   11.4890   12.3270 C.3   115  VAL115      0.0023
    105  CG2       -9.1680   10.3190   14.4070 C.3   115  VAL115      0.0023
    106  N        -10.8110   13.9130   11.8050 N.am  116  ASN116     -0.1958
    107  CA       -11.1860   14.5590   10.5580 C.3   116  ASN116      0.1819
    108  C        -10.1250   14.1910    9.5290 C.2   116  ASN116      0.2621
    109  O         -9.3310   15.0280    9.1000 O.2   116  ASN116     -0.2715
    110  CB       -11.2410   16.0760   10.7360 C.3   116  ASN116      0.1195
    111  CG       -11.7210   16.7820    9.4890 C.2   116  ASN116      0.2630
    112  OD1      -12.8130   16.5100    8.9960 O.2   116  ASN116     -0.2716
    113  ND2      -10.9040   17.6890    8.9680 N.am  116  ASN116     -0.0877
    114  N        -10.1250   12.9190    9.1490 N.am  117  ASN117     -0.1972
    115  CA        -9.1830   12.3790    8.1810 C.3   117  ASN117      0.1688
    116  C         -9.2010   13.0750    6.8240 C.2   117  ASN117      0.2292
    117  O        -10.2570   13.2890    6.2300 O.2   117  ASN117     -0.2864
    118  CB        -9.4470   10.8780    8.0090 C.3   117  ASN117      0.1181
    119  CG        -8.5990   10.2480    6.9210 C.2   117  ASN117      0.2629
    120  OD1       -7.3730   10.3740    6.9130 O.2   117  ASN117     -0.2716
    121  ND2       -9.2530    9.5530    5.9970 N.am  117  ASN117     -0.0877
    122  N         -8.8220   13.2250    2.9930 N.3   119  ASP119     -0.1239
    123  CA        -9.0220   12.2100    1.9630 C.3   119  ASP119      0.1674
    124  C         -7.7120   11.6720    1.3910 C.2   119  ASP119      0.2266
    125  O         -6.9680   12.3910    0.7240 O.2   119  ASP119     -0.2867
    126  CB        -9.9020   12.7620    0.8370 C.3   119  ASP119      0.1410
    127  CG       -10.5560   11.6610    0.0190 C.2   119  ASP119      0.3668
    128  OD1      -11.1480   10.7440    0.6290 O.co2 119  ASP119     -0.2456
    129  OD2      -10.4910   11.7110   -1.2260 O.co2 119  ASP119     -0.2456
    130  N         -5.5600    6.7370   10.1310 N.3   162  MET162     -0.1245
    131  CA        -6.2980    7.9870   10.0040 C.3   162  MET162      0.1570
    132  C         -5.3450    9.1620   10.1500 C.2   162  MET162      0.2261
    133  O         -4.5070    9.1850   11.0530 O.2   162  MET162     -0.2867
    134  CB        -7.3890    8.0770   11.0750 C.3   162  MET162      0.0387
    135  CG        -8.5500    7.1150   10.8790 C.3   162  MET162      0.0595
    136  SD        -9.4760    7.4510    9.3680 S.3   162  MET162     -0.1393
    137  CE        -8.6140    6.4050    8.2070 C.3   162  MET162      0.0692
    138  N         -6.0130    2.7380   13.3950 N.3   173  ILE173     -0.1231
    139  CA        -7.3190    2.1820   13.7040 C.3   173  ILE173      0.1692
    140  C         -7.5990    0.7460   13.3070 C.2   173  ILE173      0.2592
    141  O         -6.7670    0.0520   12.7110 O.2   173  ILE173     -0.2718
    142  CB        -8.4340    3.0480   13.0990 C.3   173  ILE173      0.0266
    143  CG1       -8.4670    2.8670   11.5800 C.3   173  ILE173      0.0019
    144  CG2       -8.1940    4.5090   13.4420 C.3   173  ILE173      0.0020
    145  CD1       -9.5980    3.6120   10.9010 C.3   173  ILE173      0.0001
    146  N         -8.8180    0.3430   13.6500 N.am  174  ASP174     -0.1960
    147  CA        -9.3690   -0.9780   13.4050 C.3   174  ASP174      0.1840
    148  C         -8.4860   -2.0980   13.8890 C.2   174  ASP174      0.2622
    149  O         -7.7210   -2.6880   13.1230 O.2   174  ASP174     -0.2715
    150  CB        -9.6850   -1.2110   11.9300 C.3   174  ASP174      0.1450
    151  CG       -10.6180   -2.3980   11.7340 C.2   174  ASP174      0.3671
    152  OD1      -10.8300   -3.1440   12.7150 O.co2 174  ASP174     -0.2456
    153  OD2      -11.1420   -2.5900   10.6200 O.co2 174  ASP174     -0.2456
    154  N         -8.6100   -2.3910   15.1730 N.am  175  TRP175     -0.1974
    155  CA        -7.8400   -3.4430   15.7940 C.3   175  TRP175      0.1640
    156  C         -8.6780   -4.7170   15.7470 C.2   175  TRP175      0.2290
    157  O         -8.5020   -5.6290   16.5500 O.2   175  TRP175     -0.2864
    158  CB        -7.4950   -3.0310   17.2270 C.3   175  TRP175      0.0576
    159  CG        -6.6170   -1.8110   17.2390 C.ar  175  TRP175      0.0006
    160  CD1       -6.9910   -0.5240   16.9610 C.ar  175  TRP175      0.0946
    161  CD2       -5.1980   -1.7820   17.4280 C.ar  175  TRP175      0.0152
    162  NE1       -5.8890    0.2960   16.9460 N.ar  175  TRP175     -0.2442
    163  CE2       -4.7750   -0.4530   17.2180 C.ar  175  TRP175      0.0810
    164  CE3       -4.2400   -2.7590   17.7200 C.ar  175  TRP175      0.0012
    165  CZ2       -3.4390   -0.0690   17.3300 C.ar  175  TRP175      0.0191
    166  CZ3       -2.9110   -2.3760   17.8290 C.ar  175  TRP175      0.0001
    167  CH2       -2.5210   -1.0460   17.6190 C.ar  175  TRP175      0.0015
@<TRIPOS>BOND
     1   129   127   ar
     2   127   128   ar
     3   127   126    1
     4   125   124    2
     5   126   123    1
     6   124   123    1
     7   123   122    1
     8   121   119   am
     9    14    13    1
    10    14    15    2
    11    11     9    1
    12   117   116    2
    13    13    12    1
    14    13    16    1
    15   116   115    1
    16   120   119    2
    17   119   118    1
    18     9    10    1
    19     9     8    2
    20     7     8    1
    21     7     6    1
    22    19    17    1
    23    16    17    1
    24     5     6    1
    25     5     2    1
    26   118   115    1
    27   115   114    1
    28   137   136    1
    29    17    18    1
    30     3     2    1
    31     3     4    2
    32     2     1    1
    33   113   111   am
    34   112   111    2
    35   109   108    2
    36   114   108   am
    37   136   135    1
    38    23    22    2
    39   111   110    1
    40   108   107    1
    41    34    33   ar
    42   131   130    1
    43   131   132    1
    44   131   134    1
    45   132   133    2
    46    20    21    1
    47   107   110    1
    48   107   106    1
    49    24    26    1
    50    24    21    1
    51    24    25    1
    52   153   151   ar
    53    22    21    1
    54    33    35   ar
    55    33    32    1
    56   135   134    1
    57   145   143    1
    58    31    32    1
    59    31    28    1
    60   102   101    2
    61    27    28    1
    62   143   142    1
    63   151   150    1
    64   151   152   ar
    65   106   101   am
    66   150   147    1
    67   101   100    1
    68    28    29    1
    69    98    97   ar
    70    98    96   ar
    71   104   103    1
    72    97    95   ar
    73   141   140    2
    74    30    29    2
    75   103   100    1
    76   103   105    1
    77   142   144    1
    78   142   139    1
    79   149   148    2
    80   140   146   am
    81   140   139    1
    82   100    99    1
    83    96    94   ar
    84   138   139    1
    85   147   146    1
    86   147   148    1
    87    95    94   ar
    88    41    40    1
    89    42    40    1
    90   148   154   am
    91    49    48    1
    92    49    50    1
    93    99    91   am
    94    48    47    1
    95    94    93    1
    96    40    37    1
    97    51    50    1
    98    44    47    1
    99    44    45    1
   100    44    43    1
   101   154   155    1
   102    91    90    1
   103    91    92    2
   104    37    38    1
   105    37    36    1
   106    45    46    2
   107    93    90    1
   108   156   155    1
   109   156   157    2
   110   155   158    1
   111    90    89    1
   112    38    39    2
   113    68    66    1
   114    60    58   ar
   115    83    82    2
   116    59    58   ar
   117   162   160   ar
   118   162   163   ar
   119   160   159   ar
   120    66    65    1
   121    78    76   ar
   122    78    79   ar
   123    76    74   ar
   124   163   165   ar
   125   163   161   ar
   126   158   159    1
   127   159   161   ar
   128    65    67    1
   129    65    62    1
   130    58    57    1
   131    89    82   am
   132   165   167   ar
   133   161   164   ar
   134   167   166   ar
   135    82    81    1
   136   164   166   ar
   137    79    77   ar
   138    74    73    1
   139    74    75   ar
   140    73    70    1
   141    62    61    1
   142    62    63    1
   143    77    75   ar
   144    57    56    1
   145    72    71    2
   146    85    86    1
   147    85    84    1
   148    56    53    1
   149    71    70    1
   150    71    80   am
   151    70    69    1
   152    81    80    1
   153    81    84    1
   154    87    86   ar
   155    86    88   ar
   156    63    64    2
   157    53    52    1
   158    53    54    1
   159    54    55    2
