@<TRIPOS>MOLECULE
tmp/5b13J02.pdb
 135 128 0 0 0
SMALL
GASTEIGER

@<TRIPOS>ATOM
      1  N         -6.8200   -6.0790   38.8300 N.3    32  THR32      -0.1203
      2  CA        -8.2520   -5.8570   38.6470 C.3    32  THR32       0.1994
      3  C         -8.6330   -4.3970   38.8980 C.2    32  THR32       0.2617
      4  O         -9.6680   -3.9300   38.4230 O.2    32  THR32      -0.2717
      5  CB        -9.0950   -6.7740   39.5660 C.3    32  THR32       0.1784
      6  OG1      -10.4440   -6.8300   39.0840 O.3    32  THR32      -0.2211
      7  CG2       -9.0950   -6.2650   40.9970 C.3    32  THR32       0.0376
      8  N         -7.7900   -3.6790   39.6360 N.am   33  ASP33      -0.1973
      9  CA        -8.0080   -2.2570   39.8820 C.3    33  ASP33       0.1709
     10  C         -7.1050   -1.4160   38.9880 C.2    33  ASP33       0.2293
     11  O         -6.9420   -0.2160   39.2100 O.2    33  ASP33      -0.2864
     12  CB        -7.7530   -1.9100   41.3510 C.3    33  ASP33       0.1436
     13  CG        -8.7090   -2.6120   42.2930 C.2    33  ASP33       0.3671
     14  OD1       -9.7550   -3.1070   41.8250 O.co2  33  ASP33      -0.2456
     15  OD2       -8.4170   -2.6590   43.5070 O.co2  33  ASP33      -0.2456
     16  N         -7.2980   -0.2540   35.8900 N.3    35  ASN35      -0.1225
     17  CA        -7.8740    0.8400   35.1150 C.3    35  ASN35       0.1785
     18  C         -8.0710    2.1060   35.9420 C.2    35  ASN35       0.2597
     19  O         -7.9060    3.2160   35.4340 O.2    35  ASN35      -0.2718
     20  CB        -9.2040    0.4060   34.4980 C.3    35  ASN35       0.1169
     21  CG        -9.0180   -0.5410   33.3290 C.2    35  ASN35       0.2627
     22  OD1       -8.2460   -0.2650   32.4100 O.2    35  ASN35      -0.2716
     23  ND2       -9.7190   -1.6680   33.3620 N.am   35  ASN35      -0.0877
     24  N         -8.4240    1.9390   37.2130 N.am   36  LYS36      -0.1980
     25  CA        -8.5500    3.0750   38.1180 C.3    36  LYS36       0.1596
     26  C         -7.1930    3.7350   38.3260 C.2    36  LYS36       0.2287
     27  O         -7.0850    4.9610   38.3540 O.2    36  LYS36      -0.2864
     28  CB        -9.1380    2.6450   39.4640 C.3    36  LYS36       0.0298
     29  CG       -10.5860    2.1900   39.3950 C.3    36  LYS36       0.0038
     30  CD       -11.2380    2.1990   40.7700 C.3    36  LYS36       0.0206
     31  CE       -10.5510    1.2420   41.7280 C.3    36  LYS36       0.1093
     32  NZ       -11.1780    1.2810   43.0790 N.3    36  LYS36      -0.1314
     33  N         -4.6650    3.6700   36.2350 N.3    38  LEU38      -0.1231
     34  CA        -4.3120    4.3470   34.9930 C.3    38  LEU38       0.1693
     35  C         -5.0610    5.6710   34.8690 C.2    38  LEU38       0.2592
     36  O         -4.5260    6.6490   34.3470 O.2    38  LEU38      -0.2718
     37  CB        -4.6030    3.4490   33.7890 C.3    38  LEU38       0.0284
     38  CG        -3.7020    2.2160   33.6820 C.3    38  LEU38       0.0019
     39  CD1       -4.0760    1.3640   32.4820 C.3    38  LEU38       0.0001
     40  CD2       -2.2400    2.6310   33.6100 C.3    38  LEU38       0.0001
     41  N         -6.2980    5.6950   35.3560 N.am   39  ASP39      -0.1960
     42  CA        -7.0740    6.9280   35.4100 C.3    39  ASP39       0.1840
     43  C         -6.4300    7.9300   36.3600 C.2    39  ASP39       0.2622
     44  O         -6.3040    9.1110   36.0370 O.2    39  ASP39      -0.2715
     45  CB        -8.5140    6.6480   35.8500 C.3    39  ASP39       0.1450
     46  CG        -9.4560    6.4550   34.6790 C.2    39  ASP39       0.3671
     47  OD1       -9.1270    6.9130   33.5650 O.co2  39  ASP39      -0.2456
     48  OD2      -10.5340    5.8540   34.8780 O.co2  39  ASP39      -0.2456
     49  N         -6.0240    7.4480   37.5320 N.am   40  SER40      -0.1950
     50  CA        -5.4320    8.3000   38.5590 C.3    40  SER40       0.1924
     51  C         -4.1690    8.9960   38.0580 C.2    40  SER40       0.2314
     52  O         -3.9490   10.1730   38.3380 O.2    40  SER40      -0.2863
     53  CB        -5.1160    7.4840   39.8140 C.3    40  SER40       0.2116
     54  OG        -4.1390    6.4930   39.5470 O.3    40  SER40      -0.2180
     55  N         -3.4720    9.4950   34.8190 N.3    42  SER42      -0.1202
     56  CA        -3.9210   10.3650   33.7400 C.3    42  SER42       0.2020
     57  C         -4.5030   11.6700   34.2740 C.2    42  SER42       0.2618
     58  O         -4.2480   12.7400   33.7240 O.2    42  SER42      -0.2717
     59  CB        -4.9580    9.6480   32.8730 C.3    42  SER42       0.2103
     60  OG        -5.3900   10.4750   31.8060 O.3    42  SER42      -0.2182
     61  N         -5.2760   11.5750   35.3520 N.am   43  PHE43      -0.1975
     62  CA        -5.9340   12.7440   35.9280 C.3    43  PHE43       0.1639
     63  C         -4.9190   13.7270   36.5100 C.2    43  PHE43       0.2290
     64  O         -5.1350   14.9380   36.4870 O.2    43  PHE43      -0.2864
     65  CB        -6.9360   12.3270   37.0100 C.3    43  PHE43       0.0560
     66  CG        -8.1430   11.5930   36.4810 C.ar   43  PHE43      -0.0200
     67  CD1       -8.3230   11.4020   35.1190 C.ar   43  PHE43      -0.0042
     68  CD2       -9.1030   11.1030   37.3510 C.ar   43  PHE43      -0.0042
     69  CE1       -9.4300   10.7260   34.6380 C.ar   43  PHE43      -0.0003
     70  CE2      -10.2140   10.4300   36.8760 C.ar   43  PHE43      -0.0003
     71  CZ       -10.3780   10.2420   35.5180 C.ar   43  PHE43      -0.0000
     72  N         -7.4850   13.0420   41.7520 N.3   142  VAL142     -0.1231
     73  CA        -7.6250   11.5930   41.8310 C.3   142  VAL142      0.1692
     74  C         -8.9470   11.2210   42.4970 C.2   142  VAL142      0.2593
     75  O         -9.6610   10.3320   42.0300 O.2   142  VAL142     -0.2718
     76  CB        -6.4580   10.9500   42.6070 C.3   142  VAL142      0.0266
     77  CG1       -6.6900    9.4560   42.7810 C.3   142  VAL142      0.0020
     78  CG2       -5.1410   11.2070   41.8930 C.3   142  VAL142      0.0020
     79  N         -9.2770   11.9120   43.5830 N.am  143  SER143     -0.1938
     80  CA       -10.5170   11.6490   44.3050 C.3   143  SER143      0.2055
     81  C        -11.7170   12.2420   43.5730 C.2   143  SER143      0.2643
     82  O        -12.8640   12.0020   43.9490 O.2   143  SER143     -0.2714
     83  CB       -10.4410   12.2070   45.7270 C.3   143  SER143      0.2130
     84  OG        -9.3810   11.6110   46.4540 O.3   143  SER143     -0.2179
     85  N        -11.4430   13.0150   42.5270 N.am  144  GLY144     -0.1954
     86  CA       -12.4910   13.6590   41.7590 C.3   144  GLY144      0.1869
     87  C        -13.2190   14.7110   42.5710 C.2   144  GLY144      0.2309
     88  O        -14.4300   14.8850   42.4360 O.2   144  GLY144     -0.2863
     89  N        -12.7620   15.1750   36.3080 N.3   151  MET151     -0.1245
     90  CA       -12.4150   14.3410   35.1640 C.3   151  MET151      0.1570
     91  C        -13.4570   13.2440   34.9690 C.2   151  MET151      0.2261
     92  O        -13.9140   12.6320   35.9350 O.2   151  MET151     -0.2867
     93  CB       -11.0250   13.7310   35.3470 C.3   151  MET151      0.0387
     94  CG        -9.9230   14.7470   35.6120 C.3   151  MET151      0.0595
     95  SD        -9.6100   15.8410   34.2130 S.3   151  MET151     -0.1393
     96  CE        -8.9960   14.6760   33.0000 C.3   151  MET151      0.0692
     97  N        -15.2030    9.7770   34.2870 N.3   153  CYS153     -0.1221
     98  CA       -14.8760    8.4050   34.6630 C.3   153  CYS153      0.1794
     99  C        -16.1050    7.7140   35.2430 C.2   153  CYS153      0.2443
    100  O        -16.9980    8.3790   35.7680 O.2   153  CYS153     -0.2733
    101  CB       -13.7340    8.3780   35.6820 C.3   153  CYS153      0.0970
    102  SG       -14.0270    9.4040   37.1400 S.3   153  CYS153     -0.0800
    103  N        -16.1620    6.3760   35.1410 N.am  154  PRO154     -0.2718
    104  CA       -17.2170    5.6320   35.8360 C.3   154  PRO154      0.1535
    105  C        -17.1520    5.8820   37.3400 C.2   154  PRO154      0.2599
    106  O        -16.0550    5.9320   37.8950 O.2   154  PRO154     -0.2715
    107  CB       -16.8990    4.1710   35.5030 C.3   154  PRO154      0.0310
    108  CG       -16.1360    4.2350   34.2240 C.3   154  PRO154      0.0237
    109  CD       -15.3290    5.4990   34.3000 C.3   154  PRO154      0.0939
    110  N        -18.3020    6.0520   37.9840 N.am  155  ASP155     -0.1958
    111  CA       -18.3260    6.3500   39.4120 C.3   155  ASP155      0.1840
    112  C        -17.8250    5.1740   40.2410 C.2   155  ASP155      0.2622
    113  O        -18.1860    4.0240   39.9920 O.2   155  ASP155     -0.2715
    114  CB       -19.7350    6.7430   39.8590 C.3   155  ASP155      0.1450
    115  CG       -19.8710    8.2330   40.1070 C.2   155  ASP155      0.3671
    116  OD1      -19.3320    9.0220   39.3030 O.co2 155  ASP155     -0.2456
    117  OD2      -20.5090    8.6140   41.1110 O.co2 155  ASP155     -0.2456
    118  N        -16.9870    5.4750   41.2280 N.am  156  GLY156     -0.1954
    119  CA       -16.4230    4.4560   42.0930 C.3   156  GLY156      0.1869
    120  C        -15.4730    5.0360   43.1230 C.2   156  GLY156      0.2309
    121  O        -15.3120    6.2520   43.2180 O.2   156  GLY156     -0.2863
    122  N        -11.8150    5.6540   44.7470 N.3   158  CYS158     -0.1235
    123  CA       -10.3820    5.7230   44.4920 C.3   158  CYS158      0.1677
    124  C         -9.6400    6.3110   45.6910 C.2   158  CYS158      0.2270
    125  O         -8.5870    6.9280   45.5330 O.2   158  CYS158     -0.2867
    126  CB       -10.0930    6.5570   43.2420 C.3   158  CYS158      0.0956
    127  SG       -10.8480    5.9650   41.7060 S.3   158  CYS158     -0.0801
    128  N         -6.0000    4.9100   46.0450 N.3   161  LEU161     -0.1245
    129  CA        -5.0360    5.5050   45.1250 C.3   161  LEU161      0.1561
    130  C         -4.6950    6.9330   45.5340 C.2   161  LEU161      0.2260
    131  O         -3.5580    7.3790   45.3720 O.2   161  LEU161     -0.2867
    132  CB        -5.5770    5.4790   43.6940 C.3   161  LEU161      0.0270
    133  CG        -5.5930    4.1080   43.0150 C.3   161  LEU161      0.0019
    134  CD1       -6.5060    4.1220   41.8020 C.3   161  LEU161      0.0001
    135  CD2       -4.1820    3.6940   42.6220 C.3   161  LEU161      0.0001
@<TRIPOS>BOND
     1    60    59    1
     2    22    21    2
     3    39    38    1
     4    59    56    1
     5    96    95    1
     6    21    23   am
     7    21    20    1
     8    47    46   ar
     9    40    38    1
    10    38    37    1
    11    58    57    2
    12    56    57    1
    13    56    55    1
    14    37    34    1
    15    95    94    1
    16   108   109    1
    17   108   107    1
    18    57    61   am
    19    97    98    1
    20   109   103    1
    21    36    35    2
    22    20    17    1
    23    69    67   ar
    24    69    71   ar
    25    98    99    1
    26    98   101    1
    27    46    48   ar
    28    46    45    1
    29    35    34    1
    30    35    41   am
    31    91    90    1
    32    91    92    2
    33    34    33    1
    34    17    16    1
    35    17    18    1
    36    67    66   ar
    37   103    99   am
    38   103   104    1
    39    90    93    1
    40    90    89    1
    41    99   100    2
    42    93    94    1
    43    61    62    1
    44    41    42    1
    45    42    45    1
    46    42    43    1
    47    19    18    2
    48   107   104    1
    49    71    70   ar
    50   101   102    1
    51   104   105    1
    52    62    63    1
    53    62    65    1
    54    18    24   am
    55    44    43    2
    56    43    49   am
    57    66    65    1
    58    66    68   ar
    59    64    63    2
    60    70    68   ar
    61    24    25    1
    62   105   106    2
    63   105   110   am
    64    49    50    1
    65   110   111    1
    66    51    52    2
    67    51    50    1
    68    25    26    1
    69    25    28    1
    70    26    27    2
    71     4     3    2
    72    50    53    1
    73     2     1    1
    74     2     3    1
    75     2     5    1
    76     3     8   am
    77    10    11    2
    78    10     9    1
    79     6     5    1
    80   116   115   ar
    81    29    28    1
    82    29    30    1
    83   111   114    1
    84   111   112    1
    85    54    53    1
    86     5     7    1
    87     8     9    1
    88   114   115    1
    89     9    12    1
    90   113   112    2
    91   115   117   ar
    92   112   118   am
    93    30    31    1
    94   118   119    1
    95    12    13    1
    96   127   126    1
    97    31    32    1
    98    72    73    1
    99    86    85    1
   100    86    87    1
   101   134   133    1
   102    14    13   ar
   103    73    74    1
   104    73    76    1
   105    78    76    1
   106    75    74    2
   107   119   120    1
   108    13    15   ar
   109    88    87    2
   110    74    79   am
   111    85    81   am
   112    76    77    1
   113   135   133    1
   114   133   132    1
   115   120   121    2
   116   126   123    1
   117    81    82    2
   118    81    80    1
   119    79    80    1
   120   132   129    1
   121    80    83    1
   122   123   122    1
   123   123   124    1
   124   129   130    1
   125   129   128    1
   126   131   130    2
   127   125   124    2
   128    83    84    1
