@<TRIPOS>MOLECULE
tmp/5b13J01.pdb
 215 202 0 0 0
SMALL
GASTEIGER

@<TRIPOS>ATOM
      1  N          3.1380   26.4800   43.7710 N.3    56  VAL56      -0.1245
      2  CA         4.2500   27.4140   43.8830 C.3    56  VAL56       0.1561
      3  C          3.7290   28.8160   44.1840 C.2    56  VAL56       0.2260
      4  O          4.3100   29.5480   44.9860 O.2    56  VAL56      -0.2867
      5  CB         5.1040   27.4350   42.6000 C.3    56  VAL56       0.0252
      6  CG1        6.1850   28.5000   42.6920 C.3    56  VAL56       0.0019
      7  CG2        5.7240   26.0670   42.3540 C.3    56  VAL56       0.0019
      8  N          2.5600   28.8370   47.7460 N.3    59  MET59      -0.1245
      9  CA         3.7460   28.9190   48.5830 C.3    59  MET59       0.1570
     10  C          4.2010   30.3670   48.7390 C.2    59  MET59       0.2261
     11  O          4.4890   30.8270   49.8440 O.2    59  MET59      -0.2867
     12  CB         4.8680   28.0730   47.9820 C.3    59  MET59       0.0387
     13  CG         6.1760   28.1310   48.7380 C.3    59  MET59       0.0595
     14  SD         7.5310   27.4280   47.7860 S.3    59  MET59      -0.1393
     15  CE         7.5790   28.5430   46.3850 C.3    59  MET59       0.0692
     16  N          9.7700   35.2240   50.0170 N.3    66  LEU66      -0.1245
     17  CA        10.4460   34.4350   48.9920 C.3    66  LEU66       0.1561
     18  C         10.7740   35.2480   47.7430 C.2    66  LEU66       0.2260
     19  O         11.7470   34.9590   47.0480 O.2    66  LEU66      -0.2867
     20  CB         9.5960   33.2260   48.5970 C.3    66  LEU66       0.0270
     21  CG         9.4930   32.0770   49.5980 C.3    66  LEU66       0.0019
     22  CD1        8.7510   30.9130   48.9680 C.3    66  LEU66       0.0001
     23  CD2       10.8760   31.6420   50.0560 C.3    66  LEU66       0.0001
     24  N         14.5470   33.2610   48.1170 N.3    72  ASN72      -0.1225
     25  CA        15.0250   32.1840   47.2610 C.3    72  ASN72       0.1785
     26  C         14.2500   32.0680   45.9500 C.2    72  ASN72       0.2597
     27  O         14.6220   31.2930   45.0720 O.2    72  ASN72      -0.2718
     28  CB        14.9810   30.8550   48.0150 C.3    72  ASN72       0.1169
     29  CG        15.9240   29.8240   47.4290 C.2    72  ASN72       0.2627
     30  OD1       15.4950   28.7830   46.9310 O.2    72  ASN72      -0.2716
     31  ND2       17.2190   30.1160   47.4720 N.am   72  ASN72      -0.0877
     32  N         13.1750   32.8380   45.8160 N.am   73  CYS73      -0.1970
     33  CA        12.4220   32.8810   44.5650 C.3    73  CYS73       0.1712
     34  C         12.5880   34.2330   43.8780 C.2    73  CYS73       0.2296
     35  O         11.8730   34.5530   42.9280 O.2    73  CYS73      -0.2864
     36  CB        10.9400   32.5890   44.8100 C.3    73  CYS73       0.0983
     37  SG        10.5480   30.8340   45.0150 S.3    73  CYS73      -0.0798
     38  N         15.1470   33.7350   37.2800 N.3    77  ARG77      -0.1231
     39  CA        15.9550   32.5200   37.2270 C.3    77  ARG77       0.1694
     40  C         15.6230   31.5720   38.3730 C.2    77  ARG77       0.2591
     41  O         15.3960   30.3820   38.1560 O.2    77  ARG77      -0.2718
     42  CB        17.4460   32.8600   37.2540 C.3    77  ARG77       0.0321
     43  CG        18.3450   31.6440   37.1000 C.3    77  ARG77       0.0489
     44  CD        19.8020   31.9840   37.3610 C.3    77  ARG77       0.2205
     45  NE        20.0230   32.4220   38.7360 N.pl3  77  ARG77      -0.0865
     46  CZ        20.1850   31.5980   39.7650 C.cat  77  ARG77       0.5346
     47  NH1       20.1470   30.2850   39.5790 N.pl3  77  ARG77       0.1354
     48  NH2       20.3830   32.0840   40.9830 N.pl3  77  ARG77       0.1354
     49  N         15.5960   32.1040   39.5910 N.am   78  ARG78      -0.1980
     50  CA        15.2700   31.2970   40.7600 C.3    78  ARG78       0.1597
     51  C         13.8180   30.8330   40.7130 C.2    78  ARG78       0.2287
     52  O         13.5130   29.6920   41.0530 O.2    78  ARG78      -0.2864
     53  CB        15.5340   32.0750   42.0500 C.3    78  ARG78       0.0334
     54  CG        17.0010   32.3920   42.3050 C.3    78  ARG78       0.0492
     55  CD        17.2160   32.8550   43.7390 C.3    78  ARG78       0.2205
     56  NE        18.6060   33.2160   44.0050 N.pl3  78  ARG78      -0.0865
     57  CZ        19.0710   34.4610   43.9850 C.cat  78  ARG78       0.5346
     58  NH1       18.2570   35.4710   43.7120 N.pl3  78  ARG78       0.1354
     59  NH2       20.3510   34.6980   44.2390 N.pl3  78  ARG78       0.1354
     60  N         13.5840   27.9460   38.3070 N.3    81  ALA81      -0.1231
     61  CA        14.1540   26.7380   38.8930 C.3    81  ALA81       0.1694
     62  C         13.2170   26.1400   39.9380 C.2    81  ALA81       0.2592
     63  O         13.1480   24.9210   40.0960 O.2    81  ALA81      -0.2718
     64  CB        15.5140   27.0380   39.5070 C.3    81  ALA81       0.0304
     65  N         12.4960   27.0060   40.6450 N.am   82  CYS82      -0.1970
     66  CA        11.5420   26.5700   41.6600 C.3    82  CYS82       0.1712
     67  C         10.3530   25.8650   41.0170 C.2    82  CYS82       0.2296
     68  O          9.9430   24.7930   41.4620 O.2    82  CYS82      -0.2864
     69  CB        11.0690   27.7600   42.4990 C.3    82  CYS82       0.0983
     70  SG         9.9600   27.3520   43.8780 S.3    82  CYS82      -0.0798
     71  N         10.4160   24.5120   38.1460 N.3    84  ARG84      -0.1231
     72  CA        11.0130   23.3170   37.5660 C.3    84  ARG84       0.1694
     73  C         11.0480   22.1750   38.5760 C.2    84  ARG84       0.2592
     74  O         10.6810   21.0440   38.2600 O.2    84  ARG84      -0.2718
     75  CB        12.4260   23.6270   37.0650 C.3    84  ARG84       0.0321
     76  CG        13.1280   22.4740   36.3700 C.3    84  ARG84       0.0489
     77  CD        14.5350   22.8820   35.9570 C.3    84  ARG84       0.2205
     78  NE        15.2350   21.8280   35.2290 N.pl3  84  ARG84      -0.0865
     79  CZ        15.9740   20.8850   35.8060 C.cat  84  ARG84       0.5346
     80  NH1       16.1080   20.8600   37.1250 N.pl3  84  ARG84       0.1354
     81  NH2       16.5770   19.9660   35.0640 N.pl3  84  ARG84       0.1354
     82  N         11.4840   22.4860   39.7940 N.am   85  ASP85      -0.1960
     83  CA        11.5560   21.5030   40.8700 C.3    85  ASP85       0.1840
     84  C         10.1870   20.9320   41.2160 C.2    85  ASP85       0.2622
     85  O         10.0470   19.7300   41.4380 O.2    85  ASP85      -0.2715
     86  CB        12.1840   22.1240   42.1180 C.3    85  ASP85       0.1450
     87  CG        13.6950   22.1570   42.0560 C.2    85  ASP85       0.3671
     88  OD1       14.2560   21.9530   40.9580 O.co2  85  ASP85      -0.2456
     89  OD2       14.3210   22.3920   43.1100 O.co2  85  ASP85      -0.2456
     90  N          9.1820   21.8010   41.2700 N.am   86  GLY86      -0.1954
     91  CA         7.8260   21.3810   41.5730 C.3    86  GLY86       0.1869
     92  C          7.2920   20.4200   40.5310 C.2    86  GLY86       0.2309
     93  O          6.6550   19.4190   40.8600 O.2    86  GLY86      -0.2863
     94  N          9.1730   18.5860   38.5480 N.3    88  ILE88      -0.1231
     95  CA         9.9980   17.3890   38.6560 C.3    88  ILE88       0.1692
     96  C          9.5050   16.4670   39.7680 C.2    88  ILE88       0.2591
     97  O          9.3840   15.2560   39.5750 O.2    88  ILE88      -0.2718
     98  CB        11.4720   17.7540   38.9080 C.3    88  ILE88       0.0266
     99  CG1       12.1140   18.2900   37.6270 C.3    88  ILE88       0.0019
    100  CG2       12.2400   16.5500   39.4040 C.3    88  ILE88       0.0020
    101  CD1       13.5440   18.7490   37.8070 C.3    88  ILE88       0.0001
    102  N          9.2150   17.0480   40.9290 N.am   89  ILE89      -0.1980
    103  CA         8.7170   16.2840   42.0680 C.3    89  ILE89       0.1595
    104  C          7.3830   15.6130   41.7430 C.2    89  ILE89       0.2287
    105  O          7.1760   14.4390   42.0560 O.2    89  ILE89      -0.2864
    106  CB         8.5580   17.1780   43.3160 C.3    89  ILE89       0.0276
    107  CG1        9.9320   17.5980   43.8420 C.3    89  ILE89       0.0022
    108  CG2        7.7800   16.4550   44.4040 C.3    89  ILE89       0.0022
    109  CD1        9.8750   18.5190   45.0420 C.3    89  ILE89       0.0001
    110  N          6.3550   14.8850   38.7880 N.3    91  ARG91      -0.1231
    111  CA         6.6210   13.9160   37.7300 C.3    91  ARG91       0.1694
    112  C          7.0540   12.5710   38.3000 C.2    91  ARG91       0.2592
    113  O          6.5720   11.5220   37.8710 O.2    91  ARG91      -0.2718
    114  CB         7.6860   14.4510   36.7690 C.3    91  ARG91       0.0321
    115  CG         8.0580   13.4840   35.6580 C.3    91  ARG91       0.0489
    116  CD         8.7590   14.1930   34.5080 C.3    91  ARG91       0.2205
    117  NE         9.9600   14.9010   34.9390 N.pl3  91  ARG91      -0.0865
    118  CZ        11.1610   14.3410   35.0440 C.cat  91  ARG91       0.5346
    119  NH1       11.3240   13.0570   34.7560 N.pl3  91  ARG91       0.1354
    120  NH2       12.1980   15.0640   35.4430 N.pl3  91  ARG91       0.1354
    121  N          7.9610   12.6040   39.2710 N.am   92  TYR92      -0.1976
    122  CA         8.4300   11.3790   39.9090 C.3    92  TYR92       0.1639
    123  C          7.3610   10.7870   40.8210 C.2    92  TYR92       0.2290
    124  O          7.3470    9.5810   41.0700 O.2    92  TYR92      -0.2864
    125  CB         9.7170   11.6380   40.6940 C.3    92  TYR92       0.0560
    126  CG        10.9540   11.6360   39.8260 C.ar   92  TYR92      -0.0198
    127  CD1       11.5230   10.4420   39.4030 C.ar   92  TYR92      -0.0009
    128  CD2       11.5510   12.8250   39.4250 C.ar   92  TYR92      -0.0009
    129  CE1       12.6510   10.4300   38.6080 C.ar   92  TYR92       0.0417
    130  CE2       12.6820   12.8230   38.6290 C.ar   92  TYR92       0.0417
    131  CZ        13.2270   11.6220   38.2240 C.ar   92  TYR92       0.1957
    132  OH        14.3520   11.6100   37.4310 O.3    92  TYR92      -0.2866
    133  N         15.6630    8.1050   42.3060 N.3   108  ARG108     -0.1231
    134  CA        15.9960    9.0120   41.2110 C.3   108  ARG108      0.1694
    135  C         15.5650   10.4570   41.4520 C.2   108  ARG108      0.2592
    136  O         15.6550   11.2870   40.5490 O.2   108  ARG108     -0.2718
    137  CB        15.3750    8.5020   39.9080 C.3   108  ARG108      0.0321
    138  CG        15.9010    7.1430   39.4650 C.3   108  ARG108      0.0489
    139  CD        14.8930    6.4170   38.5880 C.3   108  ARG108      0.2205
    140  NE        15.1410    6.6020   37.1610 N.pl3 108  ARG108     -0.0865
    141  CZ        15.4950    5.6220   36.3340 C.cat 108  ARG108      0.5346
    142  NH1       15.6390    4.3860   36.7930 N.pl3 108  ARG108      0.1354
    143  NH2       15.6990    5.8760   35.0480 N.pl3 108  ARG108      0.1354
    144  N         15.1030   10.7630   42.6600 N.am  109  CYS109     -0.1970
    145  CA        14.6800   12.1260   42.9730 C.3   109  CYS109      0.1712
    146  C         15.0500   12.5510   44.3910 C.2   109  CYS109      0.2296
    147  O         15.6560   13.6030   44.5930 O.2   109  CYS109     -0.2864
    148  CB        13.1700   12.2750   42.7700 C.3   109  CYS109      0.0983
    149  SG        12.5330   13.9330   43.1210 S.3   109  CYS109     -0.0798
    150  N         18.6510   14.9380   47.7190 N.3   113  LEU113     -0.1245
    151  CA        17.9440   16.1930   47.4780 C.3   113  LEU113      0.1561
    152  C         18.0520   17.1600   48.6540 C.2   113  LEU113      0.2260
    153  O         18.2770   18.3550   48.4600 O.2   113  LEU113     -0.2867
    154  CB        16.4700   15.9280   47.1620 C.3   113  LEU113      0.0270
    155  CG        15.6120   17.1770   46.9460 C.3   113  LEU113      0.0019
    156  CD1       16.2320   18.0820   45.8910 C.3   113  LEU113      0.0001
    157  CD2       14.1890   16.8000   46.5610 C.3   113  LEU113      0.0001
    158  N         21.5320   18.7960   48.6970 N.3   116  THR116     -0.1203
    159  CA        21.6920   19.8330   47.6840 C.3   116  THR116      0.1994
    160  C         20.8820   21.0690   48.0580 C.2   116  THR116      0.2617
    161  O         21.2970   22.1950   47.7920 O.2   116  THR116     -0.2717
    162  CB        21.2590   19.3500   46.2840 C.3   116  THR116      0.1784
    163  OG1       19.8390   19.1660   46.2530 O.3   116  THR116     -0.2211
    164  CG2       21.9540   18.0450   45.9250 C.3   116  THR116      0.0376
    165  N         19.7270   20.8520   48.6790 N.am  117  TYR117     -0.1975
    166  CA        18.8780   21.9530   49.1210 C.3   117  TYR117      0.1639
    167  C         19.5440   22.7570   50.2340 C.2   117  TYR117      0.2290
    168  O         19.5000   23.9880   50.2320 O.2   117  TYR117     -0.2864
    169  CB        17.5170   21.4320   49.5870 C.3   117  TYR117      0.0560
    170  CG        16.4750   21.3770   48.4910 C.ar  117  TYR117     -0.0198
    171  CD1       16.7420   21.8880   47.2280 C.ar  117  TYR117     -0.0009
    172  CD2       15.2220   20.8240   48.7220 C.ar  117  TYR117     -0.0009
    173  CE1       15.7930   21.8470   46.2240 C.ar  117  TYR117      0.0417
    174  CE2       14.2650   20.7800   47.7250 C.ar  117  TYR117      0.0417
    175  CZ        14.5560   21.2920   46.4790 C.ar  117  TYR117      0.1957
    176  OH        13.6100   21.2490   45.4810 O.3   117  TYR117     -0.2866
    177  N         22.4690   24.6480   48.5400 N.3   120  LEU120     -0.1245
    178  CA        22.0100   25.7630   47.7190 C.3   120  LEU120      0.1561
    179  C         21.3380   26.8380   48.5640 C.2   120  LEU120      0.2260
    180  O         21.3710   28.0200   48.2250 O.2   120  LEU120     -0.2867
    181  CB        21.0450   25.2720   46.6400 C.3   120  LEU120      0.0270
    182  CG        21.6370   24.3940   45.5380 C.3   120  LEU120      0.0019
    183  CD1       20.5230   23.6760   44.8010 C.3   120  LEU120      0.0001
    184  CD2       22.4760   25.2240   44.5780 C.3   120  LEU120      0.0001
    185  N         18.0400   26.4470   49.5510 N.3   122  VAL122     -0.1231
    186  CA        16.6020   26.3400   49.3330 C.3   122  VAL122      0.1678
    187  C         15.9110   26.0440   50.6570 C.2   122  VAL122      0.2434
    188  O         16.1560   25.0030   51.2660 O.2   122  VAL122     -0.2733
    189  CB        16.2540   25.2400   48.3120 C.3   122  VAL122      0.0265
    190  CG1       14.7440   25.0890   48.1860 C.3   122  VAL122      0.0020
    191  CG2       16.8780   25.5500   46.9600 C.3   122  VAL122      0.0020
    192  N         15.0480   26.9660   51.1100 N.am  123  PRO123     -0.2729
    193  CA        14.3760   26.8330   52.4080 C.3   123  PRO123      0.1401
    194  C         13.4710   25.6080   52.4520 C.2   123  PRO123      0.2269
    195  O         12.6400   25.4200   51.5630 O.2   123  PRO123     -0.2865
    196  CB        13.5660   28.1280   52.5200 C.3   123  PRO123      0.0296
    197  CG        13.3530   28.5630   51.1140 C.3   123  PRO123      0.0237
    198  CD        14.5860   28.1500   50.3670 C.3   123  PRO123      0.0939
    199  N          9.4160   26.1830   53.1130 N.3   126  SER126     -0.1202
    200  CA         8.6810   26.6100   51.9290 C.3   126  SER126      0.2020
    201  C          8.4960   25.4440   50.9640 C.2   126  SER126      0.2619
    202  O          7.4380   25.2910   50.3530 O.2   126  SER126     -0.2717
    203  CB         9.4040   27.7640   51.2290 C.3   126  SER126      0.2103
    204  OG         9.5170   28.8900   52.0810 O.3   126  SER126     -0.2182
    205  N          9.5360   24.6250   50.8360 N.am  127  SER127     -0.1951
    206  CA         9.5010   23.4580   49.9620 C.3   127  SER127      0.1924
    207  C          8.4400   22.4600   50.4140 C.2   127  SER127      0.2314
    208  O          7.6970   21.9210   49.5950 O.2   127  SER127     -0.2863
    209  CB        10.8730   22.7820   49.9170 C.3   127  SER127      0.2116
    210  OG        11.8550   23.6480   49.3770 O.3   127  SER127     -0.2180
    211  N          5.0230   23.8150   49.4420 N.3   130  ALA130     -0.1245
    212  CA         4.7450   23.6270   48.0210 C.3   130  ALA130      0.1562
    213  C          4.3400   22.1840   47.7400 C.2   130  ALA130      0.2260
    214  O          3.4170   21.9260   46.9670 O.2   130  ALA130     -0.2867
    215  CB         5.9550   24.0150   47.1850 C.3   130  ALA130      0.0290
@<TRIPOS>BOND
     1   116   117    1
     2   116   115    1
     3   119   118    1
     4   117   118    2
     5   118   120    1
     6   143   141    1
     7    81    79    1
     8    78    79    2
     9    78    77    1
    10   115   114    1
    11    79    80    1
    12    77    76    1
    13   141   142    1
    14   141   140    2
    15    76    75    1
    16   114   111    1
    17    75    72    1
    18    43    42    1
    19    43    44    1
    20   140   139    1
    21    39    42    1
    22    39    38    1
    23    39    40    1
    24    44    45    1
    25   132   131    1
    26    72    71    1
    27    72    73    1
    28    99   101    1
    29    99    98    1
    30   111   112    1
    31   111   110    1
    32   113   112    2
    33    41    40    2
    34   131   129   ar
    35   131   130   ar
    36    74    73    2
    37   112   121   am
    38    60    61    1
    39    40    49   am
    40    94    95    1
    41    73    82   am
    42   139   138    1
    43   129   127   ar
    44   130   128   ar
    45    95    98    1
    46    95    96    1
    47    45    46    2
    48    61    64    1
    49    61    62    1
    50    98   100    1
    51   121   122    1
    52   127   126   ar
    53   128   126   ar
    54   138   137    1
    55    97    96    2
    56    47    46    1
    57    49    50    1
    58    46    48    1
    59    96   102   am
    60    82    83    1
    61   126   125    1
    62   137   134    1
    63   122   125    1
    64   122   123    1
    65    62    63    2
    66    62    65   am
    67    92    93    2
    68    92    91    1
    69   136   135    2
    70    65    66    1
    71    51    50    1
    72    51    52    2
    73    50    53    1
    74   123   124    2
    75    83    84    1
    76    83    86    1
    77   102   103    1
    78    88    87   ar
    79    67    68    2
    80    67    66    1
    81   134   135    1
    82   134   133    1
    83    84    90   am
    84    84    85    2
    85    90    91    1
    86   135   144   am
    87    66    69    1
    88   104   105    2
    89   104   103    1
    90    53    54    1
    91    87    86    1
    92    87    89   ar
    93   103   106    1
    94    54    55    1
    95     7     5    1
    96    69    70    1
    97     5     6    1
    98     5     2    1
    99   144   145    1
   100   148   145    1
   101   148   149    1
   102    35    34    2
   103   145   146    1
   104   106   107    1
   105   106   108    1
   106    58    57    1
   107    55    56    1
   108     1     2    1
   109   107   109    1
   110    34    33    1
   111     2     3    1
   112    57    56    2
   113    57    59    1
   114     3     4    2
   115   146   147    2
   116    33    36    1
   117    33    32    1
   118   184   182    1
   119   183   182    1
   120    36    37    1
   121    27    26    2
   122   176   175    1
   123   182   181    1
   124    32    26   am
   125   156   155    1
   126   164   162    1
   127    26    25    1
   128   173   175   ar
   129   173   171   ar
   130   163   162    1
   131   162   159    1
   132    15    14    1
   133   175   174   ar
   134   157   155    1
   135   181   178    1
   136    30    29    2
   137   155   154    1
   138   191   189    1
   139   214   213    2
   140    19    18    2
   141   154   151    1
   142   215   212    1
   143   171   170   ar
   144    25    28    1
   145    25    24    1
   146    29    31   am
   147    29    28    1
   148   151   150    1
   149   151   152    1
   150   159   160    1
   151   159   158    1
   152   178   177    1
   153   178   179    1
   154   174   172   ar
   155   213   212    1
   156    18    17    1
   157     8     9    1
   158    14    13    1
   159   161   160    2
   160    12     9    1
   161    12    13    1
   162   212   211    1
   163   160   165   am
   164   190   189    1
   165   180   179    2
   166   189   186    1
   167   153   152    2
   168   170   172   ar
   169   170   169    1
   170     9    10    1
   171    20    17    1
   172    20    21    1
   173   165   166    1
   174    10    11    2
   175    22    21    1
   176    17    16    1
   177   166   169    1
   178   166   167    1
   179   186   185    1
   180   186   187    1
   181   210   209    1
   182   208   207    2
   183    21    23    1
   184   209   206    1
   185   206   207    1
   186   206   205    1
   187   168   167    2
   188   202   201    2
   189   198   192    1
   190   198   197    1
   191   187   192   am
   192   187   188    2
   193   205   201   am
   194   201   200    1
   195   192   193    1
   196   197   196    1
   197   203   200    1
   198   203   204    1
   199   195   194    2
   200   200   199    1
   201   193   194    1
   202   193   196    1
