@<TRIPOS>MOLECULE
tmp/5b13J03.pdb
 142 133 0 0 0
SMALL
GASTEIGER

@<TRIPOS>ATOM
      1  N         -3.5340   17.5600   34.5130 N.3    47  ASN47      -0.1240
      2  CA        -3.6070   18.8340   35.2180 C.3    47  ASN47       0.1653
      3  C         -2.2700   19.2270   35.8390 C.2    47  ASN47       0.2266
      4  O         -2.2300   19.9950   36.7990 O.2    47  ASN47      -0.2867
      5  CB        -4.6840   18.7800   36.3030 C.3    47  ASN47       0.1155
      6  CG        -6.0580   18.4660   35.7460 C.2    47  ASN47       0.2627
      7  OD1       -6.7620   19.3520   35.2620 O.2    47  ASN47      -0.2716
      8  ND2       -6.4500   17.1990   35.8170 N.am   47  ASN47      -0.0877
      9  N         -1.3340   23.0270   36.0630 N.3    50  CYS50      -0.1235
     10  CA        -2.1430   23.7050   37.0660 C.3    50  CYS50       0.1677
     11  C         -1.6860   23.3580   38.4780 C.2    50  CYS50       0.2270
     12  O         -1.5550   24.2410   39.3220 O.2    50  CYS50      -0.2867
     13  CB        -3.6200   23.3550   36.9040 C.3    50  CYS50       0.0956
     14  SG        -4.4830   23.2220   38.4830 S.3    50  CYS50      -0.0801
     15  N          1.9050   25.1810   39.1870 N.3    53  SER53      -0.1202
     16  CA         1.8030   26.6360   39.2590 C.3    53  SER53       0.2020
     17  C          1.0450   27.0880   40.5010 C.2    53  SER53       0.2618
     18  O          1.4830   27.9880   41.2150 O.2    53  SER53      -0.2717
     19  CB         1.1150   27.1890   38.0100 C.3    53  SER53       0.2103
     20  OG        -0.2500   26.8120   37.9690 O.3    53  SER53      -0.2182
     21  N         -0.0930   26.4480   40.7500 N.am   54  ASP54      -0.1973
     22  CA        -0.9550   26.7970   41.8730 C.3    54  ASP54       0.1709
     23  C         -0.2640   26.5910   43.2170 C.2    54  ASP54       0.2293
     24  O         -0.4480   27.3780   44.1460 O.2    54  ASP54      -0.2864
     25  CB        -2.2470   25.9790   41.8150 C.3    54  ASP54       0.1436
     26  CG        -3.1180   26.1760   43.0360 C.2    54  ASP54       0.3671
     27  OD1       -3.8260   27.2020   43.1040 O.co2  54  ASP54      -0.2456
     28  OD2       -3.0980   25.2990   43.9250 O.co2  54  ASP54      -0.2456
     29  N          2.6200   29.1790   43.5460 N.3    57  SER57      -0.1202
     30  CA         1.9830   30.4680   43.7910 C.3    57  SER57       0.2020
     31  C          1.4260   30.5380   45.2080 C.2    57  SER57       0.2619
     32  O          1.5070   31.5750   45.8650 O.2    57  SER57      -0.2717
     33  CB         0.8680   30.7240   42.7760 C.3    57  SER57       0.2103
     34  OG         1.3880   30.8290   41.4620 O.3    57  SER57      -0.2182
     35  N          0.8570   29.4290   45.6720 N.am   58  GLY58      -0.1956
     36  CA         0.3270   29.3500   47.0200 C.3    58  GLY58       0.1869
     37  C          1.4310   29.4670   48.0480 C.2    58  GLY58       0.2309
     38  O          1.2690   30.1070   49.0860 O.2    58  GLY58      -0.2863
     39  N          2.4470   33.2430   47.9710 N.3    61  CYS61      -0.1221
     40  CA         1.4370   34.1700   48.4620 C.3    61  CYS61       0.1808
     41  C          1.1730   33.9710   49.9630 C.2    61  CYS61       0.2601
     42  O          0.5010   34.7870   50.5940 O.2    61  CYS61      -0.2717
     43  CB         0.1450   34.0200   47.6480 C.3    61  CYS61       0.0970
     44  SG        -0.9020   32.6550   48.1620 S.3    61  CYS61      -0.0800
     45  N          1.7160   32.8940   50.5290 N.am   62  GLU62      -0.1979
     46  CA         1.6330   32.6490   51.9700 C.3    62  GLU62       0.1602
     47  C          2.9020   33.1070   52.6870 C.2    62  GLU62       0.2287
     48  O          2.9260   33.2380   53.9120 O.2    62  GLU62      -0.2864
     49  CB         1.3840   31.1670   52.2580 C.3    62  GLU62       0.0415
     50  CG        -0.0260   30.6950   51.9510 C.3    62  GLU62       0.1163
     51  CD        -0.2400   29.2400   52.3180 C.2    62  GLU62       0.3649
     52  OE1        0.6960   28.6220   52.8650 O.co2  62  GLU62      -0.2457
     53  OE2       -1.3430   28.7140   52.0610 O.co2  62  GLU62      -0.2457
     54  N          5.8150   23.1680   52.0780 N.3   129  ARG129     -0.1245
     55  CA         4.5310   23.8070   51.8200 C.3   129  ARG129      0.1563
     56  C          4.0940   23.6110   50.3710 C.2   129  ARG129      0.2260
     57  O          2.9380   23.2820   50.1050 O.2   129  ARG129     -0.2867
     58  CB         4.6030   25.2970   52.1520 C.3   129  ARG129      0.0307
     59  CG         3.4950   25.7940   53.0670 C.3   129  ARG129      0.0489
     60  CD         2.1460   25.8310   52.3650 C.3   129  ARG129      0.2205
     61  NE         1.3000   24.6950   52.7190 N.pl3 129  ARG129     -0.0865
     62  CZ        -0.0260   24.6940   52.6190 C.cat 129  ARG129      0.5346
     63  NH1       -0.6610   25.7730   52.1810 N.pl3 129  ARG129      0.1354
     64  NH2       -0.7190   23.6180   52.9620 N.pl3 129  ARG129      0.1354
     65  N          3.0680   20.1620   50.0220 N.3   132  SER132     -0.1202
     66  CA         1.8010   19.9810   50.7230 C.3   132  SER132      0.2020
     67  C          0.6100   20.4330   49.8820 C.2   132  SER132      0.2618
     68  O         -0.4230   19.7660   49.8490 O.2   132  SER132     -0.2717
     69  CB         1.8160   20.7400   52.0520 C.3   132  SER132      0.2103
     70  OG         0.5840   20.5920   52.7360 O.3   132  SER132     -0.2182
     71  N          0.7580   21.5690   49.2060 N.am  133  ILE133     -0.1979
     72  CA        -0.3060   22.0850   48.3540 C.3   133  ILE133      0.1595
     73  C         -0.4770   21.2030   47.1210 C.2   133  ILE133      0.2287
     74  O         -1.6010   20.9320   46.6950 O.2   133  ILE133     -0.2864
     75  CB        -0.0360   23.5370   47.9150 C.3   133  ILE133      0.0276
     76  CG1        0.1350   24.4390   49.1380 C.3   133  ILE133      0.0022
     77  CG2       -1.1720   24.0520   47.0430 C.3   133  ILE133      0.0022
     78  CD1        0.4650   25.8750   48.7960 C.3   133  ILE133      0.0001
     79  N         -2.5270   18.2180   48.0440 N.3   136  ALA136     -0.1231
     80  CA        -3.9500   18.5220   48.1410 C.3   136  ALA136      0.1694
     81  C         -4.6230   18.5230   46.7720 C.2   136  ALA136      0.2592
     82  O         -5.6510   17.8770   46.5790 O.2   136  ALA136     -0.2718
     83  CB        -4.1550   19.8630   48.8310 C.3   136  ALA136      0.0304
     84  N         -4.0320   19.2450   45.8260 N.am  137  SER137     -0.1952
     85  CA        -4.5980   19.3740   44.4870 C.3   137  SER137      0.1924
     86  C         -4.5550   18.0640   43.7040 C.2   137  SER137      0.2314
     87  O         -5.5390   17.6820   43.0710 O.2   137  SER137     -0.2863
     88  CB        -3.8650   20.4680   43.7090 C.3   137  SER137      0.2116
     89  OG        -2.4660   20.2510   43.7160 O.3   137  SER137     -0.2180
     90  N         -6.8390   15.5740   44.9910 N.3   140  ALA140     -0.1231
     91  CA        -8.1820   16.0500   44.6830 C.3   140  ALA140      0.1694
     92  C         -8.6190   15.5850   43.2990 C.2   140  ALA140      0.2592
     93  O         -9.7480   15.1310   43.1170 O.2   140  ALA140     -0.2718
     94  CB        -8.2480   17.5660   44.7780 C.3   140  ALA140      0.0304
     95  N         -7.7190   15.7030   42.3260 N.am  141  PHE141     -0.1976
     96  CA        -8.0100   15.2760   40.9610 C.3   141  PHE141      0.1639
     97  C         -8.1880   13.7620   40.8850 C.2   141  PHE141      0.2290
     98  O         -8.9490   13.2600   40.0580 O.2   141  PHE141     -0.2864
     99  CB        -6.9030   15.7250   40.0030 C.3   141  PHE141      0.0560
    100  CG        -6.9900   17.1750   39.6110 C.ar  141  PHE141     -0.0200
    101  CD1       -8.0110   17.6220   38.7880 C.ar  141  PHE141     -0.0042
    102  CD2       -6.0450   18.0860   40.0530 C.ar  141  PHE141     -0.0042
    103  CE1       -8.0940   18.9530   38.4210 C.ar  141  PHE141     -0.0003
    104  CE2       -6.1220   19.4180   39.6890 C.ar  141  PHE141     -0.0003
    105  CZ        -7.1480   19.8520   38.8720 C.ar  141  PHE141     -0.0000
    106  N        -12.4780   15.4170   43.4180 N.3   145  THR145     -0.1203
    107  CA       -13.0780   16.4020   44.3100 C.3   145  THR145      0.1994
    108  C        -12.5560   17.8140   44.0360 C.2   145  THR145      0.2618
    109  O        -12.8960   18.7570   44.7540 O.2   145  THR145     -0.2717
    110  CB       -12.8290   16.0370   45.7920 C.3   145  THR145      0.1784
    111  OG1      -13.7780   16.7160   46.6250 O.3   145  THR145     -0.2211
    112  CG2      -11.4160   16.4070   46.2200 C.3   145  THR145      0.0376
    113  N        -11.7410   17.9540   42.9930 N.am  146  ALA146     -0.1965
    114  CA       -11.2030   19.2560   42.5990 C.3   146  ALA146      0.1728
    115  C        -12.3270   20.2460   42.2990 C.2   146  ALA146      0.2617
    116  O        -13.2510   19.9410   41.5470 O.2   146  ALA146     -0.2715
    117  CB       -10.2870   19.1100   41.3940 C.3   146  ALA146      0.0334
    118  N        -12.2290   21.4350   42.8860 N.am  147  SER147     -0.1936
    119  CA       -13.3250   22.4010   42.8830 C.3   147  SER147      0.2055
    120  C        -13.7120   22.9260   41.4990 C.2   147  SER147      0.2643
    121  O        -14.8850   23.2070   41.2510 O.2   147  SER147     -0.2714
    122  CB       -12.9740   23.5860   43.7870 C.3   147  SER147      0.2130
    123  OG       -11.8440   24.2860   43.2950 O.3   147  SER147     -0.2179
    124  N        -12.7400   23.0640   40.6040 N.am  148  ASP148     -0.1957
    125  CA       -13.0030   23.6900   39.3090 C.3   148  ASP148      0.1840
    126  C        -13.0630   22.7070   38.1420 C.2   148  ASP148      0.2621
    127  O        -13.4960   23.0710   37.0490 O.2   148  ASP148     -0.2715
    128  CB       -11.9480   24.7600   39.0140 C.3   148  ASP148      0.1450
    129  CG       -12.0870   25.9780   39.9050 C.2   148  ASP148      0.3671
    130  OD1      -12.8270   25.9020   40.9090 O.co2 148  ASP148     -0.2456
    131  OD2      -11.4530   27.0110   39.6040 O.co2 148  ASP148     -0.2456
    132  N        -12.6310   21.4690   38.3590 N.am  149  ARG149     -0.1977
    133  CA       -12.6620   20.4830   37.2820 C.3   149  ARG149      0.1597
    134  C        -12.8110   19.0470   37.7760 C.2   149  ARG149      0.2287
    135  O        -12.0470   18.5840   38.6230 O.2   149  ARG149     -0.2864
    136  CB       -11.3990   20.5950   36.4230 C.3   149  ARG149      0.0334
    137  CG       -11.4030   19.6610   35.2230 C.3   149  ARG149      0.0492
    138  CD       -10.1340   19.7840   34.3980 C.3   149  ARG149      0.2205
    139  NE       -10.1540   18.8810   33.2500 N.pl3 149  ARG149     -0.0865
    140  CZ        -9.1550   18.7460   32.3840 C.cat 149  ARG149      0.5346
    141  NH1       -8.0440   19.4550   32.5320 N.pl3 149  ARG149      0.1354
    142  NH2       -9.2650   17.8980   31.3700 N.pl3 149  ARG149      0.1354
@<TRIPOS>BOND
     1   142   140    1
     2   140   141    1
     3   140   139    2
     4   139   138    1
     5   138   137    1
     6     1     2    1
     7     2     3    1
     8     2     5    1
     9   137   136    1
    10     7     6    2
    11     6     8   am
    12     6     5    1
    13     3     4    2
    14     9    10    1
    15   136   133    1
    16    13    10    1
    17    13    14    1
    18   127   126    2
    19    10    11    1
    20   133   134    1
    21   133   132    1
    22   134   135    2
    23    20    19    1
    24    19    16    1
    25   126   132   am
    26   126   125    1
    27   103   101   ar
    28   103   105   ar
    29    11    12    2
    30   101   100   ar
    31   105   104   ar
    32   128   125    1
    33   128   129    1
    34    15    16    1
    35    16    17    1
    36   125   124    1
    37   131   129   ar
    38   100    99    1
    39   100   102   ar
    40   104   102   ar
    41   129   130   ar
    42    99    96    1
    43    98    97    2
    44    17    21   am
    45    17    18    2
    46   124   120   am
    47    21    22    1
    48    97    96    1
    49    96    95    1
    50   121   120    2
    51   117   114    1
    52    34    33    1
    53   120   119    1
    54   116   115    2
    55    25    22    1
    56    25    26    1
    57    22    23    1
    58   115   114    1
    59   115   118   am
    60    95    92   am
    61   114   113    1
    62    33    30    1
    63   119   118    1
    64   119   122    1
    65   113   108   am
    66    26    27   ar
    67    26    28   ar
    68    87    86    2
    69    93    92    2
    70    23    24    2
    71   123   122    1
    72    92    91    1
    73   106   107    1
    74    29    30    1
    75    86    85    1
    76    88    89    1
    77    88    85    1
    78    30    31    1
    79   108   107    1
    80   108   109    2
    81   107   110    1
    82    85    84    1
    83    91    94    1
    84    91    90    1
    85    31    35   am
    86    31    32    2
    87    35    36    1
    88   110   112    1
    89   110   111    1
    90    84    81   am
    91    82    81    2
    92    74    73    2
    93    81    80    1
    94    36    37    1
    95    77    75    1
    96    73    72    1
    97    43    44    1
    98    43    40    1
    99    75    72    1
   100    75    76    1
   101    39    40    1
   102    79    80    1
   103    37    38    2
   104    80    83    1
   105    72    71    1
   106    40    41    1
   107    78    76    1
   108    71    67   am
   109    68    67    2
   110    67    66    1
   111    41    45   am
   112    41    42    2
   113    65    66    1
   114    57    56    2
   115    56    55    1
   116    45    46    1
   117    66    69    1
   118    55    54    1
   119    55    58    1
   120    50    49    1
   121    50    51    1
   122    46    49    1
   123    46    47    1
   124    69    70    1
   125    53    51   ar
   126    58    59    1
   127    63    62    1
   128    51    52   ar
   129    60    61    1
   130    60    59    1
   131    62    61    2
   132    62    64    1
   133    47    48    2
