@<TRIPOS>MOLECULE
tmp/5b15A00.pdb
 135 130 0 0 0
SMALL
GASTEIGER

@<TRIPOS>ATOM
      1  N          6.9070  -12.8810    2.5290 N.3     3  TRP3       -0.1241
      2  CA         5.7030  -12.1580    2.1760 C.3     3  TRP3        0.1605
      3  C          4.4950  -12.5300    3.0020 C.2     3  TRP3        0.2264
      4  O          3.5990  -11.7140    3.1810 O.2     3  TRP3       -0.2867
      5  CB         5.3090  -12.3840    0.7370 C.3     3  TRP3        0.0550
      6  CG         6.2080  -11.8490   -0.3070 C.ar    3  TRP3        0.0003
      7  CD1        7.2650  -11.0020   -0.1540 C.ar    3  TRP3        0.0946
      8  CD2        6.1210  -12.1540   -1.6990 C.ar    3  TRP3        0.0152
      9  NE1        7.8300  -10.7490   -1.3930 N.ar    3  TRP3       -0.2442
     10  CE2        7.1460  -11.4530   -2.3430 C.ar    3  TRP3        0.0810
     11  CE3        5.2600  -12.9580   -2.4620 C.ar    3  TRP3        0.0012
     12  CZ2        7.3280  -11.5180   -3.7290 C.ar    3  TRP3        0.0191
     13  CZ3        5.4610  -13.0420   -3.8440 C.ar    3  TRP3        0.0001
     14  CH2        6.4960  -12.3470   -4.4440 C.ar    3  TRP3        0.0015
     15  N         -0.0770   -6.6850   -7.9470 N.3    72  HIS72      -0.1226
     16  CA         0.7690   -7.8770   -7.9950 C.3    72  HIS72       0.1752
     17  C          0.4690   -8.7550   -6.7900 C.2    72  HIS72       0.2596
     18  O         -0.0270   -8.2690   -5.7550 O.2    72  HIS72      -0.2718
     19  CB         2.2610   -7.4910   -7.9820 C.3    72  HIS72       0.0759
     20  CG         2.7170   -6.8330   -9.2390 C.ar   72  HIS72       0.0818
     21  ND1        3.8000   -5.9930   -9.2660 N.ar   72  HIS72      -0.2268
     22  CD2        2.2510   -6.8870  -10.5070 C.ar   72  HIS72       0.1154
     23  CE1        4.0080   -5.5840  -10.5070 C.ar   72  HIS72       0.1986
     24  NE2        3.0760   -6.1090  -11.2780 N.ar   72  HIS72      -0.2212
     25  N          0.8410  -10.0330   -6.8980 N.am   73  GLU73      -0.1965
     26  CA         0.4660  -11.0260   -5.9160 C.3    73  GLU73       0.1733
     27  C          0.9460  -10.7090   -4.5310 C.2    73  GLU73       0.2616
     28  O          0.2730  -11.0700   -3.5400 O.2    73  GLU73      -0.2715
     29  CB         1.0230  -12.4120   -6.3050 C.3    73  GLU73       0.0429
     30  CG         2.5320  -12.5890   -6.1560 C.3    73  GLU73       0.1163
     31  CD         3.0250  -14.0030   -6.4740 C.2    73  GLU73       0.3649
     32  OE1        4.1000  -14.1080   -7.0920 O.co2  73  GLU73      -0.2457
     33  OE2        2.4060  -14.9600   -5.9680 O.co2  73  GLU73      -0.2457
     34  N          2.0910  -10.0380   -4.3900 N.am   74  ASP74      -0.1957
     35  CA         2.6370   -9.7630   -3.0620 C.3    74  ASP74       0.1840
     36  C          1.8770   -8.7010   -2.2600 C.2    74  ASP74       0.2622
     37  O          1.8370   -8.7950   -1.0330 O.2    74  ASP74      -0.2715
     38  CB         4.1470   -9.4810   -3.0810 C.3    74  ASP74       0.1450
     39  CG         4.5830   -8.4210   -4.0900 C.2    74  ASP74       0.3671
     40  OD1        3.9290   -8.2000   -5.1760 O.co2  74  ASP74      -0.2456
     41  OD2        5.6750   -7.8530   -3.7960 O.co2  74  ASP74      -0.2456
     42  N          1.2680   -7.7390   -2.9470 N.am   75  HIS75      -0.1973
     43  CA         0.4960   -6.6690   -2.2820 C.3    75  HIS75       0.1656
     44  C         -1.0010   -6.8990   -2.3360 C.2    75  HIS75       0.2291
     45  O         -1.7400   -6.4540   -1.4410 O.2    75  HIS75      -0.2864
     46  CB         0.8470   -5.3170   -2.9190 C.3    75  HIS75       0.0771
     47  CG         2.3090   -5.0880   -3.0180 C.ar   75  HIS75       0.0820
     48  ND1        3.0700   -4.7090   -1.9250 N.ar   75  HIS75      -0.2267
     49  CD2        3.1830   -5.3470   -4.0220 C.ar   75  HIS75       0.1154
     50  CE1        4.3560   -4.7390   -2.2740 C.ar   75  HIS75       0.1986
     51  NE2        4.4540   -5.1360   -3.5340 N.ar   75  HIS75      -0.2212
     52  N          7.0530   -6.8160  -15.8930 N.3   111  GLN111     -0.1245
     53  CA         7.2970   -8.1390  -15.3860 C.3   111  GLN111      0.1566
     54  C          6.4420   -9.2260  -16.0600 C.2   111  GLN111      0.2260
     55  O          6.5530  -10.3750  -15.6710 O.2   111  GLN111     -0.2867
     56  CB         7.1690   -8.1830  -13.8660 C.3   111  GLN111      0.0367
     57  CG         8.1670   -7.3130  -13.1280 C.3   111  GLN111      0.0905
     58  CD         8.0570   -7.5110  -11.6440 C.2   111  GLN111      0.2608
     59  OE1        8.5890   -8.4970  -11.1090 O.2   111  GLN111     -0.2717
     60  NE2        7.3530   -6.6190  -10.9550 N.am  111  GLN111     -0.0878
     61  N          5.3850  -12.9790  -13.7170 N.3   115  LEU115     -0.1245
     62  CA         4.4890  -12.7920  -12.5680 C.3   115  LEU115      0.1561
     63  C          3.6400  -14.0370  -12.3330 C.2   115  LEU115      0.2260
     64  O          3.2790  -14.7270  -13.2940 O.2   115  LEU115     -0.2867
     65  CB         3.5730  -11.6000  -12.8250 C.3   115  LEU115      0.0270
     66  CG         4.2790  -10.2340  -12.9030 C.3   115  LEU115      0.0019
     67  CD1        3.3810   -9.1700  -13.5220 C.3   115  LEU115      0.0001
     68  CD2        4.6490   -9.8060  -11.5000 C.3   115  LEU115      0.0001
     69  N          5.6730    1.1260  -12.1210 N.3   148  HIS148     -0.1241
     70  CA         5.7850   -0.2670  -11.7430 C.3   148  HIS148      0.1621
     71  C          4.5220   -1.0480  -12.2110 C.2   148  HIS148      0.2264
     72  O          4.6260   -2.2000  -12.6420 O.2   148  HIS148     -0.2867
     73  CB         6.0470   -0.3380  -10.2270 C.3   148  HIS148      0.0745
     74  CG         6.2030   -1.7250   -9.6720 C.ar  148  HIS148      0.0817
     75  ND1        7.3870   -2.4260   -9.6740 N.ar  148  HIS148     -0.2268
     76  CD2        5.3100   -2.5230   -9.0440 C.ar  148  HIS148      0.1154
     77  CE1        7.2220   -3.5760   -9.0270 C.ar  148  HIS148      0.1986
     78  NE2        5.9580   -3.6770   -8.6870 N.ar  148  HIS148     -0.2212
     79  N          5.1360    1.0320   -4.7230 N.3   173  SER173     -0.1217
     80  CA         6.4270    0.7410   -5.3260 C.3   173  SER173      0.1889
     81  C          6.6900    1.6010   -6.5670 C.2   173  SER173      0.2288
     82  O          5.8200    1.7460   -7.4090 O.2   173  SER173     -0.2866
     83  CB         6.4720   -0.7350   -5.6580 C.3   173  SER173      0.2089
     84  OG         6.2230   -1.4760   -4.4730 O.3   173  SER173     -0.2183
     85  N          9.5710    0.9130   -8.5020 N.3   175  THR175     -0.1218
     86  CA        10.7120    0.1590   -8.9950 C.3   175  THR175      0.1862
     87  C         10.5980   -0.3280  -10.4330 C.2   175  THR175      0.2287
     88  O          9.6240   -0.9620  -10.8190 O.2   175  THR175     -0.2866
     89  CB        10.9560   -1.0710   -8.1050 C.3   175  THR175      0.1770
     90  OG1        9.7960   -1.9060   -8.1080 O.3   175  THR175     -0.2211
     91  CG2       11.2930   -0.6450   -6.6930 C.3   175  THR175      0.0375
     92  N         11.5550   -2.9480  -12.5910 N.3   177  VAL177     -0.1245
     93  CA        11.9410   -4.3460  -12.6360 C.3   177  VAL177      0.1561
     94  C         11.2600   -4.9920  -13.7980 C.2   177  VAL177      0.2260
     95  O         10.1370   -4.6590  -14.1330 O.2   177  VAL177     -0.2867
     96  CB        11.5750   -5.0670  -11.3560 C.3   177  VAL177      0.0252
     97  CG1       12.4750   -4.6570  -10.2400 C.3   177  VAL177      0.0019
     98  CG2       10.1840   -4.8310  -10.9340 C.3   177  VAL177      0.0019
     99  N          6.7910   -2.3630    0.3740 N.3   213  HIS213     -0.1241
    100  CA         7.7980   -3.2440    0.9970 C.3   213  HIS213      0.1621
    101  C          8.4250   -2.4770    2.1550 C.2   213  HIS213      0.2264
    102  O          9.0740   -1.4630    1.9450 O.2   213  HIS213     -0.2867
    103  CB         8.8830   -3.6270   -0.0260 C.3   213  HIS213      0.0745
    104  CG         8.4020   -4.5770   -1.0650 C.ar  213  HIS213      0.0817
    105  ND1        8.4410   -5.9460   -0.9120 N.ar  213  HIS213     -0.2268
    106  CD2        7.7670   -4.3510   -2.2410 C.ar  213  HIS213      0.1154
    107  CE1        7.8610   -6.5220   -1.9480 C.ar  213  HIS213      0.1986
    108  NE2        7.4120   -5.5770   -2.7530 N.ar  213  HIS213     -0.2212
    109  N         10.6910   -2.5010    4.3500 N.3   215  GLU215     -0.1231
    110  CA        12.1300   -2.2340    4.4810 C.3   215  GLU215      0.1699
    111  C         12.6070   -1.1080    3.6040 C.2   215  GLU215      0.2592
    112  O         13.6970   -0.5440    3.8260 O.2   215  GLU215     -0.2718
    113  CB        12.9700   -3.4930    4.1890 C.3   215  GLU215      0.0402
    114  CG        12.8700   -4.0750    2.7880 C.3   215  GLU215      0.1161
    115  CD        11.6310   -4.9560    2.4730 C.2   215  GLU215      0.3649
    116  OE1       10.5880   -4.9670    3.1360 O.co2 215  GLU215     -0.2457
    117  OE2       11.7000   -5.7970    1.5500 O.co2 215  GLU215     -0.2457
    118  N         11.8290   -0.7650    2.5830 N.am  216  VAL216     -0.1980
    119  CA        12.1710    0.3670    1.7530 C.3   216  VAL216      0.1595
    120  C         12.3690    1.6710    2.5290 C.2   216  VAL216      0.2287
    121  O         13.2830    2.4510    2.1810 O.2   216  VAL216     -0.2864
    122  CB        11.1790    0.4770    0.5680 C.3   216  VAL216      0.0276
    123  CG1       11.2730    1.8190   -0.1460 C.3   216  VAL216      0.0022
    124  CG2       11.4300   -0.6810   -0.3680 C.3   216  VAL216      0.0022
    125  N         17.3720    3.3770   -9.4450 N.3   250  ARG250     -0.1245
    126  CA        17.1710    2.0670  -10.0250 C.3   250  ARG250      0.1563
    127  C         16.8630    2.1720  -11.5320 C.2   250  ARG250      0.2260
    128  O         17.4160    1.4260  -12.3480 O.2   250  ARG250     -0.2867
    129  CB        16.0430    1.3510   -9.2960 C.3   250  ARG250      0.0307
    130  CG        15.7660   -0.0450   -9.7900 C.3   250  ARG250      0.0489
    131  CD        14.8830   -0.8040   -8.8250 C.3   250  ARG250      0.2205
    132  NE        14.7930   -2.2180   -9.2130 N.pl3 250  ARG250     -0.0865
    133  CZ        14.5510   -3.2200   -8.3800 C.cat 250  ARG250      0.5346
    134  NH1       14.4550   -4.4530   -8.8640 N.pl3 250  ARG250      0.1354
    135  NH2       14.2430   -2.9840   -7.1290 N.pl3 250  ARG250      0.1354
@<TRIPOS>BOND
     1    54    55    2
     2    54    53    1
     3    52    53    1
     4    53    56    1
     5    95    94    2
     6    56    57    1
     7    94    93    1
     8    61    62    1
     9    67    66    1
    10    64    63    2
    11    57    58    1
    12    66    65    1
    13    66    68    1
    14    65    62    1
    15    72    71    2
    16    93    92    1
    17    93    96    1
    18    62    63    1
    19   128   127    2
    20    71    70    1
    21    69    70    1
    22    70    73    1
    23    58    59    2
    24    58    60   am
    25   127   126    1
    26    96    98    1
    27    96    97    1
    28    24    23   ar
    29    24    22   ar
    30    88    87    2
    31    23    21   ar
    32    22    20   ar
    33    87    86    1
    34    73    74    1
    35   126   125    1
    36   126   129    1
    37   130   129    1
    38   130   131    1
    39    75    74   ar
    40    75    77   ar
    41    74    76   ar
    42    21    20   ar
    43    20    19    1
    44   132   131    1
    45   132   133    2
    46    76    78   ar
    47    77    78   ar
    48    86    85    1
    49    86    89    1
    50   134   133    1
    51   133   135    1
    52    90    89    1
    53    89    91    1
    54    16    19    1
    55    16    15    1
    56    16    17    1
    57    82    81    2
    58    32    31   ar
    59    25    17   am
    60    25    26    1
    61    17    18    2
    62    81    80    1
    63    31    30    1
    64    31    33   ar
    65    29    30    1
    66    29    26    1
    67    26    27    1
    68    83    80    1
    69    83    84    1
    70    80    79    1
    71    40    39   ar
    72    27    34   am
    73    27    28    2
    74    14    13   ar
    75    14    12   ar
    76    34    35    1
    77    39    41   ar
    78    39    38    1
    79    49    51   ar
    80    49    47   ar
    81    13    11   ar
    82    12    10   ar
    83    51    50   ar
    84    38    35    1
    85    35    36    1
    86    47    46    1
    87    47    48   ar
    88    42    43    1
    89    42    36   am
    90    46    43    1
    91   108   106   ar
    92   108   107   ar
    93    11     8   ar
    94    10     8   ar
    95    10     9   ar
    96    44    43    1
    97    44    45    2
    98    50    48   ar
    99    36    37    2
   100   106   104   ar
   101   107   105   ar
   102     8     6   ar
   103     9     7   ar
   104   104   105   ar
   105   104   103    1
   106   124   122    1
   107     6     7   ar
   108     6     5    1
   109   123   122    1
   110   103   100    1
   111    99   100    1
   112   122   119    1
   113     5     2    1
   114   100   101    1
   115   117   115   ar
   116   119   120    1
   117   119   118    1
   118   102   101    2
   119     2     1    1
   120     2     3    1
   121   121   120    2
   122   115   114    1
   123   115   116   ar
   124   118   111   am
   125   114   113    1
   126     3     4    2
   127   111   112    2
   128   111   110    1
   129   113   110    1
   130   109   110    1
