@<TRIPOS>MOLECULE
tmp/5b19A00.pdb
 106 98 0 0 0
SMALL
GASTEIGER

@<TRIPOS>ATOM
      1  N         32.4430   -7.6870   -4.3400 N.3    10  MET10      -0.1245
      2  CA        32.8670   -6.8030   -5.4220 C.3    10  MET10       0.1570
      3  C         32.5820   -7.3610   -6.8190 C.2    10  MET10       0.2261
      4  O         33.5190   -7.7100   -7.5380 O.2    10  MET10      -0.2867
      5  CB        34.3760   -6.5420   -5.2840 C.3    10  MET10       0.0387
      6  CG        34.7800   -5.8610   -3.9960 C.3    10  MET10       0.0595
      7  SD        36.5660   -5.6830   -3.8470 S.3    10  MET10      -0.1393
      8  CE        37.0510   -7.3170   -3.3290 C.3    10  MET10       0.0692
      9  N         35.5670    0.5360   -7.0010 N.3    48  ARG48      -0.1231
     10  CA        36.9310    0.4820   -7.4940 C.3    48  ARG48       0.1694
     11  C         37.1510    1.3310   -8.7540 C.2    48  ARG48       0.2591
     12  O         38.2420    1.8530   -8.9450 O.2    48  ARG48      -0.2718
     13  CB        37.3090   -0.9940   -7.6330 C.3    48  ARG48       0.0321
     14  CG        37.1540   -1.5410   -6.1990 C.3    48  ARG48       0.0489
     15  CD        36.6760   -2.9050   -6.0930 C.3    48  ARG48       0.2205
     16  NE        35.2790   -3.1530   -6.4590 N.pl3  48  ARG48      -0.0865
     17  CZ        34.1810   -2.9010   -5.7480 C.cat  48  ARG48       0.5346
     18  NH1       33.0260   -3.2930   -6.2580 N.pl3  48  ARG48       0.1354
     19  NH2       34.1990   -2.2840   -4.5670 N.pl3  48  ARG48       0.1354
     20  N         36.1070    1.5640   -9.5530 N.am   49  ILE49      -0.1980
     21  CA        36.2410    2.4580  -10.7070 C.3    49  ILE49       0.1595
     22  C         36.3910    3.9260  -10.2790 C.2    49  ILE49       0.2287
     23  O         37.1920    4.6650  -10.8610 O.2    49  ILE49      -0.2864
     24  CB        35.0390    2.3240  -11.6700 C.3    49  ILE49       0.0276
     25  CG1       34.7550    0.8390  -11.9580 C.3    49  ILE49       0.0022
     26  CG2       35.2470    3.1550  -12.9440 C.3    49  ILE49       0.0022
     27  CD1       35.9540    0.0670  -12.5460 C.3    49  ILE49       0.0001
     28  N         37.9360  -10.3900   -7.3140 N.3    82  CYS82      -0.1221
     29  CA        37.7750   -9.0820   -7.9540 C.3    82  CYS82       0.1808
     30  C         39.0280   -8.7470   -8.7510 C.2    82  CYS82       0.2601
     31  O         40.0870   -8.5320   -8.1670 O.2    82  CYS82      -0.2717
     32  CB        37.5390   -7.9760   -6.9310 C.3    82  CYS82       0.0970
     33  SG        37.3920   -6.3340   -7.6810 S.3    82  CYS82      -0.0800
     34  N         38.9210   -8.7270  -10.0750 N.am   83  ASN83      -0.1960
     35  CA        40.0640   -8.3780  -10.9100 C.3    83  ASN83       0.1819
     36  C         40.5470   -6.9650  -10.6710 C.2    83  ASN83       0.2621
     37  O         41.7380   -6.7320  -10.4660 O.2    83  ASN83      -0.2715
     38  CB        39.7180   -8.5430  -12.3940 C.3    83  ASN83       0.1195
     39  CG        39.6480  -10.0000  -12.8040 C.2    83  ASN83       0.2630
     40  OD1       40.6250  -10.5610  -13.2930 O.2    83  ASN83      -0.2716
     41  ND2       38.4950  -10.6320  -12.5680 N.am   83  ASN83      -0.0877
     42  N         39.6170   -6.0250  -10.7280 N.am   84  THR84      -0.1951
     43  CA        39.9760   -4.6100  -10.6740 C.3    84  THR84       0.1897
     44  C         40.7200   -4.2670   -9.3810 C.2    84  THR84       0.2313
     45  O         41.6310   -3.4500   -9.3850 O.2    84  THR84      -0.2863
     46  CB        38.7390   -3.6940  -10.7960 C.3    84  THR84       0.1794
     47  OG1       37.9890   -4.0260  -11.9690 O.3    84  THR84      -0.2208
     48  CG2       39.1780   -2.2440  -10.9240 C.3    84  THR84       0.0378
     49  N         36.5440   -4.5610  -16.5880 N.3   122  THR122     -0.1218
     50  CA        36.2020   -3.1460  -16.3690 C.3   122  THR122      0.1862
     51  C         37.1510   -2.2330  -17.1070 C.2   122  THR122      0.2287
     52  O         38.2610   -2.6430  -17.4640 O.2   122  THR122     -0.2866
     53  CB        36.2750   -2.7430  -14.9030 C.3   122  THR122      0.1770
     54  OG1       37.6330   -2.9000  -14.4520 O.3   122  THR122     -0.2211
     55  CG2       35.3520   -3.6060  -14.0460 C.3   122  THR122      0.0375
     56  N         40.5110   -1.9450  -15.3360 N.3   125  THR125     -0.1218
     57  CA        41.4060   -3.0640  -15.6150 C.3   125  THR125      0.1862
     58  C         42.1160   -2.8860  -16.9610 C.2   125  THR125      0.2287
     59  O         43.3170   -3.1740  -17.0870 O.2   125  THR125     -0.2866
     60  CB        40.6290   -4.3930  -15.5640 C.3   125  THR125      0.1770
     61  OG1       40.2970   -4.6570  -14.2040 O.3   125  THR125     -0.2211
     62  CG2       41.4810   -5.5640  -16.0930 C.3   125  THR125      0.0375
     63  N         28.3540   -4.7570  -17.4800 N.3   154  ILE154     -0.1245
     64  CA        28.7600   -5.0040  -16.0990 C.3   154  ILE154      0.1561
     65  C         27.7780   -4.3970  -15.0880 C.2   154  ILE154      0.2260
     66  O         27.4050   -5.0280  -14.1070 O.2   154  ILE154     -0.2867
     67  CB        30.1670   -4.4370  -15.8580 C.3   154  ILE154      0.0252
     68  CG1       31.1580   -5.2220  -16.7240 C.3   154  ILE154      0.0019
     69  CG2       30.5420   -4.5100  -14.3710 C.3   154  ILE154      0.0019
     70  CD1       32.5750   -4.6190  -16.7900 C.3   154  ILE154      0.0001
     71  N         25.4860   -6.2160  -12.1420 N.3   158  LYS158     -0.1245
     72  CA        25.5930   -5.7630  -10.7640 C.3   158  LYS158      0.1561
     73  C         24.2480   -5.5900  -10.0610 C.2   158  LYS158      0.2260
     74  O         24.1480   -5.8130   -8.8420 O.2   158  LYS158     -0.2867
     75  CB        26.3700   -4.4420  -10.7010 C.3   158  LYS158      0.0271
     76  CG        27.8720   -4.6480  -10.6930 C.3   158  LYS158      0.0035
     77  CD        28.6340   -3.3520  -10.4680 C.3   158  LYS158      0.0206
     78  CE        30.1430   -3.6270  -10.4750 C.3   158  LYS158      0.1093
     79  NZ        30.5620   -4.5890   -9.3880 N.3   158  LYS158     -0.1314
     80  N         37.6610  -11.3220  -17.4090 N.3   186  ALA186     -0.1231
     81  CA        38.5550  -10.6820  -16.4310 C.3   186  ALA186      0.1694
     82  C         37.7930   -9.6200  -15.6520 C.2   186  ALA186      0.2592
     83  O         38.3350   -8.5780  -15.2820 O.2   186  ALA186     -0.2718
     84  CB        39.7530  -10.0880  -17.1280 C.3   186  ALA186      0.0304
     85  N         36.5160   -9.9160  -15.4250 N.am  187  CYS187     -0.1956
     86  CA        35.6560   -9.1750  -14.5200 C.3   187  CYS187      0.1843
     87  C         34.7310  -10.2230  -13.9460 C.2   187  CYS187      0.2626
     88  O         34.1730  -11.0180  -14.6950 O.2   187  CYS187     -0.2714
     89  CB        34.8700   -8.0780  -15.2470 C.3   187  CYS187      0.0997
     90  SG        33.4930   -7.3600  -14.3170 S.3   187  CYS187     -0.0797
     91  N         34.5570  -10.2320  -12.6380 N.am  188  THR188     -0.1936
     92  CA        33.7970  -11.3100  -12.0140 C.3   188  THR188      0.2028
     93  C         32.2980  -11.2330  -12.3360 C.2   188  THR188      0.2642
     94  O         31.5770  -12.2180  -12.1700 O.2   188  THR188     -0.2714
     95  CB        34.0220  -11.3430  -10.4950 C.3   188  THR188      0.1808
     96  OG1       33.6650  -10.0870   -9.9180 O.3   188  THR188     -0.2208
     97  CG2       35.4960  -11.6480  -10.1990 C.3   188  THR188      0.0379
     98  N         31.8360  -10.0990  -12.8550 N.am  189  GLU189     -0.1976
     99  CA        30.4570  -10.0270  -13.3270 C.3   189  GLU189      0.1602
    100  C         30.2680  -10.7970  -14.6410 C.2   189  GLU189      0.2287
    101  O         29.1740  -11.2520  -14.9380 O.2   189  GLU189     -0.2864
    102  CB        30.0030   -8.5750  -13.5140 C.3   189  GLU189      0.0415
    103  CG        29.4400   -7.9320  -12.2410 C.3   189  GLU189      0.1163
    104  CD        30.5220   -7.3420  -11.3510 C.2   189  GLU189      0.3649
    105  OE1       31.5740   -6.9800  -11.8970 O.co2 189  GLU189     -0.2457
    106  OE2       30.3270   -7.2400  -10.1110 O.co2 189  GLU189     -0.2457
@<TRIPOS>BOND
     1    63    64    1
     2    52    51    2
     3    80    81    1
     4    84    81    1
     5    51    50    1
     6    59    58    2
     7    58    57    1
     8    70    68    1
     9    68    67    1
    10    49    50    1
    11    81    82    1
    12    50    53    1
    13    64    67    1
    14    64    65    1
    15    62    60    1
    16    67    69    1
    17    82    85   am
    18    82    83    2
    19    57    60    1
    20    57    56    1
    21    60    61    1
    22    85    86    1
    23    89    86    1
    24    89    90    1
    25    65    66    2
    26   101   100    2
    27    53    54    1
    28    53    55    1
    29    88    87    2
    30   100    99    1
    31    86    87    1
    32    87    91   am
    33   102    99    1
    34   102   103    1
    35    99    98    1
    36    40    39    2
    37    26    24    1
    38    98    93   am
    39    39    41   am
    40    39    38    1
    41    91    92    1
    42    27    25    1
    43    38    35    1
    44    93    94    2
    45    93    92    1
    46   103   104    1
    47    71    72    1
    48    92    95    1
    49    47    46    1
    50    25    24    1
    51   105   104   ar
    52    24    21    1
    53   104   106   ar
    54    48    46    1
    55    35    36    1
    56    35    34    1
    57    23    22    2
    58    46    43    1
    59    72    75    1
    60    72    73    1
    61    42    43    1
    62    42    36   am
    63    21    22    1
    64    21    20    1
    65    75    76    1
    66    76    77    1
    67    43    44    1
    68    36    37    2
    69    95    97    1
    70    95    96    1
    71    78    77    1
    72    78    79    1
    73    34    30   am
    74    73    74    2
    75    20    11   am
    76    45    44    2
    77    12    11    2
    78    11    10    1
    79    30    31    2
    80    30    29    1
    81    29    28    1
    82    29    32    1
    83    33    32    1
    84    13    10    1
    85    13    14    1
    86     4     3    2
    87    10     9    1
    88     3     2    1
    89    16    15    1
    90    16    17    2
    91    18    17    1
    92    14    15    1
    93    17    19    1
    94     2     5    1
    95     2     1    1
    96     5     6    1
    97     6     7    1
    98     7     8    1
