@<TRIPOS>MOLECULE
tmp/5b1aO03.pdb
 126 120 0 0 0
SMALL
GASTEIGER

@<TRIPOS>ATOM
      1  N        130.6720  337.0110  190.0580 N.3    33  ILE33      -0.1245
      2  CA       130.2840  336.3460  191.3560 C.3    33  ILE33       0.1561
      3  C        131.4300  335.5110  191.8830 C.2    33  ILE33       0.2260
      4  O        131.6840  335.5110  193.1030 O.2    33  ILE33      -0.2867
      5  CB       129.0710  335.3870  191.0910 C.3    33  ILE33       0.0252
      6  CG1      127.8750  336.2710  190.7400 C.3    33  ILE33       0.0019
      7  CG2      128.7200  334.5310  192.3400 C.3    33  ILE33       0.0019
      8  CD1      126.6310  335.4570  190.2430 C.3    33  ILE33       0.0001
      9  N        133.7490  337.9620  193.4300 N.3    36  LEU36      -0.1245
     10  CA       133.2590  338.4750  194.7030 C.3    36  LEU36       0.1561
     11  C        133.4080  337.4320  195.8290 C.2    36  LEU36       0.2260
     12  O        133.7550  337.7870  196.9720 O.2    36  LEU36      -0.2867
     13  CB       131.7720  338.8210  194.5690 C.3    36  LEU36       0.0270
     14  CG       131.0930  339.3660  195.8870 C.3    36  LEU36       0.0019
     15  CD1      131.6650  340.7930  196.1880 C.3    36  LEU36       0.0001
     16  CD2      129.5640  339.4270  195.5900 C.3    36  LEU36       0.0001
     17  N        135.5270  338.1600  199.0470 N.3    40  ILE40      -0.1245
     18  CA       134.9830  338.1470  200.4360 C.3    40  ILE40       0.1561
     19  C        135.7070  337.1330  201.2530 C.2    40  ILE40       0.2260
     20  O        135.9310  337.3600  202.4920 O.2    40  ILE40      -0.2867
     21  CB       133.4130  337.9520  200.3910 C.3    40  ILE40       0.0252
     22  CG1      132.7760  339.1150  199.6740 C.3    40  ILE40       0.0019
     23  CG2      132.8930  337.6200  201.8660 C.3    40  ILE40       0.0019
     24  CD1      131.2760  338.9500  199.4510 C.3    40  ILE40       0.0001
     25  N        137.2650  338.1730  204.8030 N.3    44  MET44      -0.1245
     26  CA       136.8450  337.5640  206.0920 C.3    44  MET44       0.1570
     27  C        138.1470  337.1030  206.8730 C.2    44  MET44       0.2261
     28  O        138.0770  336.9790  208.1250 O.2    44  MET44      -0.2867
     29  CB       136.0070  336.2910  205.9990 C.3    44  MET44       0.0387
     30  CG       134.6110  336.4680  205.2680 C.3    44  MET44       0.0595
     31  SD       133.5240  337.6970  206.0770 S.3    44  MET44      -0.1393
     32  CE       133.9640  339.2710  205.3510 C.3    44  MET44       0.0692
     33  N        134.0530  339.0100  216.2710 N.3    51  HIS51      -0.1241
     34  CA       132.6620  339.0770  216.6730 C.3    51  HIS51       0.1621
     35  C        132.1760  337.6580  216.6430 C.2    51  HIS51       0.2264
     36  O        131.9400  337.1020  215.5740 O.2    51  HIS51      -0.2867
     37  CB       131.8770  340.0050  215.7420 C.3    51  HIS51       0.0745
     38  CG       130.4340  340.2070  216.1420 C.ar   51  HIS51       0.0817
     39  ND1      129.5060  340.8530  215.3100 N.ar   51  HIS51      -0.2268
     40  CD2      129.7270  339.8260  217.2450 C.ar   51  HIS51       0.1154
     41  CE1      128.3020  340.8380  215.8870 C.ar   51  HIS51       0.1986
     42  NE2      128.4010  340.1940  217.0310 N.ar   51  HIS51      -0.2212
     43  N        126.2450  335.3300  218.8870 N.3    54  THR54      -0.1203
     44  CA       125.2800  334.9900  217.8070 C.3    54  THR54       0.1994
     45  C        124.9040  336.1220  216.9660 C.2    54  THR54       0.2618
     46  O        124.6740  337.3060  217.5030 O.2    54  THR54      -0.2717
     47  CB       124.0220  334.5130  218.5600 C.3    54  THR54       0.1784
     48  OG1      124.3770  333.2500  219.2230 O.3    54  THR54      -0.2211
     49  CG2      122.7620  334.3640  217.6030 C.3    54  THR54       0.0376
     50  N        124.9010  335.8880  215.6600 N.am   55  MET55      -0.1965
     51  CA       124.5590  336.9250  214.6880 C.3    55  MET55       0.1736
     52  C        123.1640  336.6390  214.2010 C.2    55  MET55       0.2613
     53  O        122.7640  335.5710  213.8820 O.2    55  MET55      -0.2715
     54  CB       125.5980  336.9300  213.5080 C.3    55  MET55       0.0427
     55  CG       126.8660  337.4990  214.0280 C.3    55  MET55       0.0599
     56  SD       128.0740  337.2530  212.6330 S.3    55  MET55      -0.1393
     57  CE       129.6800  337.8490  213.3730 C.3    55  MET55       0.0692
     58  N        122.4600  337.7970  214.0660 N.am   56  ASP56      -0.2025
     59  CA       121.0610  337.7440  213.4110 C.3    56  ASP56       0.1395
     60  C        121.1560  337.7070  211.8740 C.3    56  ASP56       0.2041
     61  O        121.9390  338.4570  211.1820 O.3    56  ASP56      -0.2185
     62  CB       120.2060  339.0280  213.7990 C.3    56  ASP56       0.1383
     63  CG       118.7070  338.7230  213.5780 C.2    56  ASP56       0.3667
     64  OD1      118.0520  338.2530  214.5200 O.co2  56  ASP56      -0.2456
     65  OD2      118.2350  338.6810  212.4290 O.co2  56  ASP56      -0.2456
     66  N        117.9550  339.9480  208.1200 N.3    59  GLU59      -0.1231
     67  CA       118.0260  340.9970  207.1060 C.3    59  GLU59       0.1699
     68  C        118.9360  340.6680  205.9780 C.2    59  GLU59       0.2592
     69  O        118.6490  340.8650  204.8130 O.2    59  GLU59      -0.2718
     70  CB       118.5840  342.3710  207.7950 C.3    59  GLU59       0.0402
     71  CG       119.7200  342.2500  208.8990 C.3    59  GLU59       0.1161
     72  CD       119.9940  340.8230  209.6220 C.2    59  GLU59       0.3649
     73  OE1      121.0750  340.0740  209.1670 O.co2  59  GLU59      -0.2457
     74  OE2      119.1240  340.5490  210.6150 O.co2  59  GLU59      -0.2457
     75  N        120.0880  340.0410  206.3050 N.am   60  VAL60      -0.1980
     76  CA       121.0560  339.7550  205.2760 C.3    60  VAL60       0.1595
     77  C        120.5270  338.6760  204.3630 C.2    60  VAL60       0.2287
     78  O        120.8900  338.6650  203.1580 O.2    60  VAL60      -0.2864
     79  CB       122.4280  339.5710  205.9330 C.3    60  VAL60       0.0276
     80  CG1      122.5300  338.1050  206.4870 C.3    60  VAL60       0.0022
     81  CG2      123.5260  339.8810  204.9730 C.3    60  VAL60       0.0022
     82  N        118.8530  339.9740  201.2610 N.3    63  ILE63      -0.1231
     83  CA       119.7450  340.4910  200.1650 C.3    63  ILE63       0.1692
     84  C        120.3050  339.2720  199.4410 C.2    63  ILE63       0.2592
     85  O        120.3560  339.1560  198.1860 O.2    63  ILE63      -0.2718
     86  CB       121.0010  341.0980  200.8650 C.3    63  ILE63       0.0266
     87  CG1      120.5620  342.4140  201.5190 C.3    63  ILE63       0.0019
     88  CG2      122.0640  341.5240  199.8140 C.3    63  ILE63       0.0020
     89  CD1      121.6100  342.9670  202.4700 C.3    63  ILE63       0.0001
     90  N        120.6570  338.2330  200.1940 N.am   64  TRP64      -0.1976
     91  CA       121.2140  337.1010  199.5080 C.3    64  TRP64       0.1640
     92  C        120.2810  336.1550  198.8160 C.2    64  TRP64       0.2290
     93  O        120.7200  335.1620  198.1470 O.2    64  TRP64      -0.2864
     94  CB       122.4100  336.6630  200.3180 C.3    64  TRP64       0.0573
     95  CG       122.3040  336.0640  201.3230 C.ar   64  TRP64      -0.0034
     96  CD1      121.6250  334.9460  201.4880 C.ar   64  TRP64       0.0943
     97  CD2      123.2500  336.2160  202.5000 C.ar   64  TRP64      -0.0066
     98  NE1      121.9990  334.3190  202.6960 N.ar   64  TRP64      -0.2445
     99  CE2      123.0200  334.9980  203.2940 C.ar   64  TRP64       0.0768
    100  CE3      124.3870  337.1470  202.8210 C.3    64  TRP64       0.0323
    101  CZ2      123.7270  334.7490  204.5160 C.2    64  TRP64       0.0142
    102  CZ3      125.0030  336.9380  204.1890 C.3    64  TRP64       0.0308
    103  CH2      124.7650  335.6640  204.8790 C.2    64  TRP64      -0.0243
    104  N        118.9200  339.3630  195.5250 N.3    67  LEU67      -0.1231
    105  CA       119.8970  339.8450  194.4410 C.3    67  LEU67       0.1678
    106  C        120.2330  338.6030  193.4990 C.2    67  LEU67       0.2434
    107  O        120.1300  338.7370  192.2770 O.2    67  LEU67      -0.2733
    108  CB       121.1900  340.4140  195.0350 C.3    67  LEU67       0.0284
    109  CG       121.2810  341.8920  195.1290 C.3    67  LEU67       0.0019
    110  CD1      120.0280  342.7020  195.2680 C.3    67  LEU67       0.0001
    111  CD2      122.3880  342.2060  196.1280 C.3    67  LEU67       0.0001
    112  N        120.3950  337.3880  194.0620 N.am   68  PRO68      -0.2729
    113  CA       120.5320  336.2780  193.0930 C.3    68  PRO68       0.1401
    114  C        119.2960  336.0230  192.2810 C.2    68  PRO68       0.2269
    115  O        119.4530  335.6370  191.1090 O.2    68  PRO68      -0.2865
    116  CB       120.8370  335.0990  194.0350 C.3    68  PRO68       0.0296
    117  CG       121.7370  335.7120  195.1130 C.3    68  PRO68       0.0237
    118  CD       120.8810  336.9570  195.4400 C.3    68  PRO68       0.0939
    119  N        119.4890  338.3580  189.4650 N.3    71  ILE71      -0.1245
    120  CA       120.5360  337.9680  188.4800 C.3    71  ILE71       0.1561
    121  C        120.0140  336.8290  187.6050 C.2    71  ILE71       0.2260
    122  O        120.2770  336.7930  186.3700 O.2    71  ILE71      -0.2867
    123  CB       121.8700  337.5640  189.2080 C.3    71  ILE71       0.0252
    124  CG1      122.4240  338.8470  189.9030 C.3    71  ILE71       0.0019
    125  CG2      122.9270  336.9200  188.3040 C.3    71  ILE71       0.0019
    126  CD1      123.4450  338.6390  190.9730 C.3    71  ILE71       0.0001
@<TRIPOS>BOND
     1   122   121    2
     2   121   120    1
     3   125   123    1
     4   120   123    1
     5   120   119    1
     6   123   124    1
     7   124   126    1
     8     1     2    1
     9     8     6    1
    10     6     5    1
    11     5     2    1
    12     5     7    1
    13   115   114    2
    14     2     3    1
    15     3     4    2
    16   107   106    2
    17   114   113    1
    18   113   116    1
    19   113   112    1
    20     9    10    1
    21   106   112   am
    22   106   105    1
    23   116   117    1
    24   112   118    1
    25   105   108    1
    26   105   104    1
    27    13    10    1
    28    13    14    1
    29    10    11    1
    30   108   109    1
    31   117   118    1
    32   109   110    1
    33   109   111    1
    34    16    14    1
    35    11    12    2
    36    14    15    1
    37    93    92    2
    38    85    84    2
    39    92    91    1
    40    17    18    1
    41    84    83    1
    42    84    90   am
    43    24    22    1
    44    91    90    1
    45    91    94    1
    46    22    21    1
    47    88    86    1
    48    83    86    1
    49    83    82    1
    50    94    95    1
    51    21    18    1
    52    21    23    1
    53    18    19    1
    54    86    87    1
    55    19    20    2
    56    95    96   ar
    57    95    97   ar
    58    96    98   ar
    59    87    89    1
    60    97   100    1
    61    97    99   ar
    62    98    99   ar
    63   100   102    1
    64    78    77    2
    65    99   101    1
    66   102   103    1
    67    77    76    1
    68   101   103    2
    69    25    26    1
    70    69    68    2
    71    81    79    1
    72    30    29    1
    73    30    31    1
    74    76    79    1
    75    76    75    1
    76    32    31    1
    77    79    80    1
    78    68    75   am
    79    68    67    1
    80    29    26    1
    81    26    27    1
    82    27    28    2
    83    67    70    1
    84    67    66    1
    85    70    71    1
    86    71    72    1
    87    73    72   ar
    88    72    74   ar
    89    61    60    1
    90    60    59    1
    91    65    63   ar
    92    56    57    1
    93    56    55    1
    94    59    62    1
    95    59    58    1
    96    54    55    1
    97    54    51    1
    98    63    62    1
    99    63    64   ar
   100    53    52    2
   101    58    52   am
   102    52    51    1
   103    51    50    1
   104    39    41   ar
   105    39    38   ar
   106    36    35    2
   107    50    45   am
   108    37    38    1
   109    37    34    1
   110    41    42   ar
   111    38    40   ar
   112    33    34    1
   113    35    34    1
   114    45    46    2
   115    45    44    1
   116    42    40   ar
   117    49    47    1
   118    44    47    1
   119    44    43    1
   120    47    48    1
