@<TRIPOS>MOLECULE
tmp/5b1aG00.pdb
 105 103 0 0 0
SMALL
GASTEIGER

@<TRIPOS>ATOM
      1  N        111.8730  316.4410  200.8570 N.3     5  LYS5       -0.1245
      2  CA       111.9620  317.2000  202.1400 C.3     5  LYS5        0.1561
      3  C        112.8900  316.3910  203.2780 C.2     5  LYS5        0.2260
      4  O        113.9940  315.9740  202.9480 O.2     5  LYS5       -0.2867
      5  CB       110.5910  318.1240  202.4270 C.3     5  LYS5        0.0271
      6  CG       110.1480  319.2720  201.3490 C.3     5  LYS5        0.0035
      7  CD       110.6330  320.7140  201.6640 C.3     5  LYS5        0.0206
      8  CE       111.2460  321.5290  200.5390 C.3     5  LYS5        0.1093
      9  NZ       111.4020  323.0300  200.9380 N.3     5  LYS5       -0.1314
     10  N        104.9930  326.6400  210.0960 N.3    16  ARG16      -0.1245
     11  CA       105.3140  328.0600  209.6530 C.3    16  ARG16       0.1563
     12  C        106.5150  327.9450  208.6820 C.2    16  ARG16       0.2260
     13  O        106.6070  328.6560  207.6790 O.2    16  ARG16      -0.2867
     14  CB       105.6520  328.8030  210.9200 C.3    16  ARG16       0.0307
     15  CG       106.0330  330.2640  210.4590 C.3    16  ARG16       0.0489
     16  CD       106.3520  331.1150  211.6200 C.3    16  ARG16       0.2205
     17  NE       107.6640  330.7570  212.2290 N.pl3  16  ARG16      -0.0865
     18  CZ       108.2700  331.5290  213.0710 C.cat  16  ARG16       0.5346
     19  NH1      109.4410  331.1620  213.7260 N.pl3  16  ARG16       0.1354
     20  NH2      107.6990  332.7420  213.5290 N.pl3  16  ARG16       0.1354
     21  N        106.3950  329.6780  204.9490 N.3    20  PHE20      -0.1227
     22  CA       107.2890  330.7430  204.4380 C.3    20  PHE20       0.1736
     23  C        108.4170  330.2060  203.5910 C.2    20  PHE20       0.2596
     24  O        108.9240  330.9100  202.7590 O.2    20  PHE20      -0.2718
     25  CB       107.8910  331.5000  205.6060 C.3    20  PHE20       0.0547
     26  CG       106.8960  332.4120  206.3460 C.ar   20  PHE20      -0.0202
     27  CD1      106.6470  332.2660  207.6030 C.ar   20  PHE20      -0.0042
     28  CD2      106.1350  333.3560  205.6450 C.ar   20  PHE20      -0.0042
     29  CE1      105.7710  333.1310  208.2660 C.ar   20  PHE20      -0.0003
     30  CE2      105.2250  334.2120  206.2600 C.ar   20  PHE20      -0.0003
     31  CZ       105.0020  334.0040  207.5970 C.ar   20  PHE20      -0.0000
     32  N        108.7290  328.8990  203.8000 N.am   21  GLY21      -0.1942
     33  CA       109.9510  328.4030  203.0550 C.3    21  GLY21       0.2014
     34  C        109.5350  327.6220  201.8110 C.2    21  GLY21       0.2638
     35  O        110.4340  327.4810  200.9080 O.2    21  GLY21      -0.2714
     36  N        108.2940  327.1560  201.6110 N.am   22  LEU22      -0.1977
     37  CA       107.8640  326.4350  200.4400 C.3    22  LEU22       0.1596
     38  C        106.6290  327.0280  199.8470 C.2    22  LEU22       0.2287
     39  O        106.6390  327.3350  198.6410 O.2    22  LEU22      -0.2864
     40  CB       107.6300  324.9010  200.8080 C.3    22  LEU22       0.0297
     41  CG       106.9460  324.1050  199.7060 C.3    22  LEU22       0.0022
     42  CD1      107.9540  323.8870  198.5530 C.3    22  LEU22       0.0001
     43  CD2      106.6280  322.7010  200.2620 C.3    22  LEU22       0.0001
     44  N        104.7250  329.9850  200.3120 N.3    24  LEU24      -0.1231
     45  CA       104.6470  331.3850  199.7930 C.3    24  LEU24       0.1678
     46  C        105.7270  331.5870  198.7310 C.2    24  LEU24       0.2434
     47  O        105.4200  332.2280  197.6770 O.2    24  LEU24      -0.2733
     48  CB       104.7640  332.4310  200.8940 C.3    24  LEU24       0.0284
     49  CG       103.4760  332.3230  201.7660 C.3    24  LEU24       0.0019
     50  CD1      103.6390  333.3360  202.8760 C.3    24  LEU24       0.0001
     51  CD2      102.1090  332.5150  201.0000 C.3    24  LEU24       0.0001
     52  N        106.9420  330.9640  198.7770 N.am   25  PRO25      -0.2718
     53  CA       107.8560  331.1050  197.5900 C.3    25  PRO25       0.1535
     54  C        107.2030  330.4950  196.3220 C.2    25  PRO25       0.2599
     55  O        107.4050  331.1310  195.1960 O.2    25  PRO25      -0.2715
     56  CB       109.0930  330.2610  198.0380 C.3    25  PRO25       0.0310
     57  CG       109.0950  330.5750  199.5620 C.3    25  PRO25       0.0237
     58  CD       107.6500  330.4310  200.0280 C.3    25  PRO25       0.0939
     59  N        106.3900  329.4170  196.4020 N.am   26  SER26      -0.1936
     60  CA       105.7730  328.8140  195.2010 C.3    26  SER26       0.2055
     61  C        104.7930  329.8070  194.6740 C.2    26  SER26       0.2643
     62  O        104.7400  329.9960  193.4590 O.2    26  SER26      -0.2714
     63  CB       105.0850  327.5230  195.6070 C.3    26  SER26       0.2130
     64  OG       106.1050  326.5510  195.9460 O.3    26  SER26      -0.2179
     65  N        104.0240  330.5030  195.5440 N.am   27  VAL27      -0.1963
     66  CA       103.0360  331.4780  195.0580 C.3    27  VAL27       0.1727
     67  C        103.8270  332.6800  194.4360 C.2    27  VAL27       0.2616
     68  O        103.3430  333.1080  193.3790 O.2    27  VAL27      -0.2715
     69  CB       102.2020  331.9670  196.2620 C.3    27  VAL27       0.0290
     70  CG1      101.2640  333.1670  195.8010 C.3    27  VAL27       0.0023
     71  CG2      101.3070  330.8180  196.7510 C.3    27  VAL27       0.0023
     72  N        104.9510  333.0420  194.9860 N.am   28  ALA28      -0.1963
     73  CA       105.6340  334.2190  194.3750 C.3    28  ALA28       0.1728
     74  C        106.1570  333.7690  193.0370 C.2    28  ALA28       0.2616
     75  O        106.0880  334.6150  192.0770 O.2    28  ALA28      -0.2715
     76  CB       106.7970  334.5110  195.3390 C.3    28  ALA28       0.0334
     77  N        106.6920  332.5730  192.8620 N.am   29  LEU29      -0.1977
     78  CA       107.1610  332.0750  191.5760 C.3    29  LEU29       0.1596
     79  C        106.0520  331.9690  190.5180 C.2    29  LEU29       0.2287
     80  O        106.2340  332.3340  189.3640 O.2    29  LEU29      -0.2864
     81  CB       107.8860  330.6880  191.6730 C.3    29  LEU29       0.0297
     82  CG       109.2700  330.6620  192.3190 C.3    29  LEU29       0.0022
     83  CD1      109.5640  329.1310  192.5910 C.3    29  LEU29       0.0001
     84  CD2      110.3380  331.3890  191.4710 C.3    29  LEU29       0.0001
     85  N        103.3040  333.6940  190.6010 N.3    31  THR31      -0.1274
     86  CA       102.9130  335.0910  190.3100 C.3    31  THR31       0.1548
     87  C        103.8650  335.7080  189.3380 C.3    31  THR31       0.2036
     88  O        103.3610  336.3240  188.3260 O.3    31  THR31      -0.2187
     89  CB       102.8670  335.9310  191.6550 C.3    31  THR31       0.1721
     90  OG1      101.8820  335.3740  192.5490 O.3    31  THR31      -0.2215
     91  CG2      102.4840  337.3310  191.3440 C.3    31  THR31       0.0371
     92  N        102.6120  336.7620  185.6910 N.3    35  TRP35      -0.1241
     93  CA       102.4820  338.2150  185.5360 C.3    35  TRP35       0.1605
     94  C        103.7010  338.5990  184.8220 C.2    35  TRP35       0.2264
     95  O        104.4520  339.4750  185.2570 O.2    35  TRP35      -0.2867
     96  CB       102.0470  339.0490  186.8120 C.3    35  TRP35       0.0550
     97  CG       100.4630  338.7890  187.3940 C.ar   35  TRP35       0.0003
     98  CD1      100.1040  338.5330  188.7170 C.ar   35  TRP35       0.0946
     99  CD2       99.1730  338.7740  186.6540 C.ar   35  TRP35       0.0152
    100  NE1       98.7390  338.3600  188.8300 N.ar   35  TRP35      -0.2442
    101  CE2       98.1430  338.4930  187.6000 C.ar   35  TRP35       0.0810
    102  CE3       98.7970  338.9750  185.3030 C.ar   35  TRP35       0.0012
    103  CZ2       96.7600  338.4140  187.2310 C.ar   35  TRP35       0.0191
    104  CZ3       97.3970  338.8850  184.9410 C.ar   35  TRP35       0.0001
    105  CH2       96.4180  338.6100  185.9080 C.ar   35  TRP35       0.0015
@<TRIPOS>BOND
     1    94    95    2
     2    94    93    1
     3   104   102   ar
     4   104   105   ar
     5   102    99   ar
     6    93    92    1
     7    93    96    1
     8   105   103   ar
     9    99    97   ar
    10    99   101   ar
    11    96    97    1
    12   103   101   ar
    13    97    98   ar
    14   101   100   ar
    15    88    87    1
    16    98   100   ar
    17    87    86    1
    18    80    79    2
    19    86    85    1
    20    86    89    1
    21    79    78    1
    22    91    89    1
    23    84    82    1
    24    78    81    1
    25    78    77    1
    26    89    90    1
    27    81    82    1
    28    75    74    2
    29    82    83    1
    30    77    74   am
    31    74    73    1
    32    68    67    2
    33    62    61    2
    34    73    72    1
    35    73    76    1
    36    67    72   am
    37    67    66    1
    38    61    60    1
    39    61    65   am
    40    66    65    1
    41    66    69    1
    42    55    54    2
    43    60    63    1
    44    60    59    1
    45    63    64    1
    46    70    69    1
    47    69    71    1
    48    54    59   am
    49    54    53    1
    50    53    56    1
    51    53    52    1
    52    47    46    2
    53    56    57    1
    54    42    41    1
    55    39    38    2
    56    46    52   am
    57    46    45    1
    58    52    58    1
    59    57    58    1
    60    41    43    1
    61    41    40    1
    62    45    44    1
    63    45    48    1
    64    38    37    1
    65    37    40    1
    66    37    36    1
    67     8     9    1
    68     8     7    1
    69     1     2    1
    70    48    49    1
    71    35    34    2
    72    51    49    1
    73     6     7    1
    74     6     5    1
    75    36    34   am
    76    49    50    1
    77    34    33    1
    78     2     5    1
    79     2     3    1
    80    24    23    2
    81     4     3    2
    82    33    32    1
    83    23    32   am
    84    23    22    1
    85    22    21    1
    86    22    25    1
    87    25    26    1
    88    28    30   ar
    89    28    26   ar
    90    30    31   ar
    91    26    27   ar
    92    31    29   ar
    93    27    29   ar
    94    13    12    2
    95    12    11    1
    96    11    10    1
    97    11    14    1
    98    15    14    1
    99    15    16    1
   100    16    17    1
   101    17    18    2
   102    18    20    1
   103    18    19    1
