@<TRIPOS>MOLECULE
tmp/5b1aA00.pdb
 225 227 0 0 0
SMALL
GASTEIGER

@<TRIPOS>ATOM
      1  N         51.9330  329.3080  222.4210 N.3     1  PHE1       -0.1241
      2  CA        51.5650  328.4630  221.2920 C.3     1  PHE1        0.1605
      3  C         52.5600  328.6430  220.1100 C.2     1  PHE1        0.2264
      4  O         53.0410  327.6340  219.5670 O.2     1  PHE1       -0.2867
      5  CB        50.1850  328.8730  220.7620 C.3     1  PHE1        0.0534
      6  CG        49.7540  328.0420  219.6320 C.ar    1  PHE1       -0.0203
      7  CD1       49.0960  326.8370  219.9500 C.ar    1  PHE1       -0.0042
      8  CD2       50.0530  328.3880  218.3040 C.ar    1  PHE1       -0.0042
      9  CE1       48.6710  326.0540  218.8700 C.ar    1  PHE1       -0.0003
     10  CE2       49.6960  327.5080  217.2100 C.ar    1  PHE1       -0.0003
     11  CZ        48.9810  326.3730  217.5700 C.ar    1  PHE1       -0.0000
     12  N         54.9540  325.6440  218.7760 N.3     5  TRP5       -0.1227
     13  CA        54.6740  325.0000  217.5190 C.3     5  TRP5        0.1737
     14  C         55.3710  325.6170  216.3310 C.2     5  TRP5        0.2595
     15  O         55.4150  324.9590  215.2590 O.2     5  TRP5       -0.2718
     16  CB        53.1490  324.9250  217.2360 C.3     5  TRP5        0.0564
     17  CG        52.5510  324.0040  218.3000 C.ar    5  TRP5        0.0003
     18  CD1       51.7170  324.3510  219.4000 C.ar    5  TRP5        0.0946
     19  CD2       52.7010  322.6030  218.4050 C.ar    5  TRP5        0.0152
     20  NE1       51.4420  323.2580  220.1340 N.ar    5  TRP5       -0.2442
     21  CE2       51.9560  322.1220  219.5460 C.ar    5  TRP5        0.0810
     22  CE3       53.3470  321.6330  217.5850 C.ar    5  TRP5        0.0012
     23  CZ2       51.9600  320.7620  219.9350 C.ar    5  TRP5        0.0191
     24  CZ3       53.2580  320.2850  217.9600 C.ar    5  TRP5        0.0001
     25  CH2       52.5840  319.8660  219.1410 C.ar    5  TRP5        0.0015
     26  N         55.8430  326.8990  216.4020 N.am    6  LEU6       -0.1980
     27  CA        56.6030  327.4870  215.3160 C.3     6  LEU6        0.1596
     28  C         58.0810  327.5730  215.6040 C.2     6  LEU6        0.2287
     29  O         58.9130  327.5960  214.6710 O.2     6  LEU6       -0.2864
     30  CB        56.1480  328.9570  214.9890 C.3     6  LEU6        0.0297
     31  CG        54.8750  329.0200  214.1400 C.3     6  LEU6        0.0022
     32  CD1       53.8760  327.9750  214.0890 C.3     6  LEU6        0.0001
     33  CD2       54.5080  330.5310  214.0410 C.3     6  LEU6        0.0001
     34  N         55.1180  315.3200  215.3170 N.3    16  THR16      -0.1203
     35  CA        53.6900  315.6070  215.1270 C.3    16  THR16       0.1994
     36  C         53.4680  316.5830  214.0050 C.2    16  THR16       0.2617
     37  O         52.5050  316.3540  213.1710 O.2    16  THR16      -0.2717
     38  CB        53.1870  316.2010  216.5060 C.3    16  THR16       0.1784
     39  OG1       53.2370  315.0930  217.3940 O.3    16  THR16      -0.2211
     40  CG2       51.6890  316.6250  216.3130 C.3    16  THR16       0.0376
     41  N         54.2410  317.6660  213.8820 N.am   17  LEU17      -0.1979
     42  CA        54.0710  318.5810  212.7450 C.3    17  LEU17       0.1596
     43  C         54.2560  317.7890  211.3900 C.2    17  LEU17       0.2287
     44  O         53.4370  318.0060  210.4420 O.2    17  LEU17      -0.2864
     45  CB        55.1550  319.7290  212.7980 C.3    17  LEU17       0.0297
     46  CG        54.7800  320.6730  213.9990 C.3    17  LEU17       0.0022
     47  CD1       56.0010  321.6400  214.0930 C.3    17  LEU17       0.0001
     48  CD2       53.5200  321.4860  213.6370 C.3    17  LEU17       0.0001
     49  N         53.6940  314.6120  210.8650 N.3    19  LEU19      -0.1231
     50  CA        52.5750  313.7050  210.5680 C.3    19  LEU19       0.1693
     51  C         51.3710  314.4870  210.0950 C.2    19  LEU19       0.2592
     52  O         50.6490  314.0880  209.1660 O.2    19  LEU19      -0.2718
     53  CB        52.1870  313.0210  211.8790 C.3    19  LEU19       0.0284
     54  CG        53.2330  311.9570  212.2840 C.3    19  LEU19       0.0019
     55  CD1       52.8470  311.4050  213.6660 C.3    19  LEU19       0.0001
     56  CD2       53.3280  310.7640  211.2790 C.3    19  LEU19       0.0001
     57  N         51.1640  315.7100  210.6630 N.am   20  LEU20      -0.1966
     58  CA        49.9900  316.5400  210.2160 C.3    20  LEU20       0.1728
     59  C         50.2170  317.0180  208.7250 C.2    20  LEU20       0.2616
     60  O         49.2610  316.9920  207.9180 O.2    20  LEU20      -0.2715
     61  CB        49.8070  317.7710  211.1420 C.3    20  LEU20       0.0311
     62  CG        49.2230  317.4200  212.5570 C.3    20  LEU20       0.0022
     63  CD1       49.4750  318.6570  213.4580 C.3    20  LEU20       0.0001
     64  CD2       47.7400  317.2020  212.3360 C.3    20  LEU20       0.0001
     65  N         51.4440  317.4560  208.4630 N.am   21  PHE21      -0.1974
     66  CA        51.7590  317.8930  207.0660 C.3    21  PHE21       0.1639
     67  C         51.5960  316.7410  206.1160 C.2    21  PHE21       0.2290
     68  O         50.9440  316.9310  205.0430 O.2    21  PHE21      -0.2864
     69  CB        53.2050  318.3520  207.0860 C.3    21  PHE21       0.0560
     70  CG        53.7100  318.7800  205.6660 C.ar   21  PHE21      -0.0200
     71  CD1       53.6040  320.1110  205.2870 C.ar   21  PHE21      -0.0042
     72  CD2       54.2590  317.8380  204.8510 C.ar   21  PHE21      -0.0042
     73  CE1       54.0400  320.5210  204.0050 C.ar   21  PHE21      -0.0003
     74  CE2       54.7430  318.1900  203.5850 C.ar   21  PHE21      -0.0003
     75  CZ        54.6390  319.5290  203.1760 C.ar   21  PHE21      -0.0000
     76  N         49.7420  314.0970  206.4510 N.3    23  ALA23      -0.1231
     77  CA        48.3410  313.6880  206.2560 C.3    23  ALA23       0.1694
     78  C         47.6650  314.6330  205.3560 C.2    23  ALA23       0.2592
     79  O         46.8370  314.2200  204.4920 O.2    23  ALA23      -0.2718
     80  CB        47.6570  313.7860  207.6840 C.3    23  ALA23       0.0304
     81  N         47.8810  315.9690  205.4690 N.am   24  TRP24      -0.1976
     82  CA        47.2700  316.9160  204.5410 C.3    24  TRP24       0.1640
     83  C         47.7460  316.6590  203.0700 C.2    24  TRP24       0.2290
     84  O         46.9400  316.6390  202.1320 O.2    24  TRP24      -0.2864
     85  CB        47.6810  318.3760  205.0180 C.3    24  TRP24       0.0576
     86  CG        46.8590  319.4310  204.3020 C.ar   24  TRP24       0.0006
     87  CD1       45.6080  319.8500  204.7640 C.ar   24  TRP24       0.0946
     88  CD2       47.1660  320.1590  203.1350 C.ar   24  TRP24       0.0152
     89  NE1       45.1210  320.8580  203.8840 N.ar   24  TRP24      -0.2442
     90  CE2       46.1000  321.0790  202.9070 C.ar   24  TRP24       0.0810
     91  CE3       48.3430  320.1860  202.2900 C.ar   24  TRP24       0.0012
     92  CZ2       46.1040  321.9950  201.8420 C.ar   24  TRP24       0.0191
     93  CZ3       48.3470  321.1430  201.2180 C.ar   24  TRP24       0.0001
     94  CH2       47.1930  321.9480  200.9750 C.ar   24  TRP24       0.0015
     95  N         59.5970  310.9910  215.9550 N.3    80  TRP80      -0.1241
     96  CA        58.9580  310.5870  217.2750 C.3    80  TRP80       0.1605
     97  C         59.6740  309.3950  217.8540 C.2    80  TRP80       0.2264
     98  O         59.9150  309.3610  219.0600 O.2    80  TRP80      -0.2867
     99  CB        57.5330  310.0920  216.8930 C.3    80  TRP80       0.0550
    100  CG        56.4660  311.0610  217.3750 C.ar   80  TRP80       0.0003
    101  CD1       55.6770  311.9190  216.6080 C.ar   80  TRP80       0.0946
    102  CD2       55.9690  311.1860  218.7220 C.ar   80  TRP80       0.0152
    103  NE1       54.7380  312.6100  217.4150 N.ar   80  TRP80      -0.2442
    104  CE2       54.9820  312.1710  218.7040 C.ar   80  TRP80       0.0810
    105  CE3       56.3810  310.5990  219.9250 C.ar   80  TRP80       0.0012
    106  CZ2       54.2520  312.5510  219.8630 C.ar   80  TRP80       0.0191
    107  CZ3       55.6660  310.9690  221.0950 C.ar   80  TRP80       0.0001
    108  CH2       54.6680  311.8880  221.0530 C.ar   80  TRP80       0.0015
    109  N         61.5980  320.6960  209.0500 N.3   101  PHE101     -0.1227
    110  CA        60.1340  320.6750  208.8720 C.3   101  PHE101      0.1736
    111  C         59.6770  321.9370  208.1130 C.2   101  PHE101      0.2595
    112  O         58.8750  321.8430  207.1770 O.2   101  PHE101     -0.2718
    113  CB        59.4760  320.6230  210.3090 C.3   101  PHE101      0.0547
    114  CG        57.9980  320.7970  210.1120 C.ar  101  PHE101     -0.0202
    115  CD1       57.2940  319.7450  209.4990 C.ar  101  PHE101     -0.0042
    116  CD2       57.4200  322.0850  210.3520 C.ar  101  PHE101     -0.0042
    117  CE1       55.9430  319.9290  209.1640 C.ar  101  PHE101     -0.0003
    118  CE2       56.0350  322.3010  209.9620 C.ar  101  PHE101     -0.0003
    119  CZ        55.3250  321.1900  209.3560 C.ar  101  PHE101     -0.0000
    120  N         60.0650  323.1430  208.6030 N.am  102  TRP102     -0.1976
    121  CA        59.4740  324.3280  208.0610 C.3   102  TRP102      0.1640
    122  C         59.9220  324.6420  206.6020 C.2   102  TRP102      0.2290
    123  O         59.2420  325.4640  205.9720 O.2   102  TRP102     -0.2864
    124  CB        59.8180  325.6000  208.9740 C.3   102  TRP102      0.0576
    125  CG        58.8580  325.5100  210.1730 C.ar  102  TRP102      0.0006
    126  CD1       59.2470  325.2490  211.4510 C.ar  102  TRP102      0.0946
    127  CD2       57.4530  325.6920  210.1070 C.ar  102  TRP102      0.0152
    128  NE1       58.0810  325.2640  212.2400 N.ar  102  TRP102     -0.2442
    129  CE2       56.9920  325.5090  211.4210 C.ar  102  TRP102      0.0810
    130  CE3       56.5730  326.0030  209.0640 C.ar  102  TRP102      0.0012
    131  CZ2       55.6200  325.5390  211.8060 C.ar  102  TRP102      0.0191
    132  CZ3       55.1390  326.0230  209.3870 C.ar  102  TRP102      0.0001
    133  CH2       54.7110  325.8550  210.7680 C.ar  102  TRP102      0.0015
    134  N         56.4460  323.3210  204.0780 N.3   105  PRO105     -0.2116
    135  CA        55.3030  324.1380  203.5590 C.3   105  PRO105      0.1372
    136  C         55.7270  325.0760  202.4310 C.2   105  PRO105      0.2244
    137  O         54.9900  325.1140  201.4000 O.2   105  PRO105     -0.2868
    138  CB        54.7750  324.8490  204.8550 C.3   105  PRO105      0.0268
    139  CG        55.1530  323.7860  205.9620 C.3   105  PRO105      0.0207
    140  CD        56.5760  323.3600  205.5550 C.3   105  PRO105      0.0892
    141  N         55.9610  322.9500  199.2930 N.3   108  PHE108     -0.1227
    142  CA        54.6400  322.5570  198.7290 C.3   108  PHE108      0.1736
    143  C         54.0070  323.7730  198.1150 C.2   108  PHE108      0.2595
    144  O         53.3480  323.6660  197.0660 O.2   108  PHE108     -0.2718
    145  CB        53.8280  321.9500  199.9670 C.3   108  PHE108      0.0547
    146  CG        52.6840  321.0690  199.5650 C.ar  108  PHE108     -0.0202
    147  CD1       52.1900  320.2010  200.5610 C.ar  108  PHE108     -0.0042
    148  CD2       52.1920  320.9720  198.2520 C.ar  108  PHE108     -0.0042
    149  CE1       51.1910  319.2440  200.2450 C.ar  108  PHE108     -0.0003
    150  CE2       51.1660  320.0560  197.9560 C.ar  108  PHE108     -0.0003
    151  CZ        50.7240  319.1740  198.9390 C.ar  108  PHE108     -0.0000
    152  N         54.1340  324.9700  198.7220 N.am  109  LEU109     -0.1980
    153  CA        53.6270  326.1920  198.0960 C.3   109  LEU109      0.1596
    154  C         54.2440  326.3530  196.7200 C.2   109  LEU109      0.2287
    155  O         53.4920  326.7400  195.7680 O.2   109  LEU109     -0.2864
    156  CB        53.9250  327.3830  199.0440 C.3   109  LEU109      0.0297
    157  CG        53.4460  328.7190  198.3610 C.3   109  LEU109      0.0022
    158  CD1       51.9360  328.7940  198.1560 C.3   109  LEU109      0.0001
    159  CD2       53.8500  329.8000  199.4510 C.3   109  LEU109      0.0001
    160  N         52.4050  323.8550  194.3810 N.3   112  LEU112     -0.1245
    161  CA        51.0390  324.3030  193.9440 C.3   112  LEU112      0.1561
    162  C         51.2220  325.6390  193.0390 C.2   112  LEU112      0.2260
    163  O         50.4940  325.9080  192.0570 O.2   112  LEU112     -0.2867
    164  CB        50.1920  324.5340  195.2870 C.3   112  LEU112      0.0270
    165  CG        50.0550  323.3350  196.1940 C.3   112  LEU112      0.0019
    166  CD1       49.5150  323.6800  197.6210 C.3   112  LEU112      0.0001
    167  CD2       49.1160  322.3370  195.5630 C.3   112  LEU112      0.0001
    168  N         50.8790  303.8950  211.7870 N.3   392  PHE392     -0.1241
    169  CA        50.0220  304.8980  212.3760 C.3   392  PHE392      0.1605
    170  C         49.0110  304.2290  213.3090 C.2   392  PHE392      0.2264
    171  O         48.8400  304.7670  214.4290 O.2   392  PHE392     -0.2867
    172  CB        49.2370  305.5610  211.1660 C.3   392  PHE392      0.0534
    173  CG        48.3340  306.6810  211.7550 C.ar  392  PHE392     -0.0203
    174  CD1       48.8670  307.9240  212.1060 C.ar  392  PHE392     -0.0042
    175  CD2       46.9750  306.4350  211.8470 C.ar  392  PHE392     -0.0042
    176  CE1       48.0440  308.9240  212.6870 C.ar  392  PHE392     -0.0003
    177  CE2       46.1370  307.4380  212.4070 C.ar  392  PHE392     -0.0003
    178  CZ        46.6240  308.6790  212.7750 C.ar  392  PHE392     -0.0000
    179  N         49.6040  305.3210  217.0880 N.3   396  PHE396     -0.1298
    180  CA        48.7710  306.4220  217.4660 C.3   396  PHE396      0.1290
    181  C         48.4410  306.4920  219.0140 C.3   396  PHE396      0.2013
    182  O         48.4080  307.6020  219.4710 O.3   396  PHE396     -0.2188
    183  CB        47.3720  306.2390  216.6780 C.3   396  PHE396      0.0480
    184  CG        46.3620  307.3160  217.0250 C.ar  396  PHE396     -0.0206
    185  CD1       45.3910  307.0590  218.0530 C.ar  396  PHE396     -0.0042
    186  CD2       46.3540  308.5550  216.3630 C.ar  396  PHE396     -0.0042
    187  CE1       44.4720  308.0920  218.3800 C.ar  396  PHE396     -0.0003
    188  CE2       45.4370  309.6010  216.6940 C.ar  396  PHE396     -0.0003
    189  CZ        44.4470  309.3330  217.7140 C.ar  396  PHE396     -0.0000
    190  N         51.4600  308.2660  220.5310 N.3   399  PHE399     -0.1227
    191  CA        51.6290  309.7240  220.2370 C.3   399  PHE399      0.1736
    192  C         50.5330  310.5320  220.9140 C.2   399  PHE399      0.2592
    193  O         50.7940  311.6450  221.3420 O.2   399  PHE399     -0.2718
    194  CB        51.5820  309.9440  218.7570 C.3   399  PHE399      0.0547
    195  CG        52.6990  309.1580  217.9720 C.ar  399  PHE399     -0.0202
    196  CD1       53.8470  308.6610  218.5950 C.ar  399  PHE399     -0.0042
    197  CD2       52.4040  308.9640  216.6290 C.ar  399  PHE399     -0.0042
    198  CE1       54.7970  307.9190  217.8040 C.ar  399  PHE399     -0.0003
    199  CE2       53.3770  308.1800  215.7860 C.ar  399  PHE399     -0.0003
    200  CZ        54.5510  307.7890  216.4250 C.ar  399  PHE399     -0.0000
    201  N         49.3000  309.9210  220.9440 N.am  400  SER400     -0.2005
    202  CA        48.2160  310.7790  221.4120 C.3   400  SER400      0.1610
    203  C         47.7490  310.4330  222.8800 C.3   400  SER400      0.2063
    204  O         47.0800  311.3780  223.4070 O.3   400  SER400     -0.2184
    205  CB        46.9220  310.4990  220.4580 C.3   400  SER400      0.2063
    206  OG        46.4050  309.1870  220.6920 O.3   400  SER400     -0.2184
    207  N         40.0560  308.8460  212.9000 N.3   471  ILE471     -0.1245
    208  CA        40.9080  309.6730  213.7250 C.3   471  ILE471      0.1561
    209  C         40.0520  310.6740  214.4870 C.2   471  ILE471      0.2260
    210  O         40.2510  310.8870  215.7110 O.2   471  ILE471     -0.2867
    211  CB        41.8530  310.4740  212.7820 C.3   471  ILE471      0.0252
    212  CG1       42.7530  309.3900  212.1470 C.3   471  ILE471      0.0019
    213  CG2       42.7010  311.4030  213.6830 C.3   471  ILE471      0.0019
    214  CD1       43.6930  310.0320  211.0000 C.3   471  ILE471      0.0001
    215  N         39.7340  311.0460  218.8380 N.3   475  PHE475     -0.1241
    216  CA        39.9130  312.2610  219.6310 C.3   475  PHE475      0.1605
    217  C         38.5760  312.7200  220.2520 C.2   475  PHE475      0.2264
    218  O         38.6230  313.4220  221.2500 O.2   475  PHE475     -0.2867
    219  CB        40.5060  313.3860  218.7020 C.3   475  PHE475      0.0534
    220  CG        42.0360  313.2310  218.5150 C.ar  475  PHE475     -0.0203
    221  CD1       42.5640  313.0460  217.2220 C.ar  475  PHE475     -0.0042
    222  CD2       42.8620  313.3920  219.5980 C.ar  475  PHE475     -0.0042
    223  CE1       43.9430  312.9890  216.9860 C.ar  475  PHE475     -0.0003
    224  CE2       44.2760  313.3540  219.4270 C.ar  475  PHE475     -0.0003
    225  CZ        44.8080  313.2020  218.0910 C.ar  475  PHE475     -0.0000
@<TRIPOS>BOND
     1   163   162    2
     2   162   161    1
     3   161   160    1
     4   161   164    1
     5   164   165    1
     6   167   165    1
     7   155   154    2
     8   165   166    1
     9   154   153    1
    10   144   143    2
    11   150   148   ar
    12   150   151   ar
    13   153   152    1
    14   153   156    1
    15   143   152   am
    16   143   142    1
    17   158   157    1
    18   148   146   ar
    19   157   156    1
    20   157   159    1
    21   142   141    1
    22   142   145    1
    23   151   149   ar
    24   146   145    1
    25   146   147   ar
    26   149   147   ar
    27    94    93   ar
    28    94    92   ar
    29    93    91   ar
    30   137   136    2
    31    92    90   ar
    32    84    83    2
    33    91    88   ar
    34   136   135    1
    35    90    88   ar
    36    90    89   ar
    37    83    82    1
    38    88    86   ar
    39    75    74   ar
    40    75    73   ar
    41   135   134    1
    42   135   138    1
    43    74    72   ar
    44    89    87   ar
    45    73    71   ar
    46   134   140    1
    47    86    87   ar
    48    86    85    1
    49    79    78    2
    50    82    85    1
    51    82    81    1
    52    72    70   ar
    53   138   139    1
    54    68    67    2
    55    71    70   ar
    56    78    81   am
    57    78    77    1
    58   140   139    1
    59    70    69    1
    60   123   122    2
    61    67    66    1
    62    77    76    1
    63    77    80    1
    64   122   121    1
    65    66    69    1
    66    66    65    1
    67   112   111    2
    68    60    59    2
    69   121   120    1
    70   121   124    1
    71   111   120   am
    72   111   110    1
    73    65    59   am
    74    59    58    1
    75   110   109    1
    76   110   113    1
    77   124   125    1
    78   130   132   ar
    79   130   127   ar
    80   117   119   ar
    81   117   115   ar
    82    52    51    2
    83   119   118   ar
    84   132   133   ar
    85   115   114   ar
    86   118   116   ar
    87    51    50    1
    88    51    57   am
    89   127   125   ar
    90   127   129   ar
    91   114   113    1
    92   114   116   ar
    93   125   126   ar
    94    58    57    1
    95    58    61    1
    96    44    43    2
    97    50    49    1
    98    50    53    1
    99   133   131   ar
   100   214   212    1
   101    61    62    1
   102   172   173    1
   103   172   169    1
   104    56    54    1
   105    43    42    1
   106   129   131   ar
   107   129   128   ar
   108   126   128   ar
   109   173   175   ar
   110   173   174   ar
   111   168   169    1
   112   175   177   ar
   113    53    54    1
   114   174   176   ar
   115   212   211    1
   116    54    55    1
   117    64    62    1
   118   169   170    1
   119   177   178   ar
   120    62    63    1
   121   176   178   ar
   122    42    45    1
   123    42    41    1
   124   211   213    1
   125   211   208    1
   126    45    46    1
   127   207   208    1
   128    37    36    2
   129   170   171    2
   130    48    46    1
   131   208   209    1
   132    41    36   am
   133    46    47    1
   134    36    35    1
   135    33    31    1
   136    32    31    1
   137    31    30    1
   138   209   210    2
   139    29    28    2
   140    30    27    1
   141    35    34    1
   142    35    38    1
   143    15    14    2
   144    27    28    1
   145    27    26    1
   146   199   200   ar
   147   199   197   ar
   148    95    96    1
   149    40    38    1
   150    14    26   am
   151    14    13    1
   152   186   188   ar
   153   186   184   ar
   154   200   198   ar
   155    38    39    1
   156   101   100   ar
   157   101   103   ar
   158   197   195   ar
   159   183   184    1
   160   183   180    1
   161   188   189   ar
   162    99    96    1
   163    99   100    1
   164   223   221   ar
   165   223   225   ar
   166   184   185   ar
   167   179   180    1
   168    10    11   ar
   169    10     8   ar
   170   221   220   ar
   171    16    13    1
   172    16    17    1
   173    96    97    1
   174   100   102   ar
   175   103   104   ar
   176   180   181    1
   177    13    12    1
   178    11     9   ar
   179    22    24   ar
   180    22    19   ar
   181   189   187   ar
   182   198   196   ar
   183    97    98    2
   184    24    25   ar
   185   195   196   ar
   186   195   194    1
   187   185   187   ar
   188   225   224   ar
   189    17    19   ar
   190    17    18   ar
   191     8     6   ar
   192    19    21   ar
   193   220   219    1
   194   220   222   ar
   195   219   216    1
   196   104   102   ar
   197   104   106   ar
   198   102   105   ar
   199   194   191    1
   200   215   216    1
   201     9     7   ar
   202   181   182    1
   203    25    23   ar
   204    18    20   ar
   205   224   222   ar
   206    21    23   ar
   207    21    20   ar
   208     4     3    2
   209   216   217    1
   210     6     7   ar
   211     6     5    1
   212   106   108   ar
   213   105   107   ar
   214     3     2    1
   215   191   190    1
   216   191   192    1
   217   217   218    2
   218   205   206    1
   219   205   202    1
   220     5     2    1
   221   192   201   am
   222   192   193    2
   223   201   202    1
   224   108   107   ar
   225     2     1    1
   226   202   203    1
   227   203   204    1
