@<TRIPOS>MOLECULE
tmp/5b1bN12.pdb
 225 227 0 0 0
SMALL
GASTEIGER

@<TRIPOS>ATOM
      1  N        138.3780  288.0760  215.7040 N.3     1  PHE1       -0.1241
      2  CA       138.6210  288.9770  214.5440 C.3     1  PHE1        0.1605
      3  C        137.4520  288.8330  213.5670 C.2     1  PHE1        0.2264
      4  O        136.8660  289.8040  213.0920 O.2     1  PHE1       -0.2867
      5  CB       139.9190  288.5980  213.7770 C.3     1  PHE1        0.0534
      6  CG       140.2540  289.5740  212.6720 C.ar    1  PHE1       -0.0203
      7  CD1      140.9310  290.8180  212.9850 C.ar    1  PHE1       -0.0042
      8  CD2      139.8370  289.3550  211.3090 C.ar    1  PHE1       -0.0042
      9  CE1      141.2230  291.7470  211.9900 C.ar    1  PHE1       -0.0003
     10  CE2      140.1300  290.3470  210.2870 C.ar    1  PHE1       -0.0003
     11  CZ       140.8000  291.5260  210.6490 C.ar    1  PHE1       -0.0000
     12  N        134.8620  291.8870  212.6740 N.3     5  TRP5       -0.1227
     13  CA       134.9900  292.5950  211.4150 C.3     5  TRP5        0.1737
     14  C        134.1240  292.0300  210.2890 C.2     5  TRP5        0.2595
     15  O        133.9810  292.7250  209.2580 O.2     5  TRP5       -0.2718
     16  CB       136.5010  292.6690  210.9360 C.3     5  TRP5        0.0564
     17  CG       137.2090  293.5360  211.9890 C.ar    5  TRP5        0.0003
     18  CD1      138.1870  293.1200  212.9490 C.ar    5  TRP5        0.0946
     19  CD2      137.1100  295.0010  212.1350 C.ar    5  TRP5        0.0152
     20  NE1      138.6140  294.2530  213.6890 N.ar    5  TRP5       -0.2442
     21  CE2      137.9380  295.3450  213.2330 C.ar    5  TRP5        0.0810
     22  CE3      136.3240  295.9800  211.5240 C.ar    5  TRP5        0.0012
     23  CZ2      138.1040  296.6250  213.6660 C.ar    5  TRP5        0.0191
     24  CZ3      136.4600  297.3680  211.9820 C.ar    5  TRP5        0.0001
     25  CH2      137.3220  297.5970  213.0650 C.ar    5  TRP5        0.0015
     26  N        133.6890  290.7150  210.3940 N.am    6  LEU6       -0.1980
     27  CA       132.8140  290.2970  209.3680 C.3     6  LEU6        0.1596
     28  C        131.3770  290.2000  209.8910 C.2     6  LEU6        0.2287
     29  O        130.4390  290.1260  209.0580 O.2     6  LEU6       -0.2864
     30  CB       133.2100  288.7850  209.0320 C.3     6  LEU6        0.0297
     31  CG       134.3220  288.8370  207.9170 C.3     6  LEU6        0.0022
     32  CD1      135.5410  289.6120  208.1520 C.3     6  LEU6        0.0001
     33  CD2      134.6570  287.2890  207.7070 C.3     6  LEU6        0.0001
     34  N        134.3050  302.3660  209.8260 N.3    16  THR16      -0.1203
     35  CA       135.7360  302.0540  209.4600 C.3    16  THR16       0.1994
     36  C        135.8370  301.1640  208.1790 C.2    16  THR16       0.2617
     37  O        136.6920  301.4180  207.3310 O.2    16  THR16      -0.2717
     38  CB       136.4240  301.4410  210.7070 C.3    16  THR16       0.1784
     39  OG1      136.4220  302.4980  211.6640 O.3    16  THR16      -0.2211
     40  CG2      137.9020  301.0160  210.3610 C.3    16  THR16       0.0376
     41  N        135.0330  300.0650  208.1900 N.am   17  LEU17      -0.1979
     42  CA       135.0340  299.2390  206.9550 C.3    17  LEU17       0.1596
     43  C        134.6900  300.0630  205.6880 C.2    17  LEU17       0.2287
     44  O        135.3470  299.9080  204.6340 O.2    17  LEU17      -0.2864
     45  CB       133.9510  298.0990  207.0960 C.3    17  LEU17       0.0297
     46  CG       134.4830  297.1020  208.1360 C.3    17  LEU17       0.0022
     47  CD1      133.3070  296.1200  208.4800 C.3    17  LEU17       0.0001
     48  CD2      135.6910  296.2660  207.5790 C.3    17  LEU17       0.0001
     49  N        135.1250  303.2570  205.2550 N.3    19  LEU19      -0.1231
     50  CA       136.2210  304.2100  204.8310 C.3    19  LEU19       0.1693
     51  C        137.3830  303.4740  204.1860 C.2    19  LEU19       0.2592
     52  O        137.9530  303.8940  203.2020 O.2    19  LEU19      -0.2718
     53  CB       136.8340  304.8750  206.1240 C.3    19  LEU19       0.0284
     54  CG       135.7630  305.9250  206.7130 C.3    19  LEU19       0.0019
     55  CD1      136.3650  306.4470  208.0560 C.3    19  LEU19       0.0001
     56  CD2      135.5180  307.2030  205.8180 C.3    19  LEU19       0.0001
     57  N        137.6650  302.2100  204.7080 N.am   20  LEU20      -0.1966
     58  CA       138.7630  301.4730  204.0500 C.3    20  LEU20       0.1728
     59  C        138.3330  301.0600  202.6430 C.2    20  LEU20       0.2616
     60  O        139.1530  301.1520  201.7430 O.2    20  LEU20      -0.2715
     61  CB       139.0230  300.1270  204.8870 C.3    20  LEU20       0.0311
     62  CG       139.7530  300.4320  206.2030 C.3    20  LEU20       0.0022
     63  CD1      139.6550  299.1860  207.1930 C.3    20  LEU20       0.0001
     64  CD2      141.1900  300.8270  205.8780 C.3    20  LEU20       0.0001
     65  N        137.1160  300.6220  202.4440 N.am   21  PHE21      -0.1974
     66  CA       136.6440  300.2260  201.1590 C.3    21  PHE21       0.1639
     67  C        136.6600  301.3830  200.2310 C.2    21  PHE21       0.2290
     68  O        137.1430  301.2250  199.0700 O.2    21  PHE21      -0.2864
     69  CB       135.2130  299.7540  201.3270 C.3    21  PHE21       0.0560
     70  CG       134.5720  299.3560  200.0080 C.ar   21  PHE21      -0.0200
     71  CD1      134.6630  297.9950  199.5410 C.ar   21  PHE21      -0.0042
     72  CD2      133.8740  300.2810  199.2690 C.ar   21  PHE21      -0.0042
     73  CE1      133.9440  297.6830  198.3220 C.ar   21  PHE21      -0.0003
     74  CE2      133.2240  299.9730  198.0510 C.ar   21  PHE21      -0.0003
     75  CZ       133.3290  298.6350  197.5460 C.ar   21  PHE21      -0.0000
     76  N        138.4740  304.1090  200.4030 N.3    23  ALA23      -0.1231
     77  CA       139.8300  304.5430  200.0750 C.3    23  ALA23       0.1694
     78  C        140.4220  303.6310  198.9860 C.2    23  ALA23       0.2592
     79  O        141.1160  304.0960  198.0610 O.2    23  ALA23      -0.2718
     80  CB       140.7230  304.5460  201.3540 C.3    23  ALA23       0.0304
     81  N        140.2240  302.3270  199.1280 N.am   24  TRP24      -0.1976
     82  CA       140.8060  301.4160  198.1550 C.3    24  TRP24       0.1640
     83  C        140.1110  301.6380  196.7980 C.2    24  TRP24       0.2290
     84  O        140.8070  301.7030  195.7540 O.2    24  TRP24      -0.2864
     85  CB       140.4490  299.9280  198.6370 C.3    24  TRP24       0.0576
     86  CG       141.2140  298.8850  197.8620 C.ar   24  TRP24       0.0006
     87  CD1      142.4980  298.4370  198.1550 C.ar   24  TRP24       0.0946
     88  CD2      140.7110  298.1170  196.7260 C.ar   24  TRP24       0.0152
     89  NE1      142.7990  297.4400  197.2440 N.ar   24  TRP24      -0.2442
     90  CE2      141.7700  297.2200  196.3660 C.ar   24  TRP24       0.0810
     91  CE3      139.4820  298.1110  196.0120 C.ar   24  TRP24       0.0012
     92  CZ2      141.6930  296.3410  195.2610 C.ar   24  TRP24       0.0191
     93  CZ3      139.3720  297.1550  194.8470 C.ar   24  TRP24       0.0001
     94  CH2      140.4700  296.3340  194.5480 C.ar   24  TRP24       0.0015
     95  N        129.9740  306.6130  211.2150 N.3    80  TRP80      -0.1241
     96  CA       130.7900  307.0020  212.4100 C.3    80  TRP80       0.1605
     97  C        130.0860  308.1550  213.1360 C.2    80  TRP80       0.2264
     98  O        130.0260  308.1720  214.4010 O.2    80  TRP80      -0.2867
     99  CB       132.1720  307.5460  211.8540 C.3    80  TRP80       0.0550
    100  CG       133.2920  306.5350  212.1680 C.ar   80  TRP80       0.0003
    101  CD1      133.9810  305.6920  211.2490 C.ar   80  TRP80       0.0946
    102  CD2      133.8680  306.3110  213.4400 C.ar   80  TRP80       0.0152
    103  NE1      134.9480  305.0020  211.9830 N.ar   80  TRP80      -0.2442
    104  CE2      134.8790  305.3100  213.3000 C.ar   80  TRP80       0.0810
    105  CE3      133.6510  306.9020  214.7110 C.ar   80  TRP80       0.0012
    106  CZ2      135.7670  304.9020  214.3850 C.ar   80  TRP80       0.0191
    107  CZ3      134.4250  306.4430  215.8200 C.ar   80  TRP80       0.0001
    108  CH2      135.5120  305.4480  215.6530 C.ar   80  TRP80       0.0015
    109  N        127.0390  297.2570  204.1360 N.3   101  PHE101     -0.1227
    110  CA       128.4660  297.2340  203.8140 C.3   101  PHE101      0.1736
    111  C        128.8270  296.0380  202.9580 C.2   101  PHE101      0.2595
    112  O        129.5000  296.1890  201.9380 O.2   101  PHE101     -0.2718
    113  CB       129.3350  297.2180  205.1170 C.3   101  PHE101      0.0547
    114  CG       130.7880  297.0760  204.7670 C.ar  101  PHE101     -0.0202
    115  CD1      131.4420  298.1750  204.0980 C.ar  101  PHE101     -0.0042
    116  CD2      131.3870  295.8110  204.8150 C.ar  101  PHE101     -0.0042
    117  CE1      132.7240  297.9550  203.5790 C.ar  101  PHE101     -0.0003
    118  CE2      132.6900  295.6330  204.3430 C.ar  101  PHE101     -0.0003
    119  CZ       133.3260  296.6510  203.6100 C.ar  101  PHE101     -0.0000
    120  N        128.4730  294.8280  203.4390 N.am  102  TRP102     -0.1976
    121  CA       128.9900  293.6550  202.7280 C.3   102  TRP102      0.1640
    122  C        128.4290  293.3880  201.3200 C.2   102  TRP102      0.2290
    123  O        129.0080  292.5450  200.5970 O.2   102  TRP102     -0.2864
    124  CB       128.8380  292.3470  203.6440 C.3   102  TRP102      0.0576
    125  CG       129.9370  292.3170  204.7390 C.ar  102  TRP102      0.0006
    126  CD1      129.7730  292.5650  206.0370 C.ar  102  TRP102      0.0946
    127  CD2      131.3290  292.2190  204.5020 C.ar  102  TRP102      0.0152
    128  NE1      131.0280  292.5390  206.6740 N.ar  102  TRP102     -0.2442
    129  CE2      131.9990  292.3180  205.7390 C.ar  102  TRP102      0.0810
    130  CE3      132.1160  291.9840  203.3170 C.ar  102  TRP102      0.0012
    131  CZ2      133.3780  292.3100  205.8840 C.ar  102  TRP102      0.0191
    132  CZ3      133.5330  291.9500  203.4530 C.ar  102  TRP102      0.0001
    133  CH2      134.1610  292.1790  204.6950 C.ar  102  TRP102      0.0015
    134  N        131.5750  294.8570  198.4770 N.3   105  PRO105     -0.2116
    135  CA       132.6280  294.0340  197.8120 C.3   105  PRO105      0.1372
    136  C        132.0840  293.1540  196.6370 C.2   105  PRO105      0.2244
    137  O        132.6990  293.1970  195.5500 O.2   105  PRO105     -0.2868
    138  CB       133.3310  293.2440  198.9820 C.3   105  PRO105      0.0268
    139  CG       133.0330  294.2100  200.2020 C.3   105  PRO105      0.0207
    140  CD       131.5530  294.7480  199.9390 C.3   105  PRO105      0.0892
    141  N        131.3910  295.3720  193.7160 N.3   108  PHE108     -0.1227
    142  CA       132.5830  295.8590  193.0210 C.3   108  PHE108      0.1736
    143  C        133.2190  294.6420  192.2240 C.2   108  PHE108      0.2595
    144  O        133.7130  294.8210  191.0780 O.2   108  PHE108     -0.2718
    145  CB       133.5910  296.2980  194.1260 C.3   108  PHE108      0.0547
    146  CG       134.6600  297.2640  193.6600 C.ar  108  PHE108     -0.0202
    147  CD1      135.0080  297.5010  192.2720 C.ar  108  PHE108     -0.0042
    148  CD2      135.3160  297.9900  194.6600 C.ar  108  PHE108     -0.0042
    149  CE1      135.9990  298.4640  191.9030 C.ar  108  PHE108     -0.0003
    150  CE2      136.2870  299.0100  194.2830 C.ar  108  PHE108     -0.0003
    151  CZ       136.6340  299.2440  192.9120 C.ar  108  PHE108     -0.0000
    152  N        133.1320  293.4620  192.8020 N.am  109  LEU109     -0.1980
    153  CA       133.6250  292.2790  192.0740 C.3   109  LEU109      0.1596
    154  C        132.8140  292.1000  190.7650 C.2   109  LEU109      0.2287
    155  O        133.4050  291.7160  189.7130 O.2   109  LEU109     -0.2864
    156  CB       133.3930  291.0390  192.9740 C.3   109  LEU109      0.0297
    157  CG       133.7710  289.6440  192.3240 C.3   109  LEU109      0.0022
    158  CD1      135.2610  289.5920  191.8710 C.3   109  LEU109      0.0001
    159  CD2      133.4710  288.4970  193.2990 C.3   109  LEU109      0.0001
    160  N        134.2690  294.5450  188.3870 N.3   112  LEU112     -0.1245
    161  CA       135.5650  294.0660  187.8650 C.3   112  LEU112      0.1561
    162  C        135.3550  292.8220  186.8840 C.2   112  LEU112      0.2260
    163  O        136.0390  292.6670  185.8440 O.2   112  LEU112     -0.2867
    164  CB       136.6080  294.0560  189.0600 C.3   112  LEU112      0.0270
    165  CG       136.9730  295.3740  189.8560 C.3   112  LEU112      0.0019
    166  CD1      138.0940  295.2650  190.9670 C.3   112  LEU112      0.0001
    167  CD2      137.3900  296.5750  188.9920 C.3   112  LEU112      0.0001
    168  N        138.0990  314.0350  206.2720 N.3   392  PHE392     -0.1241
    169  CA       139.0170  312.9570  206.7270 C.3   392  PHE392      0.1605
    170  C        140.1640  313.5470  207.6070 C.2   392  PHE392      0.2264
    171  O        140.4550  313.0370  208.6830 O.2   392  PHE392     -0.2867
    172  CB       139.6540  312.3080  205.4870 C.3   392  PHE392      0.0534
    173  CG       140.5860  311.1530  205.8830 C.ar  392  PHE392     -0.0203
    174  CD1      140.0140  309.9290  206.1630 C.ar  392  PHE392     -0.0042
    175  CD2      141.9730  311.4050  205.8930 C.ar  392  PHE392     -0.0042
    176  CE1      140.9490  308.8520  206.5060 C.ar  392  PHE392     -0.0003
    177  CE2      142.8910  310.4340  206.2920 C.ar  392  PHE392     -0.0003
    178  CZ       142.3440  309.1340  206.4960 C.ar  392  PHE392     -0.0000
    179  N        139.9480  312.2900  211.3150 N.3   396  PHE396     -0.1241
    180  CA       140.8770  311.1430  211.4810 C.3   396  PHE396      0.1605
    181  C        141.3680  311.0270  212.9340 C.2   396  PHE396      0.2264
    182  O        141.4230  309.8570  213.4570 O.2   396  PHE396     -0.2867
    183  CB       142.0970  311.3590  210.5750 C.3   396  PHE396      0.0534
    184  CG       143.2130  310.2760  210.7400 C.ar  396  PHE396     -0.0203
    185  CD1      143.0310  309.0510  210.1200 C.ar  396  PHE396     -0.0042
    186  CD2      144.2170  310.4850  211.6090 C.ar  396  PHE396     -0.0042
    187  CE1      144.1030  308.0740  210.3260 C.ar  396  PHE396     -0.0003
    188  CE2      145.2390  309.5530  211.8200 C.ar  396  PHE396     -0.0003
    189  CZ       145.1560  308.4090  211.1820 C.ar  396  PHE396     -0.0000
    190  N        138.5930  309.1830  214.7930 N.3   399  PHE399     -0.1227
    191  CA       138.2720  307.7570  214.4760 C.3   399  PHE399      0.1736
    192  C        139.4840  306.9620  214.9150 C.2   399  PHE399      0.2592
    193  O        139.2840  305.7560  215.2570 O.2   399  PHE399     -0.2718
    194  CB       138.1410  307.6540  212.9950 C.3   399  PHE399      0.0547
    195  CG       136.9950  308.5000  212.4180 C.ar  399  PHE399     -0.0202
    196  CD1      135.8590  308.9150  213.1900 C.ar  399  PHE399     -0.0042
    197  CD2      137.0690  308.7030  211.0380 C.ar  399  PHE399     -0.0042
    198  CE1      134.8650  309.6730  212.4770 C.ar  399  PHE399     -0.0003
    199  CE2      136.0150  309.4850  210.3960 C.ar  399  PHE399     -0.0003
    200  CZ       134.9820  309.9080  211.1310 C.ar  399  PHE399     -0.0000
    201  N        140.7250  307.5110  214.8870 N.am  400  SER400     -0.2005
    202  CA       141.8560  306.6610  215.0880 C.3   400  SER400      0.1610
    203  C        142.5190  306.8640  216.4840 C.3   400  SER400      0.2063
    204  O        143.2600  305.8520  216.8910 O.3   400  SER400     -0.2184
    205  CB       143.0610  306.9530  214.0650 C.3   400  SER400      0.2063
    206  OG       143.5810  308.2720  214.2770 O.3   400  SER400     -0.2184
    207  N        149.0440  309.1910  206.0370 N.3   471  ILE471     -0.1245
    208  CA       148.2280  308.3760  206.9370 C.3   471  ILE471      0.1561
    209  C        149.1830  307.3190  207.6180 C.2   471  ILE471      0.2260
    210  O        149.1090  307.0990  208.8470 O.2   471  ILE471     -0.2867
    211  CB       147.1930  307.6400  206.1440 C.3   471  ILE471      0.0252
    212  CG1      146.1220  308.6990  205.6300 C.3   471  ILE471      0.0019
    213  CG2      146.4940  306.5510  207.0290 C.3   471  ILE471      0.0019
    214  CD1      145.1930  308.0730  204.5210 C.3   471  ILE471      0.0001
    215  N        149.9320  306.7590  211.8100 N.3   475  PHE475     -0.1241
    216  CA       149.9260  305.5310  212.5720 C.3   475  PHE475      0.1605
    217  C        151.3010  305.0720  213.0610 C.2   475  PHE475      0.2264
    218  O        151.3900  304.2470  213.9980 O.2   475  PHE475     -0.2867
    219  CB       149.3470  304.4100  211.6800 C.3   475  PHE475      0.0534
    220  CG       147.7810  304.4680  211.5440 C.ar  475  PHE475     -0.0203
    221  CD1      146.9650  304.2970  212.7690 C.ar  475  PHE475     -0.0042
    222  CD2      147.0830  304.7140  210.2440 C.ar  475  PHE475     -0.0042
    223  CE1      145.6000  304.2940  212.6860 C.ar  475  PHE475     -0.0003
    224  CE2      145.6420  304.6850  210.2320 C.ar  475  PHE475     -0.0003
    225  CZ       144.9150  304.4580  211.4520 C.ar  475  PHE475     -0.0000
@<TRIPOS>BOND
     1   163   162    2
     2   162   161    1
     3   161   160    1
     4   161   164    1
     5   167   165    1
     6   164   165    1
     7   155   154    2
     8   165   166    1
     9   154   153    1
    10   144   143    2
    11   158   157    1
    12   149   147   ar
    13   149   151   ar
    14   153   152    1
    15   153   156    1
    16   143   152   am
    17   143   142    1
    18   147   146   ar
    19   157   156    1
    20   157   159    1
    21   151   150   ar
    22   142   141    1
    23   142   145    1
    24   146   145    1
    25   146   148   ar
    26   150   148   ar
    27    94    93   ar
    28    94    92   ar
    29    93    91   ar
    30    92    90   ar
    31   137   136    2
    32    84    83    2
    33    91    88   ar
    34    90    88   ar
    35    90    89   ar
    36   136   135    1
    37    88    86   ar
    38    83    82    1
    39    89    87   ar
    40    75    74   ar
    41    75    73   ar
    42   135   134    1
    43   135   138    1
    44    86    87   ar
    45    86    85    1
    46    74    72   ar
    47    79    78    2
    48    82    85    1
    49    82    81    1
    50    73    71   ar
    51   134   140    1
    52   138   139    1
    53    78    81   am
    54    78    77    1
    55    68    67    2
    56    72    70   ar
    57    71    70   ar
    58   140   139    1
    59    70    69    1
    60    77    76    1
    61    77    80    1
    62    67    66    1
    63   123   122    2
    64    66    69    1
    65    66    65    1
    66   122   121    1
    67    60    59    2
    68   112   111    2
    69    65    59   am
    70    59    58    1
    71   121   120    1
    72   121   124    1
    73   111   120   am
    74   111   110    1
    75    52    51    2
    76   130   132   ar
    77   130   127   ar
    78   132   133   ar
    79   117   119   ar
    80   117   115   ar
    81   119   118   ar
    82   124   125    1
    83   110   109    1
    84   110   113    1
    85    58    57    1
    86    58    61    1
    87   115   114   ar
    88    51    57   am
    89    51    50    1
    90   118   116   ar
    91   127   125   ar
    92   127   129   ar
    93   214   212    1
    94    44    43    2
    95   133   131   ar
    96   125   126   ar
    97   114   116   ar
    98   114   113    1
    99    50    49    1
   100    50    53    1
   101    61    62    1
   102   172   173    1
   103   172   169    1
   104   212   211    1
   105    43    42    1
   106   129   131   ar
   107   129   128   ar
   108    56    54    1
   109    64    62    1
   110   173   175   ar
   111   173   174   ar
   112   175   177   ar
   113   126   128   ar
   114   207   208    1
   115    53    54    1
   116   211   208    1
   117   211   213    1
   118   174   176   ar
   119    62    63    1
   120   168   169    1
   121   177   178   ar
   122   178   176   ar
   123    54    55    1
   124   169   170    1
   125   208   209    1
   126    42    45    1
   127    42    41    1
   128    45    46    1
   129    37    36    2
   130    48    46    1
   131   170   171    2
   132   209   210    2
   133    33    31    1
   134    31    32    1
   135    31    30    1
   136    46    47    1
   137    36    41   am
   138    36    35    1
   139    30    27    1
   140    29    28    2
   141    15    14    2
   142    27    28    1
   143    27    26    1
   144    35    34    1
   145    35    38    1
   146   185   187   ar
   147   185   184   ar
   148   224   222   ar
   149   224   225   ar
   150   222   220   ar
   151    10    11   ar
   152    10     8   ar
   153    14    26   am
   154    14    13    1
   155   187   189   ar
   156    40    38    1
   157   199   197   ar
   158   199   200   ar
   159   183   184    1
   160   183   180    1
   161    11     9   ar
   162    38    39    1
   163   184   186   ar
   164    16    13    1
   165    16    17    1
   166   197   195   ar
   167   200   198   ar
   168   189   188   ar
   169    95    96    1
   170   101   103   ar
   171   101   100   ar
   172     8     6   ar
   173   179   180    1
   174    13    12    1
   175   225   223   ar
   176   180   181    1
   177    22    24   ar
   178    22    19   ar
   179   220   219    1
   180   220   221   ar
   181   186   188   ar
   182   219   216    1
   183   215   216    1
   184    99   100    1
   185    99    96    1
   186    24    25   ar
   187   103   104   ar
   188    17    19   ar
   189    17    18   ar
   190     9     7   ar
   191    19    21   ar
   192   100   102   ar
   193    96    97    1
   194   195   194    1
   195   195   196   ar
   196   198   196   ar
   197   216   217    1
   198     6     7   ar
   199     6     5    1
   200   223   221   ar
   201   181   182    2
   202    18    20   ar
   203   194   191    1
   204   217   218    2
   205    25    23   ar
   206     4     3    2
   207    97    98    2
   208    21    23   ar
   209    21    20   ar
   210   104   102   ar
   211   104   106   ar
   212   102   105   ar
   213     3     2    1
   214     5     2    1
   215   205   206    1
   216   205   202    1
   217   106   108   ar
   218   191   190    1
   219   191   192    1
   220     2     1    1
   221   105   107   ar
   222   201   192   am
   223   201   202    1
   224   192   193    2
   225   202   203    1
   226   108   107   ar
   227   203   204    1
