@<TRIPOS>MOLECULE
tmp/5b1sD01.pdb
 133 129 0 0 0
SMALL
GASTEIGER

@<TRIPOS>ATOM
      1  N         10.7740  -30.5590   41.7140 N.3    14  GLU14      -0.1245
      2  CA        11.8130  -31.3000   40.9510 C.3    14  GLU14       0.1567
      3  C         13.0870  -30.4580   40.9180 C.2    14  GLU14       0.2260
      4  O         13.5780  -30.0680   39.8580 O.2    14  GLU14      -0.2867
      5  CB        11.2850  -31.6090   39.5600 C.3    14  GLU14       0.0388
      6  CG        12.0260  -32.6940   38.8070 C.3    14  GLU14       0.1160
      7  CD        11.6850  -32.7900   37.3700 C.2    14  GLU14       0.3649
      8  OE1       11.3460  -31.7620   36.7360 O.co2  14  GLU14      -0.2457
      9  OE2       11.8030  -33.9340   36.8670 O.co2  14  GLU14      -0.2457
     10  N         19.4080  -29.1870   36.3520 N.3    19  TRP19      -0.1241
     11  CA        18.7420  -27.9940   35.8130 C.3    19  TRP19       0.1605
     12  C         18.7120  -26.9570   36.9170 C.2    19  TRP19       0.2264
     13  O         17.6460  -26.7050   37.5310 O.2    19  TRP19      -0.2867
     14  CB        17.3090  -28.3260   35.2890 C.3    19  TRP19       0.0550
     15  CG        16.5600  -29.3970   36.0520 C.ar   19  TRP19       0.0003
     16  CD1       15.7370  -29.2310   37.1270 C.ar   19  TRP19       0.0946
     17  CD2       16.4920  -30.7820   35.7100 C.ar   19  TRP19       0.0152
     18  NE1       15.2260  -30.4330   37.5350 N.ar   19  TRP19      -0.2442
     19  CE2       15.6350  -31.4020   36.6490 C.ar   19  TRP19       0.0810
     20  CE3       17.0600  -31.5660   34.6960 C.ar   19  TRP19       0.0012
     21  CZ2       15.4340  -32.7800   36.6960 C.ar   19  TRP19       0.0191
     22  CZ3       16.8010  -32.8880   34.6700 C.ar   19  TRP19       0.0001
     23  CH2       16.0060  -33.5160   35.6930 C.ar   19  TRP19       0.0015
     24  N         13.6850  -37.2430   39.5160 N.3    62  CYS62      -0.1221
     25  CA        13.4080  -36.7170   38.1620 C.3    62  CYS62       0.1808
     26  C         12.1280  -37.3310   37.7130 C.2    62  CYS62       0.2601
     27  O         12.0400  -38.6220   37.5790 O.2    62  CYS62      -0.2717
     28  CB        14.5320  -37.1620   37.1540 C.3    62  CYS62       0.0970
     29  SG        16.1370  -36.5250   37.6860 S.3    62  CYS62      -0.0800
     30  N         11.1130  -36.4890   37.3610 N.am   63  ILE63      -0.1965
     31  CA         9.8980  -37.0950   36.8500 C.3    63  ILE63       0.1727
     32  C         10.1210  -37.9810   35.6060 C.2    63  ILE63       0.2616
     33  O         10.7750  -37.5250   34.6440 O.2    63  ILE63      -0.2715
     34  CB         8.8880  -35.9260   36.5250 C.3    63  ILE63       0.0290
     35  CG1        8.6050  -35.1310   37.8330 C.3    63  ILE63       0.0022
     36  CG2        7.5700  -36.5010   35.9340 C.3    63  ILE63       0.0023
     37  CD1        7.9420  -33.7360   37.6130 C.3    63  ILE63       0.0001
     38  N          9.4420  -39.1370   35.6140 N.am   64  GLN64      -0.1977
     39  CA         9.5800  -40.1260   34.5270 C.3    64  GLN64       0.1601
     40  C          8.3100  -40.2250   33.6700 C.2    64  GLN64       0.2287
     41  O          8.3730  -40.3240   32.4150 O.2    64  GLN64      -0.2864
     42  CB         9.9150  -41.4860   35.1190 C.3    64  GLN64       0.0394
     43  CG        11.2190  -41.4730   35.9090 C.3    64  GLN64       0.0908
     44  CD        12.4500  -41.2880   35.0380 C.2    64  GLN64       0.2608
     45  OE1       12.6880  -42.0620   34.1180 O.2    64  GLN64      -0.2717
     46  NE2       13.2110  -40.2570   35.3180 N.am   64  GLN64      -0.0878
     47  N          5.8480  -39.2110   24.7270 N.3    73  TYR73      -0.1241
     48  CA         7.1370  -39.7990   24.5480 C.3    73  TYR73       0.1605
     49  C          7.0620  -41.2540   24.1030 C.2    73  TYR73       0.2264
     50  O          7.8360  -41.6930   23.2520 O.2    73  TYR73      -0.2867
     51  CB         7.8620  -39.5700   25.8410 C.3    73  TYR73       0.0534
     52  CG         9.2140  -40.2340   25.9860 C.ar   73  TYR73      -0.0201
     53  CD1       10.3510  -39.6070   25.5240 C.ar   73  TYR73      -0.0009
     54  CD2        9.3100  -41.4650   26.6180 C.ar   73  TYR73      -0.0009
     55  CE1       11.6040  -40.2080   25.6960 C.ar   73  TYR73       0.0417
     56  CE2       10.5750  -42.0560   26.8550 C.ar   73  TYR73       0.0417
     57  CZ        11.6970  -41.4130   26.3640 C.ar   73  TYR73       0.1957
     58  OH        12.9240  -42.0260   26.5640 O.3    73  TYR73      -0.2866
     59  N         15.5180  -46.0550   26.1720 N.3   168  ASP168     -0.1225
     60  CA        14.5860  -45.2410   26.9280 C.3   168  ASP168      0.1805
     61  C         15.1510  -45.1950   28.3250 C.2   168  ASP168      0.2598
     62  O         14.7810  -45.9900   29.1900 O.2   168  ASP168     -0.2718
     63  CB        13.1530  -45.8740   26.8880 C.3   168  ASP168      0.1424
     64  CG        12.2190  -45.1260   27.8190 C.2   168  ASP168      0.3668
     65  OD1       12.6040  -44.0930   28.2660 O.co2 168  ASP168     -0.2456
     66  OD2       11.1740  -45.6810   28.1690 O.co2 168  ASP168     -0.2456
     67  N         16.0730  -44.2670   28.5420 N.am  169  THR169     -0.1939
     68  CA        16.8370  -44.2210   29.8000 C.3   169  THR169      0.2028
     69  C         16.5120  -42.9760   30.6390 C.2   169  THR169      0.2643
     70  O         15.9880  -41.9460   30.1490 O.2   169  THR169     -0.2714
     71  CB        18.3800  -44.2230   29.5660 C.3   169  THR169      0.1808
     72  OG1       18.7220  -42.9820   28.9780 O.3   169  THR169     -0.2208
     73  CG2       18.6780  -45.2930   28.6300 C.3   169  THR169      0.0379
     74  N         16.8770  -43.0910   31.9270 N.am  170  THR170     -0.1936
     75  CA        16.9560  -41.8950   32.7840 C.3   170  THR170      0.2028
     76  C         18.0830  -40.9400   32.3550 C.2   170  THR170      0.2642
     77  O         18.8070  -41.1730   31.3950 O.2   170  THR170     -0.2714
     78  CB        17.1930  -42.4170   34.2410 C.3   170  THR170      0.1808
     79  OG1       18.2140  -43.4590   34.1650 O.3   170  THR170     -0.2208
     80  CG2       15.9630  -43.0580   34.9450 C.3   170  THR170      0.0379
     81  N         18.0960  -39.7960   33.0370 N.am  171  ASP171     -0.1971
     82  CA        19.1120  -38.7820   32.8100 C.3   171  ASP171      0.1709
     83  C         20.5200  -39.3600   33.0910 C.2   171  ASP171      0.2293
     84  O         20.6440  -40.3980   33.6980 O.2   171  ASP171     -0.2864
     85  CB        18.8400  -37.6660   33.7760 C.3   171  ASP171      0.1436
     86  CG        17.6190  -36.8350   33.4120 C.2   171  ASP171      0.3671
     87  OD1       17.6910  -36.1150   32.3840 O.co2 171  ASP171     -0.2456
     88  OD2       16.6470  -36.8270   34.1850 O.co2 171  ASP171     -0.2456
     89  N         16.6210  -41.5070   24.5080 N.3   201  GLN201     -0.1245
     90  CA        16.1420  -40.3830   25.2620 C.3   201  GLN201      0.1566
     91  C         17.1980  -39.3100   25.1210 C.2   201  GLN201      0.2260
     92  O         18.2860  -39.3890   25.7270 O.2   201  GLN201     -0.2867
     93  CB        15.9100  -40.8350   26.7290 C.3   201  GLN201      0.0367
     94  CG        15.2710  -39.8010   27.6410 C.3   201  GLN201      0.0905
     95  CD        16.2810  -38.7790   28.1720 C.2   201  GLN201      0.2608
     96  OE1       16.3760  -37.6680   27.6320 O.2   201  GLN201     -0.2717
     97  NE2       16.9950  -39.1630   29.2780 N.am  201  GLN201     -0.0878
     98  N         17.3690  -35.9200   25.6300 N.3   203  GLU203     -0.1245
     99  CA        17.5280  -34.6890   26.4650 C.3   203  GLU203      0.1567
    100  C         17.0510  -33.4110   25.7940 C.2   203  GLU203      0.2260
    101  O         16.2560  -33.4890   24.8360 O.2   203  GLU203     -0.2867
    102  CB        18.9840  -34.6300   26.9600 C.3   203  GLU203      0.0388
    103  CG        19.2960  -35.7700   27.8480 C.3   203  GLU203      0.1160
    104  CD        18.5420  -35.7050   29.2010 C.2   203  GLU203      0.3649
    105  OE1       17.7920  -34.6860   29.5220 O.co2 203  GLU203     -0.2457
    106  OE2       18.7000  -36.6510   30.0580 O.co2 203  GLU203     -0.2457
    107  N          8.4390  -33.0260   31.4830 N.3   237  TYR237     -0.1228
    108  CA         9.8930  -33.0530   31.4660 C.3   237  TYR237      0.1721
    109  C         10.4650  -31.6580   31.5060 C.2   237  TYR237      0.2437
    110  O          9.7860  -30.7480   31.1640 O.2   237  TYR237     -0.2733
    111  CB        10.4500  -33.8170   30.2400 C.3   237  TYR237      0.0547
    112  CG        10.0720  -35.2820   30.2220 C.ar  237  TYR237     -0.0200
    113  CD1       10.1490  -36.0460   31.4080 C.ar  237  TYR237     -0.0009
    114  CD2        9.7710  -35.9440   29.0270 C.ar  237  TYR237     -0.0009
    115  CE1        9.8200  -37.4160   31.3590 C.ar  237  TYR237      0.0417
    116  CE2        9.4520  -37.3100   28.9630 C.ar  237  TYR237      0.0417
    117  CZ         9.4940  -38.0550   30.1330 C.ar  237  TYR237      0.1957
    118  OH         9.1050  -39.3720   30.1220 O.3   237  TYR237     -0.2866
    119  N         11.6950  -31.5010   32.0330 N.am  238  PRO238     -0.2729
    120  CA        12.1890  -30.1790   32.3110 C.3   238  PRO238      0.1401
    121  C         12.1740  -29.2920   31.0860 C.2   238  PRO238      0.2269
    122  O         12.6220  -29.6750   30.0060 O.2   238  PRO238     -0.2865
    123  CB        13.6140  -30.4280   32.8400 C.3   238  PRO238      0.0296
    124  CG        13.4400  -31.6990   33.5880 C.3   238  PRO238      0.0237
    125  CD        12.4530  -32.5380   32.7200 C.3   238  PRO238      0.0939
    126  N         11.3260  -32.7520   25.2630 N.3   242  ILE242     -0.1245
    127  CA        12.4560  -33.6830   25.2920 C.3   242  ILE242      0.1561
    128  C         12.6500  -34.0140   23.8060 C.2   242  ILE242      0.2260
    129  O         11.7590  -33.7380   22.9790 O.2   242  ILE242     -0.2867
    130  CB        12.1550  -34.9410   26.1630 C.3   242  ILE242      0.0252
    131  CG1       13.4390  -35.7300   26.4630 C.3   242  ILE242      0.0019
    132  CG2       11.1170  -35.9030   25.5650 C.3   242  ILE242      0.0019
    133  CD1       14.1130  -35.0970   27.6270 C.3   242  ILE242      0.0001
@<TRIPOS>BOND
     1   129   128    2
     2    50    49    2
     3   128   127    1
     4    49    48    1
     5    89    90    1
     6    48    47    1
     7    48    51    1
     8   101   100    2
     9    91    90    1
    10    91    92    2
    11    90    93    1
    12   126   127    1
    13   127   130    1
    14    53    55   ar
    15    53    52   ar
    16   132   130    1
    17    98    99    1
    18    55    57   ar
    19   100    99    1
    20    51    52    1
    21    52    54   ar
    22   130   131    1
    23    59    60    1
    24    57    58    1
    25    57    56   ar
    26   131   133    1
    27    99   102    1
    28    54    56   ar
    29    93    94    1
    30    63    60    1
    31    63    64    1
    32    60    61    1
    33   102   103    1
    34    96    95    2
    35    94    95    1
    36    64    66   ar
    37    64    65   ar
    38   103   104    1
    39    95    97   am
    40    61    67   am
    41    61    62    2
    42    67    68    1
    43    73    71    1
    44   116   114   ar
    45   116   117   ar
    46    72    71    1
    47   114   112   ar
    48   104   105   ar
    49   104   106   ar
    50    71    68    1
    51    68    69    1
    52   122   121    2
    53   118   117    1
    54   117   115   ar
    55    70    69    2
    56   112   111    1
    57   112   113   ar
    58   111   108    1
    59    69    74   am
    60   121   120    1
    61   110   109    2
    62   115   113   ar
    63    77    76    2
    64   108   107    1
    65   108   109    1
    66   109   119   am
    67    74    75    1
    68   119   120    1
    69   119   125    1
    70   120   123    1
    71    76    75    1
    72    76    81   am
    73    87    86   ar
    74    41    40    2
    75   125   124    1
    76    75    78    1
    77    82    81    1
    78    82    83    1
    79    82    85    1
    80   123   124    1
    81    83    84    2
    82    86    85    1
    83    86    88   ar
    84    40    39    1
    85    45    44    2
    86    79    78    1
    87    78    80    1
    88    39    42    1
    89    39    38    1
    90    33    32    2
    91    22    20   ar
    92    22    23   ar
    93    20    17   ar
    94    44    46   am
    95    44    43    1
    96    42    43    1
    97    14    11    1
    98    14    15    1
    99    32    38   am
   100    32    31    1
   101    23    21   ar
   102    17    15   ar
   103    17    19   ar
   104    11    10    1
   105    11    12    1
   106    36    34    1
   107    15    16   ar
   108    34    31    1
   109    34    35    1
   110    19    21   ar
   111    19    18   ar
   112     8     7   ar
   113    31    30    1
   114     9     7   ar
   115    12    13    2
   116    16    18   ar
   117    28    29    1
   118    28    25    1
   119    30    26   am
   120     7     6    1
   121    27    26    2
   122    37    35    1
   123    26    25    1
   124    25    24    1
   125     6     5    1
   126     5     2    1
   127     4     3    2
   128     3     2    1
   129     2     1    1
