@<TRIPOS>MOLECULE
tmp/5b1sD00.pdb
 204 193 0 0 0
SMALL
GASTEIGER

@<TRIPOS>ATOM
      1  N         18.1380  -46.9710   42.4650 N.3    40  GLN40      -0.1245
      2  CA        17.6140  -45.5990   42.3640 C.3    40  GLN40       0.1566
      3  C         16.5890  -45.3080   43.4430 C.2    40  GLN40       0.2260
      4  O         15.9910  -46.2430   43.9680 O.2    40  GLN40      -0.2867
      5  CB        16.9480  -45.3980   40.9960 C.3    40  GLN40       0.0367
      6  CG        17.8940  -45.4920   39.8010 C.3    40  GLN40       0.0905
      7  CD        17.1480  -45.7840   38.4950 C.2    40  GLN40       0.2608
      8  OE1       17.3160  -44.9210   37.5800 O.2    40  GLN40      -0.2717
      9  NE2       16.4500  -46.9350   38.3470 N.am   40  GLN40      -0.0878
     10  N          5.4210  -40.7140   38.4990 N.3    57  MET57      -0.1245
     11  CA         6.6020  -41.4870   38.9850 C.3    57  MET57       0.1570
     12  C          7.8450  -40.6520   38.8380 C.2    57  MET57       0.2261
     13  O          8.0490  -40.0420   37.8080 O.2    57  MET57      -0.2867
     14  CB         6.7930  -42.7660   38.0960 C.3    57  MET57       0.0387
     15  CG         8.1150  -43.4770   38.3930 C.3    57  MET57       0.0595
     16  SD         8.4660  -44.8400   37.1750 S.3    57  MET57      -0.1393
     17  CE         7.2650  -45.7540   37.9910 C.3    57  MET57       0.0692
     18  N         12.2550  -41.0000   39.4140 N.3    59  LEU59      -0.1245
     19  CA        13.4600  -41.7460   39.7790 C.3    59  LEU59       0.1561
     20  C         14.5930  -40.7630   40.0670 C.2    59  LEU59       0.2260
     21  O         14.9600  -39.9320   39.2900 O.2    59  LEU59      -0.2867
     22  CB        13.9400  -42.6660   38.6280 C.3    59  LEU59       0.0270
     23  CG        13.0610  -43.8730   38.3930 C.3    59  LEU59       0.0019
     24  CD1       13.4080  -44.6780   37.1070 C.3    59  LEU59       0.0001
     25  CD2       13.2570  -44.8720   39.5260 C.3    59  LEU59       0.0001
     26  N          9.4420  -39.1370   35.6140 N.3    64  GLN64      -0.1231
     27  CA         9.5800  -40.1260   34.5270 C.3    64  GLN64       0.1698
     28  C          8.3100  -40.2250   33.6700 C.2    64  GLN64       0.2592
     29  O          8.3730  -40.3240   32.4150 O.2    64  GLN64      -0.2718
     30  CB         9.9150  -41.4860   35.1190 C.3    64  GLN64       0.0381
     31  CG        11.2190  -41.4730   35.9090 C.3    64  GLN64       0.0905
     32  CD        12.4500  -41.2880   35.0380 C.2    64  GLN64       0.2608
     33  OE1       12.6880  -42.0620   34.1180 O.2    64  GLN64      -0.2717
     34  NE2       13.2110  -40.2570   35.3180 N.am   64  GLN64      -0.0878
     35  N          7.1670  -40.3300   34.3270 N.am   65  VAL65      -0.1980
     36  CA         5.9100  -40.4270   33.6290 C.3    65  VAL65       0.1595
     37  C          4.8480  -39.7660   34.4720 C.2    65  VAL65       0.2287
     38  O          4.9110  -39.7560   35.6930 O.2    65  VAL65      -0.2864
     39  CB         5.4460  -41.8930   33.3620 C.3    65  VAL65       0.0276
     40  CG1        6.3620  -42.6540   32.3590 C.3    65  VAL65       0.0022
     41  CG2        5.3830  -42.6800   34.6380 C.3    65  VAL65       0.0022
     42  N          5.8480  -39.2110   24.7270 N.3    73  TYR73      -0.1227
     43  CA         7.1370  -39.7990   24.5480 C.3    73  TYR73       0.1736
     44  C          7.0620  -41.2540   24.1030 C.2    73  TYR73       0.2595
     45  O          7.8360  -41.6930   23.2520 O.2    73  TYR73      -0.2718
     46  CB         7.8620  -39.5700   25.8410 C.3    73  TYR73       0.0548
     47  CG         9.2140  -40.2340   25.9860 C.ar   73  TYR73      -0.0200
     48  CD1       10.3510  -39.6070   25.5240 C.ar   73  TYR73      -0.0009
     49  CD2        9.3100  -41.4650   26.6180 C.ar   73  TYR73      -0.0009
     50  CE1       11.6040  -40.2080   25.6960 C.ar   73  TYR73       0.0417
     51  CE2       10.5750  -42.0560   26.8550 C.ar   73  TYR73       0.0417
     52  CZ        11.6970  -41.4130   26.3640 C.ar   73  TYR73       0.1957
     53  OH        12.9240  -42.0260   26.5640 O.3    73  TYR73      -0.2866
     54  N          6.1000  -41.9830   24.6330 N.am   74  HIS74      -0.1975
     55  CA         6.0060  -43.3970   24.2660 C.3    74  HIS74       0.1656
     56  C          5.5970  -43.5330   22.7980 C.2    74  HIS74       0.2291
     57  O          6.1990  -44.3890   22.1040 O.2    74  HIS74      -0.2864
     58  CB         5.0010  -44.0150   25.2570 C.3    74  HIS74       0.0771
     59  CG         5.5770  -44.1140   26.6250 C.ar   74  HIS74       0.0820
     60  ND1        4.7720  -43.9910   27.7570 N.ar   74  HIS74      -0.2267
     61  CD2        6.8560  -44.2250   27.0520 C.ar   74  HIS74       0.1154
     62  CE1        5.5620  -44.0440   28.8340 C.ar   74  HIS74       0.1986
     63  NE2        6.8110  -44.2160   28.4310 N.ar   74  HIS74      -0.2212
     64  N         16.1940  -50.7490   25.7130 N.3    94  ILE94      -0.1231
     65  CA        17.0750  -50.7150   26.8530 C.3    94  ILE94       0.1692
     66  C         16.4150  -49.6690   27.7550 C.2    94  ILE94       0.2593
     67  O         16.0520  -48.5650   27.2690 O.2    94  ILE94      -0.2718
     68  CB        18.4470  -50.2100   26.3720 C.3    94  ILE94       0.0266
     69  CG1       19.1210  -51.2420   25.4510 C.3    94  ILE94       0.0019
     70  CG2       19.3040  -49.8620   27.5990 C.3    94  ILE94       0.0020
     71  CD1       20.2080  -50.6550   24.6630 C.3    94  ILE94       0.0001
     72  N         16.2840  -49.9590   29.0330 N.am   95  GLY95      -0.1942
     73  CA        15.4730  -49.0880   29.8960 C.3    95  GLY95       0.2014
     74  C         14.0020  -49.4610   29.6770 C.2    95  GLY95       0.2639
     75  O         13.6320  -50.5880   29.4920 O.2    95  GLY95      -0.2714
     76  N         13.1740  -48.4300   29.7610 N.am   96  GLY96      -0.1954
     77  CA        11.7570  -48.6060   29.4520 C.3    96  GLY96       0.1869
     78  C         10.9870  -49.5550   30.4010 C.2    96  GLY96       0.2309
     79  O          9.9730  -50.1580   29.9920 O.2    96  GLY96      -0.2863
     80  N          8.8850  -49.1700   32.6010 N.3    98  ASP98      -0.1239
     81  CA         7.4570  -48.8700   32.8520 C.3    98  ASP98       0.1674
     82  C          6.5720  -49.5530   31.8180 C.2    98  ASP98       0.2266
     83  O          5.4160  -49.7970   32.0780 O.2    98  ASP98      -0.2867
     84  CB         7.2430  -47.4030   32.7210 C.3    98  ASP98       0.1410
     85  CG         7.9280  -46.8690   31.5310 C.2    98  ASP98       0.3668
     86  OD1        7.3290  -46.8250   30.5280 O.co2  98  ASP98      -0.2456
     87  OD2        9.0730  -46.4590   31.6630 O.co2  98  ASP98      -0.2456
     88  N         15.2950  -54.6470   28.4620 N.3   117  VAL117     -0.1231
     89  CA        16.3380  -54.8560   29.4780 C.3   117  VAL117      0.1692
     90  C         16.4430  -53.5840   30.2930 C.2   117  VAL117      0.2592
     91  O         16.9240  -52.5770   29.7920 O.2   117  VAL117     -0.2718
     92  CB        17.6820  -55.1980   28.8350 C.3   117  VAL117      0.0266
     93  CG1       18.7090  -55.5560   29.9740 C.3   117  VAL117      0.0020
     94  CG2       17.5530  -56.3770   27.8390 C.3   117  VAL117      0.0020
     95  N         16.0170  -53.6730   31.5690 N.am  118  ASP118     -0.1960
     96  CA        16.0470  -52.5120   32.4650 C.3   118  ASP118      0.1840
     97  C         16.8550  -52.9110   33.6860 C.2   118  ASP118      0.2622
     98  O         16.6160  -53.9830   34.1800 O.2   118  ASP118     -0.2715
     99  CB        14.6290  -52.0120   32.7550 C.3   118  ASP118      0.1450
    100  CG        14.5940  -50.6520   33.5300 C.2   118  ASP118      0.3671
    101  OD1       15.2680  -50.4750   34.5890 O.co2 118  ASP118     -0.2456
    102  OD2       13.9640  -49.7030   33.0190 O.co2 118  ASP118     -0.2456
    103  N         17.7600  -52.0240   34.1180 N.am  119  ILE119     -0.1963
    104  CA        18.6250  -52.3640   35.2840 C.3   119  ILE119      0.1727
    105  C         17.7740  -52.5810   36.5810 C.2   119  ILE119      0.2616
    106  O         18.2490  -53.2510   37.5400 O.2   119  ILE119     -0.2715
    107  CB        19.7400  -51.3050   35.4420 C.3   119  ILE119      0.0290
    108  CG1       20.8800  -51.8570   36.3480 C.3   119  ILE119      0.0022
    109  CG2       19.2360  -50.0170   36.0840 C.3   119  ILE119      0.0023
    110  CD1       22.0980  -50.9750   36.2840 C.3   119  ILE119      0.0001
    111  N         16.6340  -51.9220   36.6640 N.am  120  ASP120     -0.1971
    112  CA        15.9040  -51.7620   37.9480 C.3   120  ASP120      0.1709
    113  C         14.5940  -52.4940   37.8800 C.2   120  ASP120      0.2293
    114  O         13.5580  -51.9740   37.4260 O.2   120  ASP120     -0.2864
    115  CB        15.6690  -50.3050   38.2910 C.3   120  ASP120      0.1436
    116  CG        15.4030  -50.1060   39.7950 C.2   120  ASP120      0.3671
    117  OD1       14.8210  -50.9670   40.3750 O.co2 120  ASP120     -0.2456
    118  OD2       15.7150  -49.0340   40.2720 O.co2 120  ASP120     -0.2456
    119  N         11.2200  -50.9390   39.0380 N.3   123  VAL123     -0.1245
    120  CA        10.4240  -50.0450   38.1540 C.3   123  VAL123      0.1561
    121  C          9.3290  -50.8620   37.4580 C.2   123  VAL123      0.2260
    122  O          8.1680  -50.4510   37.3140 O.2   123  VAL123     -0.2867
    123  CB        11.3520  -49.3880   37.1090 C.3   123  VAL123      0.0252
    124  CG1       10.4460  -48.6700   36.0390 C.3   123  VAL123      0.0019
    125  CG2       12.2600  -48.3610   37.7730 C.3   123  VAL123      0.0019
    126  N         18.6040  -56.1220   34.1550 N.3   148  GLY148     -0.1210
    127  CA        20.0600  -56.1010   33.9290 C.3   148  GLY148      0.1956
    128  C         20.4690  -54.8080   33.3290 C.2   148  GLY148      0.2612
    129  O         19.6700  -53.9900   32.8440 O.2   148  GLY148     -0.2717
    130  N         21.7680  -54.5650   33.3850 N.am  149  ASP149     -0.1959
    131  CA        22.3770  -53.3900   32.7900 C.3   149  ASP149      0.1840
    132  C         22.4590  -53.4650   31.2560 C.2   149  ASP149      0.2622
    133  O         22.8650  -54.4870   30.6670 O.2   149  ASP149     -0.2715
    134  CB        23.7910  -53.1760   33.3900 C.3   149  ASP149      0.1450
    135  CG        24.5540  -52.2020   32.5980 C.2   149  ASP149      0.3671
    136  OD1       24.1310  -51.0730   32.3430 O.co2 149  ASP149     -0.2456
    137  OD2       25.6680  -52.5680   32.1470 O.co2 149  ASP149     -0.2456
    138  N         21.9220  -52.4660   30.6280 N.am  150  GLY150     -0.1954
    139  CA        21.9490  -52.3550   29.1640 C.3   150  GLY150      0.1869
    140  C         23.3140  -52.4470   28.5220 C.2   150  GLY150      0.2309
    141  O         23.4570  -53.0240   27.4460 O.2   150  GLY150     -0.2863
    142  N         15.5180  -46.0550   26.1720 N.3   168  ASP168     -0.1225
    143  CA        14.5860  -45.2410   26.9280 C.3   168  ASP168      0.1805
    144  C         15.1510  -45.1950   28.3250 C.2   168  ASP168      0.2598
    145  O         14.7810  -45.9900   29.1900 O.2   168  ASP168     -0.2718
    146  CB        13.1530  -45.8740   26.8880 C.3   168  ASP168      0.1424
    147  CG        12.2190  -45.1260   27.8190 C.2   168  ASP168      0.3668
    148  OD1       12.6040  -44.0930   28.2660 O.co2 168  ASP168     -0.2456
    149  OD2       11.1740  -45.6810   28.1690 O.co2 168  ASP168     -0.2456
    150  N         16.0730  -44.2670   28.5420 N.am  169  THR169     -0.1939
    151  CA        16.8370  -44.2210   29.8000 C.3   169  THR169      0.2028
    152  C         16.5120  -42.9760   30.6390 C.2   169  THR169      0.2642
    153  O         15.9880  -41.9460   30.1490 O.2   169  THR169     -0.2714
    154  CB        18.3800  -44.2230   29.5660 C.3   169  THR169      0.1808
    155  OG1       18.7220  -42.9820   28.9780 O.3   169  THR169     -0.2208
    156  CG2       18.6780  -45.2930   28.6300 C.3   169  THR169      0.0379
    157  N         16.8770  -43.0910   31.9270 N.am  170  THR170     -0.1950
    158  CA        16.9560  -41.8950   32.7840 C.3   170  THR170      0.1897
    159  C         18.0830  -40.9400   32.3550 C.2   170  THR170      0.2313
    160  O         18.8070  -41.1730   31.3950 O.2   170  THR170     -0.2863
    161  CB        17.1930  -42.4170   34.2410 C.3   170  THR170      0.1794
    162  OG1       18.2140  -43.4590   34.1650 O.3   170  THR170     -0.2208
    163  CG2       15.9630  -43.0580   34.9450 C.3   170  THR170      0.0378
    164  N         22.4290  -44.5570   37.1530 N.3   175  PRO175     -0.2102
    165  CA        22.8440  -45.7960   36.4240 C.3   175  PRO175      0.1504
    166  C         22.8520  -45.6790   34.9180 C.2   175  PRO175      0.2575
    167  O         23.4510  -46.5290   34.2900 O.2   175  PRO175     -0.2718
    168  CB        21.8430  -46.8780   36.8940 C.3   175  PRO175      0.0282
    169  CG        20.6410  -46.0800   37.3300 C.3   175  PRO175      0.0208
    170  CD        21.2380  -44.8240   37.9450 C.3   175  PRO175      0.0893
    171  N         22.2140  -44.6920   34.3070 N.am  176  ALA176     -0.1980
    172  CA        22.2770  -44.5860   32.8830 C.3   176  ALA176      0.1597
    173  C         23.5060  -43.9050   32.3580 C.2   176  ALA176      0.2287
    174  O         23.6220  -43.7420   31.1470 O.2   176  ALA176     -0.2864
    175  CB        21.0560  -43.7760   32.3960 C.3   176  ALA176      0.0319
    176  N         25.2400  -45.0690   29.2690 N.3   179  LEU179     -0.1245
    177  CA        24.3830  -45.1620   28.0940 C.3   179  LEU179      0.1561
    178  C         24.3090  -43.8960   27.2590 C.2   179  LEU179      0.2260
    179  O         23.6220  -43.8830   26.2510 O.2   179  LEU179     -0.2867
    180  CB        22.9460  -45.6780   28.4630 C.3   179  LEU179      0.0270
    181  CG        22.9670  -46.8760   29.3770 C.3   179  LEU179      0.0019
    182  CD1       21.5320  -47.3010   29.6920 C.3   179  LEU179      0.0001
    183  CD2       23.6710  -48.0770   28.7310 C.3   179  LEU179      0.0001
    184  N         16.6210  -41.5070   24.5080 N.3   201  GLN201     -0.1245
    185  CA        16.1420  -40.3830   25.2620 C.3   201  GLN201      0.1566
    186  C         17.1980  -39.3100   25.1210 C.2   201  GLN201      0.2260
    187  O         18.2860  -39.3890   25.7270 O.2   201  GLN201     -0.2867
    188  CB        15.9100  -40.8350   26.7290 C.3   201  GLN201      0.0367
    189  CG        15.2710  -39.8010   27.6410 C.3   201  GLN201      0.0905
    190  CD        16.2810  -38.7790   28.1720 C.2   201  GLN201      0.2608
    191  OE1       16.3760  -37.6680   27.6320 O.2   201  GLN201     -0.2717
    192  NE2       16.9950  -39.1630   29.2780 N.am  201  GLN201     -0.0878
    193  N          8.4390  -33.0260   31.4830 N.3   237  TYR237     -0.1241
    194  CA         9.8930  -33.0530   31.4660 C.3   237  TYR237      0.1605
    195  C         10.4650  -31.6580   31.5060 C.2   237  TYR237      0.2264
    196  O          9.7860  -30.7480   31.1640 O.2   237  TYR237     -0.2867
    197  CB        10.4500  -33.8170   30.2400 C.3   237  TYR237      0.0534
    198  CG        10.0720  -35.2820   30.2220 C.ar  237  TYR237     -0.0201
    199  CD1       10.1490  -36.0460   31.4080 C.ar  237  TYR237     -0.0009
    200  CD2        9.7710  -35.9440   29.0270 C.ar  237  TYR237     -0.0009
    201  CE1        9.8200  -37.4160   31.3590 C.ar  237  TYR237      0.0417
    202  CE2        9.4520  -37.3100   28.9630 C.ar  237  TYR237      0.0417
    203  CZ         9.4940  -38.0550   30.1330 C.ar  237  TYR237      0.1957
    204  OH         9.1050  -39.3720   30.1220 O.3   237  TYR237     -0.2866
@<TRIPOS>BOND
     1    57    56    2
     2    56    55    1
     3    45    44    2
     4    44    43    1
     5    44    54   am
     6    55    54    1
     7    55    58    1
     8   184   185    1
     9    43    42    1
    10    43    46    1
    11    71    69    1
    12   186   185    1
    13   186   187    2
    14    58    59    1
    15   185   188    1
    16    69    68    1
    17    48    50   ar
    18    48    47   ar
    19    50    52   ar
    20    64    65    1
    21    46    47    1
    22    47    49   ar
    23   142   143    1
    24   179   178    2
    25    52    53    1
    26    52    51   ar
    27    68    65    1
    28    68    70    1
    29    49    51   ar
    30    59    61   ar
    31    59    60   ar
    32   188   189    1
    33    65    66    1
    34   146   143    1
    35   146   147    1
    36   143   144    1
    37    61    63   ar
    38   178   177    1
    39    67    66    2
    40   141   140    2
    41   191   190    2
    42   189   190    1
    43    66    72   am
    44    60    62   ar
    45   147   149   ar
    46   147   148   ar
    47    94    92    1
    48   177   180    1
    49   177   176    1
    50   190   192   am
    51   144   150   am
    52   144   145    2
    53    63    62   ar
    54    88    89    1
    55   180   181    1
    56   140   139    1
    57   150   151    1
    58   156   154    1
    59   183   181    1
    60    92    89    1
    61    92    93    1
    62   202   200   ar
    63   202   203   ar
    64   155   154    1
    65   200   198   ar
    66    72    73    1
    67   139   138    1
    68   181   182    1
    69    77    76    1
    70    77    78    1
    71    89    90    1
    72    75    74    2
    73   154   151    1
    74    74    76   am
    75    74    73    1
    76    91    90    2
    77   151   152    1
    78    79    78    2
    79   204   203    1
    80   203   201   ar
    81   153   152    2
    82   198   197    1
    83   198   199   ar
    84   197   194    1
    85    90    95   am
    86    86    85   ar
    87   138   132   am
    88   152   157   am
    89   133   132    2
    90   174   173    2
    91   196   195    2
    92   132   131    1
    93   201   199   ar
    94   160   159    2
    95   194   193    1
    96   194   195    1
    97    85    87   ar
    98    85    84    1
    99    95    96    1
   100    82    83    2
   101    82    81    1
   102   157   158    1
   103   137   135   ar
   104   136   135   ar
   105   159   158    1
   106   173   172    1
   107    40    39    1
   108   175   172    1
   109    29    28    2
   110    96    99    1
   111    96    97    1
   112   135   134    1
   113    80    81    1
   114    84    81    1
   115    99   100    1
   116   158   161    1
   117   131   130    1
   118   131   134    1
   119   129   128    2
   120   172   171    1
   121   102   100   ar
   122   128   130   am
   123   128   127    1
   124    39    36    1
   125    39    41    1
   126   100   101   ar
   127    36    35    1
   128    36    37    1
   129    28    35   am
   130    28    27    1
   131    97   103   am
   132    97    98    2
   133   127   126    1
   134   103   104    1
   135    33    32    2
   136   162   161    1
   137   161   163    1
   138   167   166    2
   139   171   166   am
   140    37    38    2
   141    27    30    1
   142    27    26    1
   143   166   165    1
   144    32    34   am
   145    32    31    1
   146    30    31    1
   147   104   107    1
   148   104   105    1
   149   107   109    1
   150   107   108    1
   151   124   123    1
   152   110   108    1
   153   165   168    1
   154   165   164    1
   155   105   111   am
   156   105   106    2
   157   111   112    1
   158   168   169    1
   159    24    23    1
   160   123   125    1
   161   123   120    1
   162   164   170    1
   163    16    17    1
   164    16    15    1
   165   122   121    2
   166   169   170    1
   167   114   113    2
   168   121   120    1
   169     8     7    2
   170    13    12    2
   171   113   112    1
   172   112   115    1
   173    14    15    1
   174    14    11    1
   175   120   119    1
   176   115   116    1
   177     9     7   am
   178    23    22    1
   179    23    25    1
   180     7     6    1
   181    10    11    1
   182    22    19    1
   183    12    11    1
   184    21    20    2
   185    18    19    1
   186    19    20    1
   187   116   118   ar
   188   116   117   ar
   189     6     5    1
   190     5     2    1
   191     2     1    1
   192     2     3    1
   193     3     4    2
