@<TRIPOS>MOLECULE
tmp/5b1uA00.pdb
 135 130 0 0 0
SMALL
GASTEIGER

@<TRIPOS>ATOM
      1  N          7.0210  -12.9070    2.6410 N.3     3  TRP3       -0.1241
      2  CA         5.8860  -12.0890    2.2590 C.3     3  TRP3        0.1605
      3  C          4.6110  -12.4660    2.9980 C.2     3  TRP3        0.2264
      4  O          3.6770  -11.6680    3.0750 O.2     3  TRP3       -0.2867
      5  CB         5.5360  -12.2440    0.7810 C.3     3  TRP3        0.0550
      6  CG         6.4580  -11.6850   -0.2000 C.ar    3  TRP3        0.0003
      7  CD1        7.4490  -10.8250    0.0290 C.ar    3  TRP3        0.0946
      8  CD2        6.4070  -11.8780   -1.6350 C.ar    3  TRP3        0.0152
      9  NE1        8.0830  -10.5050   -1.1470 N.ar    3  TRP3       -0.2442
     10  CE2        7.4570  -11.1360   -2.1780 C.ar    3  TRP3        0.0810
     11  CE3        5.6290  -12.6720   -2.4870 C.ar    3  TRP3        0.0012
     12  CZ2        7.7560  -11.1430   -3.5460 C.ar    3  TRP3        0.0191
     13  CZ3        5.9140  -12.6610   -3.8600 C.ar    3  TRP3        0.0001
     14  CH2        6.9240  -11.8460   -4.3670 C.ar    3  TRP3        0.0015
     15  N         -0.0340   -6.6710   -8.0140 N.3    72  HIS72      -0.1226
     16  CA         0.8240   -7.8700   -8.0630 C.3    72  HIS72       0.1752
     17  C          0.5340   -8.7780   -6.8760 C.2    72  HIS72       0.2596
     18  O          0.0160   -8.3320   -5.8440 O.2    72  HIS72      -0.2718
     19  CB         2.2940   -7.4890   -8.0580 C.3    72  HIS72       0.0759
     20  CG         2.7460   -6.8550   -9.3200 C.ar   72  HIS72       0.0818
     21  ND1        3.8170   -6.0060   -9.3580 N.ar   72  HIS72      -0.2268
     22  CD2        2.2450   -6.8930  -10.5760 C.ar   72  HIS72       0.1154
     23  CE1        4.0100   -5.6030  -10.5970 C.ar   72  HIS72       0.1986
     24  NE2        3.0630   -6.1290  -11.3560 N.ar   72  HIS72      -0.2212
     25  N          0.8950  -10.0610   -7.0160 N.am   73  GLU73      -0.1965
     26  CA         0.5360  -11.0530   -6.0000 C.3    73  GLU73       0.1733
     27  C          0.9950  -10.6660   -4.6010 C.2    73  GLU73       0.2616
     28  O          0.3580  -11.0670   -3.6100 O.2    73  GLU73      -0.2715
     29  CB         1.0740  -12.4390   -6.3620 C.3    73  GLU73       0.0429
     30  CG         2.6110  -12.5440   -6.3270 C.3    73  GLU73       0.1163
     31  CD         3.1930  -13.9330   -6.6020 C.2    73  GLU73       0.3649
     32  OE1        2.6330  -14.9420   -6.1160 O.co2  73  GLU73      -0.2457
     33  OE2        4.2790  -14.0010   -7.2250 O.co2  73  GLU73      -0.2457
     34  N          2.1350   -9.9940   -4.4760 N.am   74  ASP74      -0.1957
     35  CA         2.7040   -9.7790   -3.1700 C.3    74  ASP74       0.1840
     36  C          1.9500   -8.7090   -2.3540 C.2    74  ASP74       0.2622
     37  O          1.9590   -8.7590   -1.1240 O.2    74  ASP74      -0.2715
     38  CB         4.2240   -9.5310   -3.2440 C.3    74  ASP74       0.1450
     39  CG         4.6530   -8.4520   -4.1990 C.2    74  ASP74       0.3671
     40  OD1        4.0160   -8.2240   -5.2410 O.co2  74  ASP74      -0.2456
     41  OD2        5.7040   -7.8480   -3.9110 O.co2  74  ASP74      -0.2456
     42  N          1.2890   -7.7800   -3.0550 N.am   75  HIS75      -0.1973
     43  CA         0.5530   -6.6750   -2.3940 C.3    75  HIS75       0.1656
     44  C         -0.9530   -6.8910   -2.4220 C.2    75  HIS75       0.2291
     45  O         -1.6810   -6.4640   -1.5120 O.2    75  HIS75      -0.2864
     46  CB         0.8850   -5.3540   -3.0560 C.3    75  HIS75       0.0771
     47  CG         2.3520   -5.0820   -3.1030 C.ar   75  HIS75       0.0820
     48  ND1        3.0860   -4.7580   -1.9720 N.ar   75  HIS75      -0.2267
     49  CD2        3.2580   -5.3250   -4.0880 C.ar   75  HIS75       0.1154
     50  CE1        4.3730   -4.7090   -2.3070 C.ar   75  HIS75       0.1986
     51  NE2        4.5000   -5.1070   -3.5560 N.ar   75  HIS75      -0.2212
     52  N          6.9070   -6.6960  -16.0650 N.3   111  GLN111     -0.1245
     53  CA         7.1860   -8.0630  -15.6060 C.3   111  GLN111      0.1566
     54  C          6.3290   -9.1190  -16.2680 C.2   111  GLN111      0.2260
     55  O          6.4610  -10.2850  -15.9310 O.2   111  GLN111     -0.2867
     56  CB         7.0550   -8.1230  -14.0840 C.3   111  GLN111      0.0367
     57  CG         8.0410   -7.2320  -13.3460 C.3   111  GLN111      0.0905
     58  CD         7.9780   -7.4390  -11.8520 C.2   111  GLN111      0.2608
     59  OE1        8.5150   -8.4230  -11.3330 O.2   111  GLN111     -0.2717
     60  NE2        7.2850   -6.5600  -11.1590 N.am  111  GLN111     -0.0878
     61  N          5.2930  -12.9540  -13.9430 N.3   115  LEU115     -0.1245
     62  CA         4.4670  -12.7280  -12.7730 C.3   115  LEU115      0.1561
     63  C          3.6260  -13.9420  -12.4760 C.2   115  LEU115      0.2260
     64  O          3.2520  -14.6720  -13.3960 O.2   115  LEU115     -0.2867
     65  CB         3.5250  -11.5530  -12.9630 C.3   115  LEU115      0.0270
     66  CG         4.2480  -10.2210  -13.1020 C.3   115  LEU115      0.0019
     67  CD1        3.3580   -9.1860  -13.7890 C.3   115  LEU115      0.0001
     68  CD2        4.6790   -9.7340  -11.7340 C.3   115  LEU115      0.0001
     69  N          5.6870    1.1830  -12.1260 N.3   148  HIS148     -0.1241
     70  CA         5.7860   -0.2240  -11.7580 C.3   148  HIS148      0.1621
     71  C          4.5410   -0.9700  -12.2770 C.2   148  HIS148      0.2264
     72  O          4.6360   -2.1310  -12.6850 O.2   148  HIS148     -0.2867
     73  CB         6.0130   -0.3310  -10.2410 C.3   148  HIS148      0.0745
     74  CG         6.1570   -1.7230   -9.7290 C.ar  148  HIS148      0.0817
     75  ND1        7.3690   -2.3880   -9.6800 N.ar  148  HIS148     -0.2268
     76  CD2        5.2840   -2.4870   -9.0290 C.ar  148  HIS148      0.1154
     77  CE1        7.1980   -3.5510   -9.0740 C.ar  148  HIS148      0.1986
     78  NE2        5.9220   -3.6640   -8.7510 N.ar  148  HIS148     -0.2212
     79  N          5.1290    1.0220   -4.7640 N.3   173  SER173     -0.1217
     80  CA         6.4150    0.6980   -5.3880 C.3   173  SER173      0.1889
     81  C          6.6930    1.5780   -6.5760 C.2   173  SER173      0.2288
     82  O          5.8480    1.7390   -7.4460 O.2   173  SER173     -0.2866
     83  CB         6.4210   -0.7330   -5.8830 C.3   173  SER173      0.2089
     84  OG         7.5820   -0.9430   -6.6600 O.3   173  SER173     -0.2183
     85  N          9.5560    0.8840   -8.5080 N.3   175  THR175     -0.1218
     86  CA        10.7150    0.1380   -8.9920 C.3   175  THR175      0.1862
     87  C         10.5840   -0.3190  -10.4460 C.2   175  THR175      0.2287
     88  O          9.6000   -0.9390  -10.8470 O.2   175  THR175     -0.2866
     89  CB        10.9650   -1.0950   -8.1310 C.3   175  THR175      0.1770
     90  OG1        9.7610   -1.8870   -8.0940 O.3   175  THR175     -0.2211
     91  CG2       11.3350   -0.6800   -6.7800 C.3   175  THR175      0.0375
     92  N         11.4990   -2.9680  -12.6030 N.3   177  VAL177     -0.1245
     93  CA        11.8840   -4.3940  -12.6440 C.3   177  VAL177      0.1561
     94  C         11.1410   -5.0190  -13.8260 C.2   177  VAL177      0.2260
     95  O         10.0390   -4.5940  -14.1800 O.2   177  VAL177     -0.2867
     96  CB        11.5210   -5.0740  -11.2920 C.3   177  VAL177      0.0252
     97  CG1       10.1400   -4.7570  -10.8710 C.3   177  VAL177      0.0019
     98  CG2       11.6910   -6.5840  -11.3170 C.3   177  VAL177      0.0019
     99  N          6.7980   -2.3940    0.3120 N.3   213  HIS213     -0.1241
    100  CA         7.8320   -3.2530    0.8970 C.3   213  HIS213      0.1621
    101  C          8.4630   -2.5110    2.0590 C.2   213  HIS213      0.2264
    102  O          9.1160   -1.4850    1.8800 O.2   213  HIS213     -0.2867
    103  CB         8.9230   -3.6060   -0.1460 C.3   213  HIS213      0.0745
    104  CG         8.4550   -4.5520   -1.2010 C.ar  213  HIS213      0.0817
    105  ND1        8.4610   -5.9100   -1.0170 N.ar  213  HIS213     -0.2268
    106  CD2        7.8010   -4.3350   -2.3560 C.ar  213  HIS213      0.1154
    107  CE1        7.8770   -6.4990   -2.0440 C.ar  213  HIS213      0.1986
    108  NE2        7.4510   -5.5550   -2.8680 N.ar  213  HIS213     -0.2212
    109  N         10.7600   -2.5660    4.2580 N.3   215  GLU215     -0.1231
    110  CA        12.2000   -2.2780    4.3670 C.3   215  GLU215      0.1699
    111  C         12.6870   -1.1310    3.4910 C.2   215  GLU215      0.2592
    112  O         13.7230   -0.5290    3.7560 O.2   215  GLU215     -0.2718
    113  CB        13.0250   -3.5290    4.1240 C.3   215  GLU215      0.0402
    114  CG        13.1490   -3.9290    2.6950 C.3   215  GLU215      0.1161
    115  CD        11.9520   -4.6510    2.0950 C.2   215  GLU215      0.3649
    116  OE1       10.9320   -4.9410    2.7840 O.co2 215  GLU215     -0.2457
    117  OE2       12.0790   -4.8470    0.8410 O.co2 215  GLU215     -0.2457
    118  N         11.8740   -0.7300    2.5150 N.am  216  VAL216     -0.1980
    119  CA        12.2300    0.3970    1.6680 C.3   216  VAL216      0.1595
    120  C         12.3800    1.6910    2.4750 C.2   216  VAL216      0.2287
    121  O         13.2930    2.4710    2.1930 O.2   216  VAL216     -0.2864
    122  CB        11.2080    0.5400    0.5240 C.3   216  VAL216      0.0276
    123  CG1       11.3280    1.8740   -0.2100 C.3   216  VAL216      0.0022
    124  CG2       11.3850   -0.6140   -0.4310 C.3   216  VAL216      0.0022
    125  N         17.3950    3.3560   -9.3870 N.3   250  ARG250     -0.1245
    126  CA        17.1760    2.0320   -9.9610 C.3   250  ARG250      0.1563
    127  C         16.9010    2.1530  -11.4710 C.2   250  ARG250      0.2260
    128  O         17.4250    1.4070  -12.2810 O.2   250  ARG250     -0.2867
    129  CB        16.0210    1.3350   -9.2410 C.3   250  ARG250      0.0307
    130  CG        15.7610   -0.0750   -9.7380 C.3   250  ARG250      0.0489
    131  CD        14.8120   -0.7940   -8.7840 C.3   250  ARG250      0.2205
    132  NE        14.6710   -2.1850   -9.1590 N.pl3 250  ARG250     -0.0865
    133  CZ        14.4880   -3.1790   -8.3040 C.cat 250  ARG250      0.5346
    134  NH1       14.2540   -2.9510   -7.0160 N.pl3 250  ARG250      0.1354
    135  NH2       14.3470   -4.3980   -8.7830 N.pl3 250  ARG250      0.1354
@<TRIPOS>BOND
     1    54    55    2
     2    54    53    1
     3    52    53    1
     4    53    56    1
     5    95    94    2
     6    56    57    1
     7    61    62    1
     8    94    93    1
     9    67    66    1
    10    64    63    2
    11    57    58    1
    12    66    65    1
    13    66    68    1
    14    65    62    1
    15    62    63    1
    16    72    71    2
    17    93    92    1
    18    93    96    1
    19   128   127    2
    20    71    70    1
    21    69    70    1
    22    58    59    2
    23    58    60   am
    24    70    73    1
    25   127   126    1
    26    24    23   ar
    27    24    22   ar
    28    98    96    1
    29    96    97    1
    30    88    87    2
    31    23    21   ar
    32    22    20   ar
    33    87    86    1
    34    73    74    1
    35   126   125    1
    36   126   129    1
    37   130   129    1
    38   130   131    1
    39    74    75   ar
    40    74    76   ar
    41    75    77   ar
    42    21    20   ar
    43    20    19    1
    44   132   131    1
    45   132   133    2
    46    77    78   ar
    47    76    78   ar
    48    86    85    1
    49    86    89    1
    50   135   133    1
    51   133   134    1
    52    89    90    1
    53    89    91    1
    54    16    19    1
    55    16    15    1
    56    16    17    1
    57    82    81    2
    58    33    31   ar
    59    25    17   am
    60    25    26    1
    61    17    18    2
    62    84    83    1
    63    31    30    1
    64    31    32   ar
    65    81    80    1
    66    29    30    1
    67    29    26    1
    68    26    27    1
    69    83    80    1
    70    80    79    1
    71    40    39   ar
    72    27    34   am
    73    27    28    2
    74    34    35    1
    75    14    13   ar
    76    14    12   ar
    77    39    41   ar
    78    39    38    1
    79    49    51   ar
    80    49    47   ar
    81    13    11   ar
    82    51    50   ar
    83    12    10   ar
    84    38    35    1
    85    35    36    1
    86    47    46    1
    87    47    48   ar
    88    46    43    1
    89    42    43    1
    90    42    36   am
    91   108   106   ar
    92   108   107   ar
    93    11     8   ar
    94    44    43    1
    95    44    45    2
    96   106   104   ar
    97    36    37    2
    98    50    48   ar
    99    10     8   ar
   100    10     9   ar
   101   107   105   ar
   102     8     6   ar
   103   104   105   ar
   104   104   103    1
   105     9     7   ar
   106   124   122    1
   107   123   122    1
   108     6     7   ar
   109     6     5    1
   110   103   100    1
   111    99   100    1
   112   122   119    1
   113     5     2    1
   114   117   115   ar
   115   100   101    1
   116   119   120    1
   117   119   118    1
   118   102   101    2
   119   115   114    1
   120   115   116   ar
   121   121   120    2
   122     2     1    1
   123     2     3    1
   124   118   111   am
   125   114   113    1
   126     3     4    2
   127   111   112    2
   128   111   110    1
   129   113   110    1
   130   109   110    1
