@<TRIPOS>MOLECULE
tmp/5b1xA01.pdb
 83 77 0 0 0
SMALL
GASTEIGER

@<TRIPOS>ATOM
      1  N         10.9480   -6.7080  -23.3960 N.3    58  ALA58      -0.1245
      2  CA        10.9710   -8.1550  -23.5390 C.3    58  ALA58       0.1562
      3  C         10.7910   -8.5360  -25.0060 C.2    58  ALA58       0.2260
      4  O         10.1480   -7.8190  -25.7770 O.2    58  ALA58      -0.2867
      5  CB         9.8790   -8.8060  -22.6870 C.3    58  ALA58       0.0290
      6  N          1.5480  -19.2420  -18.4600 N.3    97  GLU97      -0.1245
      7  CA         2.5140  -18.4690  -19.2410 C.3    97  GLU97       0.1567
      8  C          3.2080  -19.4440  -20.1860 C.2    97  GLU97       0.2260
      9  O          4.0880  -20.2030  -19.7740 O.2    97  GLU97      -0.2867
     10  CB         3.5100  -17.7560  -18.3340 C.3    97  GLU97       0.0388
     11  CG         2.8780  -16.8150  -17.3270 C.3    97  GLU97       0.1160
     12  CD         3.8860  -15.8620  -16.7080 C.2    97  GLU97       0.3649
     13  OE1        3.8700  -14.6640  -17.0670 O.co2  97  GLU97      -0.2457
     14  OE2        4.7000  -16.3110  -15.8690 O.co2  97  GLU97      -0.2457
     15  N         10.1470  -15.2400  -23.3590 N.3   101  VAL101     -0.1245
     16  CA        10.7090  -13.9590  -23.7600 C.3   101  VAL101      0.1561
     17  C         12.1050  -13.8170  -23.1730 C.2   101  VAL101      0.2260
     18  O         12.4290  -14.3990  -22.1330 O.2   101  VAL101     -0.2867
     19  CB         9.8350  -12.7640  -23.3230 C.3   101  VAL101      0.0252
     20  CG1        8.4890  -12.8150  -23.9990 C.3   101  VAL101      0.0019
     21  CG2        9.6900  -12.7370  -21.8120 C.3   101  VAL101      0.0019
     22  N         14.2650  -11.2020  -21.3110 N.3   103  ASN103     -0.1225
     23  CA        14.0510   -9.9850  -20.5450 C.3   103  ASN103      0.1785
     24  C         15.2000   -9.7830  -19.5710 C.2   103  ASN103      0.2597
     25  O         15.8680  -10.7360  -19.1610 O.2   103  ASN103     -0.2718
     26  CB        12.7100  -10.0120  -19.7980 C.3   103  ASN103      0.1169
     27  CG        12.6200  -11.1420  -18.7950 C.2   103  ASN103      0.2627
     28  OD1       13.3730  -12.1150  -18.8630 O.2   103  ASN103     -0.2716
     29  ND2       11.6860  -11.0220  -17.8580 N.am  103  ASN103     -0.0877
     30  N         15.4240   -8.5240  -19.2170 N.am  104  PHE104     -0.1962
     31  CA        16.4870   -8.1220  -18.3130 C.3   104  PHE104      0.1771
     32  C         15.9010   -7.8110  -16.9420 C.2   104  PHE104      0.2619
     33  O         14.7770   -7.3160  -16.8290 O.2   104  PHE104     -0.2715
     34  CB        17.2220   -6.9010  -18.8720 C.3   104  PHE104      0.0574
     35  CG        18.4580   -6.5250  -18.1100 C.ar  104  PHE104     -0.0200
     36  CD1       19.6610   -7.1670  -18.3560 C.ar  104  PHE104     -0.0042
     37  CD2       18.4250   -5.5150  -17.1620 C.ar  104  PHE104     -0.0042
     38  CE1       20.8050   -6.8180  -17.6600 C.ar  104  PHE104     -0.0003
     39  CE2       19.5650   -5.1630  -16.4630 C.ar  104  PHE104     -0.0003
     40  CZ        20.7560   -5.8130  -16.7140 C.ar  104  PHE104     -0.0000
     41  N         16.6680   -8.1200  -15.8970 N.am  105  ARG105     -0.1977
     42  CA        16.2520   -7.8660  -14.5250 C.3   105  ARG105      0.1597
     43  C         17.3520   -7.1140  -13.7890 C.2   105  ARG105      0.2287
     44  O         18.5330   -7.2330  -14.1220 O.2   105  ARG105     -0.2864
     45  CB        15.8940   -9.1710  -13.8060 C.3   105  ARG105      0.0334
     46  CG        14.7530   -9.8990  -14.4850 C.3   105  ARG105      0.0492
     47  CD        14.3140  -11.1470  -13.7560 C.3   105  ARG105      0.2205
     48  NE        13.0460  -11.6240  -14.3010 N.pl3 105  ARG105     -0.0865
     49  CZ        12.3680  -12.6650  -13.8350 C.cat 105  ARG105      0.5346
     50  NH1       12.8360  -13.3550  -12.8050 N.pl3 105  ARG105      0.1354
     51  NH2       11.2230  -13.0200  -14.4030 N.pl3 105  ARG105      0.1354
     52  N         12.1070  -16.0220  -19.6220 N.3   114  ASN114     -0.1240
     53  CA        10.9490  -15.9640  -18.7390 C.3   114  ASN114      0.1653
     54  C          9.7060  -16.3450  -19.5240 C.2   114  ASN114      0.2266
     55  O          9.4430  -15.7710  -20.5850 O.2   114  ASN114     -0.2867
     56  CB        10.7820  -14.5690  -18.1290 C.3   114  ASN114      0.1155
     57  CG         9.5540  -14.4680  -17.2460 C.2   114  ASN114      0.2627
     58  OD1        9.0970  -15.4660  -16.6920 O.2   114  ASN114     -0.2716
     59  ND2        9.0090  -13.2610  -17.1160 N.am  114  ASN114     -0.0877
     60  N          6.0880  -15.9370  -20.2660 N.3   116  VAL116     -0.1231
     61  CA         5.0520  -14.9340  -20.1030 C.3   116  VAL116      0.1692
     62  C          3.8540  -15.3310  -20.9600 C.2   116  VAL116      0.2592
     63  O          3.8720  -16.3490  -21.6560 O.2   116  VAL116     -0.2718
     64  CB         5.5410  -13.5210  -20.4740 C.3   116  VAL116      0.0266
     65  CG1        6.8330  -13.1980  -19.7510 C.3   116  VAL116      0.0020
     66  CG2        5.7000  -13.4030  -21.9730 C.3   116  VAL116      0.0020
     67  N          2.8080  -14.5060  -20.9100 N.am  117  ASN117     -0.1974
     68  CA         1.6360  -14.7630  -21.7300 C.3   117  ASN117      0.1688
     69  C          1.9710  -14.6600  -23.2110 C.2   117  ASN117      0.2292
     70  O          2.8640  -13.9150  -23.6220 O.2   117  ASN117     -0.2864
     71  CB         0.5120  -13.7830  -21.4180 C.3   117  ASN117      0.1181
     72  CG        -0.8060  -14.2420  -21.9950 C.2   117  ASN117      0.2629
     73  OD1       -0.8780  -15.3150  -22.6120 O.2   117  ASN117     -0.2716
     74  ND2       -1.8230  -13.4140  -21.8920 N.am  117  ASN117     -0.0877
     75  N          4.3310   -8.2100  -27.2620 N.3   122  GLN122     -0.1245
     76  CA         5.7150   -7.9540  -26.8970 C.3   122  GLN122      0.1566
     77  C          6.5170   -7.7410  -28.1710 C.2   122  GLN122      0.2260
     78  O          6.0400   -7.9850  -29.2830 O.2   122  GLN122     -0.2867
     79  CB         6.3220   -9.1120  -26.0890 C.3   122  GLN122      0.0367
     80  CG         5.6240   -9.4260  -24.7740 C.3   122  GLN122      0.0905
     81  CD         5.8800   -8.3820  -23.7050 C.2   122  GLN122      0.2608
     82  OE1        6.7110   -7.4890  -23.8750 O.2   122  GLN122     -0.2717
     83  NE2        5.1660   -8.4920  -22.5930 N.am  122  GLN122     -0.0878
@<TRIPOS>BOND
     1    78    77    2
     2    77    76    1
     3    75    76    1
     4    76    79    1
     5    79    80    1
     6     4     3    2
     7     3     2    1
     8    80    81    1
     9    20    19    1
    10    82    81    2
    11    16    15    1
    12    16    19    1
    13    16    17    1
    14    81    83   am
    15    70    69    2
    16     2     1    1
    17     2     5    1
    18    19    21    1
    19    69    68    1
    20    17    18    2
    21    73    72    2
    22    72    74   am
    23    72    71    1
    24    66    64    1
    25    68    71    1
    26    68    67    1
    27    63    62    2
    28    22    23    1
    29    62    67   am
    30    62    61    1
    31    55    54    2
    32    23    26    1
    33    23    24    1
    34    64    61    1
    35    64    65    1
    36    60    61    1
    37     8     9    2
    38     8     7    1
    39    26    27    1
    40    52    53    1
    41    24    30   am
    42    24    25    2
    43    54    53    1
    44     7     6    1
    45     7    10    1
    46    30    31    1
    47    34    31    1
    48    34    35    1
    49    28    27    2
    50    27    29   am
    51    53    56    1
    52    36    35   ar
    53    36    38   ar
    54    10    11    1
    55    31    32    1
    56    56    57    1
    57    35    37   ar
    58    38    40   ar
    59    11    12    1
    60    57    59   am
    61    57    58    2
    62    37    39   ar
    63    13    12   ar
    64    32    33    2
    65    32    41   am
    66    40    39   ar
    67    12    14   ar
    68    41    42    1
    69    42    45    1
    70    42    43    1
    71    46    45    1
    72    46    47    1
    73    51    49    1
    74    48    49    2
    75    48    47    1
    76    44    43    2
    77    49    50    1
