@<TRIPOS>MOLECULE
tmp/5b27A01.pdb
 75 72 0 0 0
SMALL
GASTEIGER

@<TRIPOS>ATOM
      1  N          2.8500   13.6440   -5.6880 N.3    11  LEU11      -0.1231
      2  CA         1.6960   14.0320   -4.8520 C.3    11  LEU11       0.1693
      3  C          0.4390   14.0570   -5.7040 C.2    11  LEU11       0.2592
      4  O          0.3840   14.7430   -6.7390 O.2    11  LEU11      -0.2718
      5  CB         1.9370   15.4220   -4.2870 C.3    11  LEU11       0.0284
      6  CG         0.8340   15.8930   -3.3330 C.3    11  LEU11       0.0019
      7  CD1        0.9500   15.2070   -1.9660 C.3    11  LEU11       0.0001
      8  CD2        0.8240   17.4060   -3.1800 C.3    11  LEU11       0.0001
      9  N         -0.6280   13.3670   -5.2190 N.am   12  VAL12      -0.1966
     10  CA        -1.8960   13.3420   -5.9230 C.3    12  VAL12       0.1727
     11  C         -3.0860   13.7650   -5.0660 C.2    12  VAL12       0.2616
     12  O         -4.1970   13.8390   -5.5770 O.2    12  VAL12      -0.2715
     13  CB        -2.1690   11.9710   -6.5580 C.3    12  VAL12       0.0290
     14  CG1       -1.1030   11.6290   -7.5990 C.3    12  VAL12       0.0023
     15  CG2       -2.3260   10.9020   -5.5220 C.3    12  VAL12       0.0023
     16  N         -2.8940   14.0280   -3.7800 N.am   13  ASP13      -0.1957
     17  CA        -3.9660   14.5170   -2.9210 C.3    13  ASP13       0.1840
     18  C         -3.3220   15.1610   -1.7110 C.2    13  ASP13       0.2622
     19  O         -2.2870   14.6740   -1.2270 O.2    13  ASP13      -0.2715
     20  CB        -4.8830   13.3720   -2.4480 C.3    13  ASP13       0.1450
     21  CG        -6.1280   13.8650   -1.7190 C.2    13  ASP13       0.3671
     22  OD1       -7.0600   14.3070   -2.4330 O.co2  13  ASP13      -0.2456
     23  OD2       -6.1650   13.8620   -0.4770 O.co2  13  ASP13      -0.2456
     24  N         -3.9480   16.2070   -1.1690 N.am   14  SER14      -0.1950
     25  CA        -3.4610   16.8110    0.0530 C.3    14  SER14       0.1924
     26  C         -4.6270   17.3600    0.8520 C.2    14  SER14       0.2314
     27  O         -5.4690   18.1060    0.3150 O.2    14  SER14      -0.2863
     28  CB        -2.4560   17.9150   -0.2620 C.3    14  SER14       0.2116
     29  OG        -1.8740   18.4370    0.9220 O.3    14  SER14      -0.2180
     30  N          2.8180   26.7620   -1.6150 N.3    34  ALA34      -0.1231
     31  CA         2.7920   25.3530   -1.2520 C.3    34  ALA34       0.1694
     32  C          1.4560   24.6960   -1.5550 C.2    34  ALA34       0.2593
     33  O          1.4170   23.5000   -1.8550 O.2    34  ALA34      -0.2718
     34  CB         3.1350   25.2060    0.2370 C.3    34  ALA34       0.0304
     35  N          0.3640   25.4410   -1.4320 N.am   35  SER35      -0.1938
     36  CA        -0.9510   24.8750   -1.6650 C.3    35  SER35       0.2055
     37  C         -1.1620   24.4460   -3.1120 C.2    35  SER35       0.2643
     38  O         -2.0700   23.6710   -3.3830 O.2    35  SER35      -0.2714
     39  CB        -2.0400   25.8670   -1.2330 C.3    35  SER35       0.2130
     40  OG        -2.1150   26.9760   -2.1270 O.3    35  SER35      -0.2179
     41  N         -0.3410   24.9530   -4.0320 N.am   36  MET36      -0.1962
     42  CA        -0.4570   24.6310   -5.4560 C.3    36  MET36       0.1736
     43  C          0.7350   23.8360   -5.9730 C.2    36  MET36       0.2617
     44  O          0.8840   23.6800   -7.1770 O.2    36  MET36      -0.2715
     45  CB        -0.6060   25.9060   -6.2860 C.3    36  MET36       0.0427
     46  CG        -1.8600   26.6680   -5.9630 C.3    36  MET36       0.0599
     47  SD        -3.3640   25.7820   -6.4400 S.3    36  MET36      -0.1393
     48  CE        -3.3770   25.9550   -8.2280 C.3    36  MET36       0.0692
     49  N          1.6290   23.4300   -5.0870 N.am   37  THR37      -0.1937
     50  CA         2.8270   22.7090   -5.4820 C.3    37  THR37       0.2028
     51  C          2.5850   21.1940   -5.3000 C.2    37  THR37       0.2642
     52  O          2.0410   20.7490   -4.2880 O.2    37  THR37      -0.2714
     53  CB         3.9890   23.1740   -4.5960 C.3    37  THR37       0.1808
     54  OG1        4.2150   24.5790   -4.8210 O.3    37  THR37      -0.2208
     55  CG2        5.2740   22.4270   -4.8990 C.3    37  THR37       0.0379
     56  N          3.0460   20.4020   -6.2610 N.am   38  LYS38      -0.1977
     57  CA         2.9110   18.9340   -6.1940 C.3    38  LYS38       0.1596
     58  C          4.3260   18.3380   -6.2450 C.2    38  LYS38       0.2287
     59  O          4.8900   18.1240   -7.3200 O.2    38  LYS38      -0.2864
     60  CB         2.0860   18.4100   -7.3460 C.3    38  LYS38       0.0298
     61  CG         0.6520   18.9470   -7.3020 C.3    38  LYS38       0.0038
     62  CD        -0.1700   18.3790   -8.4010 C.3    38  LYS38       0.0206
     63  CE        -1.5350   19.1210   -8.4900 C.3    38  LYS38       0.1093
     64  NZ        -2.3120   18.5110   -9.5430 N.3    38  LYS38      -0.1314
     65  N         -1.2850   13.5880    3.1450 N.3   127  ARG127     -0.1245
     66  CA        -0.9290   13.7200    1.7670 C.3   127  ARG127      0.1563
     67  C         -0.7470   12.3640    1.1480 C.2   127  ARG127      0.2260
     68  O         -0.2280   11.4420    1.7630 O.2   127  ARG127     -0.2867
     69  CB         0.3510   14.5530    1.6510 C.3   127  ARG127      0.0307
     70  CG         0.0270   16.0250    1.9050 C.3   127  ARG127      0.0489
     71  CD         1.1400   16.9370    2.3110 C.3   127  ARG127      0.2205
     72  NE         2.1280   17.2610    1.2930 N.pl3 127  ARG127     -0.0865
     73  CZ         1.9810   18.2090    0.3810 C.cat 127  ARG127      0.5346
     74  NH1        0.8350   18.8700    0.2230 N.pl3 127  ARG127      0.1354
     75  NH2        3.0030   18.4550   -0.4100 N.pl3 127  ARG127      0.1354
@<TRIPOS>BOND
     1    64    63    1
     2    63    62    1
     3    62    61    1
     4    48    47    1
     5    14    13    1
     6    60    61    1
     7    60    57    1
     8    59    58    2
     9    44    43    2
    10     4     3    2
    11    13    10    1
    12    13    15    1
    13    47    46    1
    14    45    46    1
    15    45    42    1
    16    56    57    1
    17    56    51   am
    18    58    57    1
    19    43    42    1
    20    43    49   am
    21    10     9    1
    22    10    11    1
    23     3     9   am
    24     3     2    1
    25     1     2    1
    26    12    11    2
    27    50    51    1
    28    50    49    1
    29    50    53    1
    30    42    41    1
    31    51    52    2
    32    11    16   am
    33    55    53    1
    34     2     5    1
    35    54    53    1
    36     5     6    1
    37    41    37   am
    38    16    17    1
    39    38    37    2
    40     6     8    1
    41     6     7    1
    42    37    36    1
    43    17    20    1
    44    17    18    1
    45    20    21    1
    46    22    21   ar
    47    40    39    1
    48    33    32    2
    49    21    23   ar
    50    18    19    2
    51    18    24   am
    52    36    35    1
    53    36    39    1
    54    30    31    1
    55    32    35   am
    56    32    31    1
    57    31    34    1
    58    24    25    1
    59    75    73    1
    60    28    25    1
    61    28    29    1
    62    25    26    1
    63    74    73    1
    64    27    26    2
    65    73    72    2
    66    67    68    2
    67    67    66    1
    68    72    71    1
    69    69    66    1
    70    69    70    1
    71    66    65    1
    72    70    71    1
