@<TRIPOS>MOLECULE
tmp/5b2dA05.pdb
 174 165 0 0 0
SMALL
GASTEIGER

@<TRIPOS>ATOM
      1  N          3.5720  -42.3320  -18.7130 N.3    48  ARG48      -0.1231
      2  CA         4.8920  -42.6690  -19.2310 C.3    48  ARG48       0.1694
      3  C          5.7040  -41.4540  -19.6800 C.2    48  ARG48       0.2591
      4  O          5.2050  -40.3390  -19.7010 O.2    48  ARG48      -0.2718
      5  CB         4.7500  -43.6350  -20.4130 C.3    48  ARG48       0.0321
      6  CG         4.5060  -45.0960  -20.0450 C.3    48  ARG48       0.0489
      7  CD         5.0760  -45.9940  -21.1230 C.3    48  ARG48       0.2205
      8  NE         6.5350  -45.9430  -21.1200 N.pl3  48  ARG48      -0.0865
      9  CZ         7.3020  -46.2850  -22.1460 C.cat  48  ARG48       0.5346
     10  NH1        6.7510  -46.7000  -23.2780 N.pl3  48  ARG48       0.1354
     11  NH2        8.6190  -46.2040  -22.0400 N.pl3  48  ARG48       0.1354
     12  N          6.9550  -41.7050  -20.0630 N.am   49  ILE49      -0.1980
     13  CA         7.8380  -40.7310  -20.7210 C.3    49  ILE49       0.1595
     14  C          8.1820  -39.4970  -19.8610 C.2    49  ILE49       0.2287
     15  O          7.8080  -38.3620  -20.1950 O.2    49  ILE49      -0.2864
     16  CB         7.2250  -40.2510  -22.0730 C.3    49  ILE49       0.0276
     17  CG1        6.5960  -41.4190  -22.8410 C.3    49  ILE49       0.0022
     18  CG2        8.2700  -39.5500  -22.9300 C.3    49  ILE49       0.0022
     19  CD1        7.5530  -42.5440  -23.1440 C.3    49  ILE49       0.0001
     20  N         -0.6390  -49.1510  -25.0440 N.3    71  LYS71      -0.1245
     21  CA        -0.5810  -49.4960  -26.4630 C.3    71  LYS71       0.1561
     22  C         -1.5920  -48.6550  -27.2420 C.2    71  LYS71       0.2260
     23  O         -1.3100  -48.1900  -28.3470 O.2    71  LYS71      -0.2867
     24  CB        -0.8410  -50.9870  -26.6800 C.3    71  LYS71       0.0271
     25  CG         0.2530  -51.8940  -26.1310 C.3    71  LYS71       0.0035
     26  CD        -0.0750  -53.3630  -26.3690 C.3    71  LYS71       0.0206
     27  CE         1.0300  -54.2720  -25.8500 C.3    71  LYS71       0.1093
     28  NZ         0.6950  -55.7070  -26.0670 N.3    71  LYS71      -0.1314
     29  N          3.1600  -35.6250  -27.7170 N.3   110  LYS110     -0.1231
     30  CA         3.9640  -36.7100  -27.1800 C.3   110  LYS110      0.1693
     31  C          5.4580  -36.5510  -27.4760 C.2   110  LYS110      0.2592
     32  O          5.8710  -35.6840  -28.2510 O.2   110  LYS110     -0.2718
     33  CB         3.4600  -38.0730  -27.6720 C.3   110  LYS110      0.0285
     34  CG         3.5700  -38.3370  -29.1370 C.3   110  LYS110      0.0035
     35  CD         2.9870  -39.7140  -29.4760 C.3   110  LYS110      0.0206
     36  CE         3.9500  -40.8650  -29.1950 C.3   110  LYS110      0.1093
     37  NZ         3.4580  -42.1760  -29.7470 N.3   110  LYS110     -0.1314
     38  N          6.2500  -37.3590  -26.7760 N.am  111  SER111     -0.1952
     39  CA         7.7100  -37.3480  -26.8390 C.3   111  SER111      0.1924
     40  C          8.2860  -36.0300  -26.3220 C.2   111  SER111      0.2314
     41  O          9.3550  -35.6160  -26.7450 O.2   111  SER111     -0.2863
     42  CB         8.1880  -37.6150  -28.2690 C.3   111  SER111      0.2116
     43  OG         9.5170  -38.0990  -28.2860 O.3   111  SER111     -0.2180
     44  N          5.7510  -32.7950  -30.1570 N.3   126  TYR126     -0.1241
     45  CA         5.1550  -32.8450  -31.4810 C.3   126  TYR126      0.1605
     46  C          3.7380  -33.3550  -31.3000 C.2   126  TYR126      0.2264
     47  O          3.4300  -34.0070  -30.2990 O.2   126  TYR126     -0.2867
     48  CB         5.9740  -33.7110  -32.4520 C.3   126  TYR126      0.0534
     49  CG         5.7220  -35.1990  -32.3850 C.ar  126  TYR126     -0.0201
     50  CD1        6.2160  -35.9620  -31.3360 C.ar  126  TYR126     -0.0009
     51  CD2        5.0190  -35.8460  -33.3920 C.ar  126  TYR126     -0.0009
     52  CE1        5.9980  -37.3220  -31.2790 C.ar  126  TYR126      0.0417
     53  CE2        4.7940  -37.2080  -33.3430 C.ar  126  TYR126      0.0417
     54  CZ         5.2850  -37.9400  -32.2850 C.ar  126  TYR126      0.1957
     55  OH         5.0690  -39.2970  -32.2340 O.3   126  TYR126     -0.2866
     56  N          4.2150  -43.9900  -35.2620 N.3   132  GLU132     -0.1245
     57  CA         5.5630  -43.4740  -35.4870 C.3   132  GLU132      0.1567
     58  C          6.1210  -43.9710  -36.8210 C.2   132  GLU132      0.2260
     59  O          6.8010  -43.2380  -37.5490 O.2   132  GLU132     -0.2867
     60  CB         6.4960  -43.8880  -34.3460 C.3   132  GLU132      0.0388
     61  CG         7.9120  -43.3740  -34.5060 C.3   132  GLU132      0.1160
     62  CD         8.8690  -43.9480  -33.4810 C.2   132  GLU132      0.3649
     63  OE1        8.6380  -45.0820  -33.0090 O.co2 132  GLU132     -0.2457
     64  OE2        9.8600  -43.2690  -33.1510 O.co2 132  GLU132     -0.2457
     65  N         10.8330  -35.3470  -33.9350 N.3   173  VAL173     -0.1245
     66  CA        10.1970  -35.3490  -32.6280 C.3   173  VAL173      0.1561
     67  C         11.2280  -34.9310  -31.5950 C.2   173  VAL173      0.2260
     68  O         12.4250  -35.0130  -31.8410 O.2   173  VAL173     -0.2867
     69  CB         9.6240  -36.7340  -32.2500 C.3   173  VAL173      0.0252
     70  CG1        8.7520  -37.2970  -33.3690 C.3   173  VAL173      0.0019
     71  CG2       10.7450  -37.6940  -31.9230 C.3   173  VAL173      0.0019
     72  N         15.1520  -35.8540  -32.6310 N.3   191  TYR191     -0.1241
     73  CA        15.5840  -36.8300  -33.6270 C.3   191  TYR191      0.1605
     74  C         14.4690  -37.0950  -34.6290 C.2   191  TYR191      0.2264
     75  O         13.3060  -36.7840  -34.3800 O.2   191  TYR191     -0.2867
     76  CB        16.0380  -38.1380  -32.9570 C.3   191  TYR191      0.0534
     77  CG        14.9300  -38.9410  -32.3170 C.ar  191  TYR191     -0.0201
     78  CD1       14.3890  -38.5640  -31.0970 C.ar  191  TYR191     -0.0009
     79  CD2       14.4250  -40.0800  -32.9360 C.ar  191  TYR191     -0.0009
     80  CE1       13.3750  -39.2990  -30.5130 C.ar  191  TYR191      0.0417
     81  CE2       13.4160  -40.8130  -32.3650 C.ar  191  TYR191      0.0417
     82  CZ        12.8930  -40.4190  -31.1560 C.ar  191  TYR191      0.1957
     83  OH        11.8840  -41.1460  -30.5840 O.3   191  TYR191     -0.2866
     84  N         12.5120  -50.5330  -40.5910 N.3   237  TYR237     -0.1227
     85  CA        11.4130  -50.2530  -39.6720 C.3   237  TYR237      0.1736
     86  C         10.9410  -48.8050  -39.8200 C.2   237  TYR237      0.2595
     87  O          9.7550  -48.5100  -39.7000 O.2   237  TYR237     -0.2718
     88  CB        11.8440  -50.5420  -38.2290 C.3   237  TYR237      0.0548
     89  CG        10.7600  -50.3290  -37.1950 C.ar  237  TYR237     -0.0200
     90  CD1        9.6700  -51.1830  -37.1210 C.ar  237  TYR237     -0.0009
     91  CD2       10.8350  -49.2850  -36.2810 C.ar  237  TYR237     -0.0009
     92  CE1        8.6780  -50.9980  -36.1760 C.ar  237  TYR237      0.0417
     93  CE2        9.8490  -49.0920  -35.3340 C.ar  237  TYR237      0.0417
     94  CZ         8.7740  -49.9530  -35.2850 C.ar  237  TYR237      0.1957
     95  OH         7.7840  -49.7720  -34.3470 O.3   237  TYR237     -0.2866
     96  N         11.8840  -47.9050  -40.0770 N.am  238  PHE238     -0.1976
     97  CA        11.5850  -46.4930  -40.2740 C.3   238  PHE238      0.1639
     98  C         11.6310  -46.0790  -41.7510 C.2   238  PHE238      0.2290
     99  O         11.8860  -44.9190  -42.0640 O.2   238  PHE238     -0.2864
    100  CB        12.5260  -45.6330  -39.4280 C.3   238  PHE238      0.0560
    101  CG        12.1850  -45.6400  -37.9580 C.ar  238  PHE238     -0.0200
    102  CD1       10.8860  -45.8860  -37.5420 C.ar  238  PHE238     -0.0042
    103  CD2       13.1510  -45.3910  -36.9980 C.ar  238  PHE238     -0.0042
    104  CE1       10.5530  -45.8930  -36.2000 C.ar  238  PHE238     -0.0003
    105  CE2       12.8230  -45.3950  -35.6450 C.ar  238  PHE238     -0.0003
    106  CZ        11.5250  -45.6490  -35.2490 C.ar  238  PHE238     -0.0000
    107  N         18.2810  -40.7980  -32.0630 N.3   274  ALA274     -0.1231
    108  CA        17.4900  -41.3820  -30.9950 C.3   274  ALA274      0.1694
    109  C         17.1310  -40.3390  -29.9450 C.2   274  ALA274      0.2591
    110  O         17.5740  -39.1900  -30.0120 O.2   274  ALA274     -0.2718
    111  CB        18.2450  -42.5370  -30.3570 C.3   274  ALA274      0.0304
    112  N         16.3300  -40.7570  -28.9720 N.am  275  GLU275     -0.1979
    113  CA        16.0480  -39.9450  -27.8030 C.3   275  GLU275      0.1602
    114  C         17.3490  -39.5370  -27.1490 C.2   275  GLU275      0.2287
    115  O         18.3740  -40.1920  -27.3210 O.2   275  GLU275     -0.2864
    116  CB        15.1790  -40.7120  -26.8150 C.3   275  GLU275      0.0415
    117  CG        13.7650  -40.9290  -27.2920 C.3   275  GLU275      0.1163
    118  CD        13.0140  -41.9000  -26.4290 C.2   275  GLU275      0.3649
    119  OE1       13.6580  -42.6250  -25.6450 O.co2 275  GLU275     -0.2457
    120  OE2       11.7770  -41.9430  -26.5300 O.co2 275  GLU275     -0.2457
    121  N         20.2680  -42.0470  -26.4510 N.3   290  ARG290     -0.1245
    122  CA        19.7310  -43.3790  -26.1920 C.3   290  ARG290      0.1563
    123  C         20.3150  -44.3800  -27.1810 C.2   290  ARG290      0.2260
    124  O         20.4990  -44.0560  -28.3570 O.2   290  ARG290     -0.2867
    125  CB        18.2080  -43.3760  -26.2620 C.3   290  ARG290      0.0307
    126  CG        17.5910  -44.7460  -26.3800 C.3   290  ARG290      0.0489
    127  CD        16.0880  -44.6500  -26.4710 C.3   290  ARG290      0.2205
    128  NE        15.4910  -45.8690  -27.0000 N.pl3 290  ARG290     -0.0865
    129  CZ        14.2080  -46.1880  -26.8650 C.cat 290  ARG290      0.5346
    130  NH1       13.3880  -45.3870  -26.1940 N.pl3 290  ARG290      0.1354
    131  NH2       13.7460  -47.3130  -27.3950 N.pl3 290  ARG290      0.1354
    132  N         19.5170  -46.7680  -29.3200 N.3   292  THR292     -0.1218
    133  CA        18.4550  -47.3620  -30.1060 C.3   292  THR292      0.1862
    134  C         19.0510  -48.2390  -31.1950 C.2   292  THR292      0.2287
    135  O         18.4410  -49.2100  -31.6360 O.2   292  THR292     -0.2866
    136  CB        17.5680  -46.2660  -30.7170 C.3   292  THR292      0.1770
    137  OG1       17.0670  -45.4400  -29.6610 O.3   292  THR292     -0.2211
    138  CG2       16.4010  -46.8540  -31.5030 C.3   292  THR292      0.0375
    139  N         16.2910  -50.7980  -34.3490 N.3   344  VAL344     -0.1231
    140  CA        15.5020  -49.8430  -33.5860 C.3   344  VAL344      0.1692
    141  C         15.0760  -50.5610  -32.3110 C.2   344  VAL344      0.2592
    142  O         14.1400  -51.3590  -32.3130 O.2   344  VAL344     -0.2718
    143  CB        14.2820  -49.3260  -34.3630 C.3   344  VAL344      0.0266
    144  CG1       13.4880  -48.3550  -33.5050 C.3   344  VAL344      0.0020
    145  CG2       14.7300  -48.6370  -35.6380 C.3   344  VAL344      0.0020
    146  N         15.7760  -50.2670  -31.2210 N.am  345  SER345     -0.1952
    147  CA        15.6690  -51.0570  -30.0030 C.3   345  SER345      0.1924
    148  C         16.0830  -50.2340  -28.7910 C.2   345  SER345      0.2314
    149  O         16.0120  -49.0090  -28.8090 O.2   345  SER345     -0.2863
    150  CB        16.5300  -52.3170  -30.1020 C.3   345  SER345      0.2116
    151  OG        16.1620  -53.2650  -29.1150 O.3   345  SER345     -0.2180
    152  N         13.0490  -55.4140  -20.2070 N.3   380  ARG380     -0.1245
    153  CA        13.0500  -54.1970  -19.4030 C.3   380  ARG380      0.1563
    154  C         12.5950  -54.5650  -17.9960 C.2   380  ARG380      0.2260
    155  O         11.4070  -54.5280  -17.6740 O.2   380  ARG380     -0.2867
    156  CB        12.1350  -53.1330  -20.0120 C.3   380  ARG380      0.0307
    157  CG        12.6090  -52.5970  -21.3550 C.3   380  ARG380      0.0489
    158  CD        11.5870  -51.6530  -21.9650 C.3   380  ARG380      0.2205
    159  NE        12.1090  -51.0040  -23.1640 N.pl3 380  ARG380     -0.0865
    160  CZ        11.4960  -50.0160  -23.8070 C.cat 380  ARG380      0.5346
    161  NH1       10.3340  -49.5540  -23.3640 N.pl3 380  ARG380      0.1354
    162  NH2       12.0480  -49.4870  -24.8910 N.pl3 380  ARG380      0.1354
    163  N         12.0450  -46.5570  -18.7400 N.3   408  TYR408     -0.1241
    164  CA        12.8380  -45.3260  -18.7930 C.3   408  TYR408      0.1605
    165  C         13.3710  -44.8960  -17.4280 C.2   408  TYR408      0.2264
    166  O         12.6840  -45.0120  -16.4150 O.2   408  TYR408     -0.2867
    167  CB        12.0150  -44.1760  -19.3790 C.3   408  TYR408      0.0534
    168  CG        11.8450  -44.1870  -20.8800 C.ar  408  TYR408     -0.0201
    169  CD1       11.9560  -45.3590  -21.6140 C.ar  408  TYR408     -0.0009
    170  CD2       11.5760  -43.0090  -21.5650 C.ar  408  TYR408     -0.0009
    171  CE1       11.8030  -45.3560  -22.9840 C.ar  408  TYR408      0.0417
    172  CE2       11.4200  -42.9990  -22.9270 C.ar  408  TYR408      0.0417
    173  CZ        11.5360  -44.1740  -23.6330 C.ar  408  TYR408      0.1957
    174  OH        11.3860  -44.1600  -25.0000 O.3   408  TYR408     -0.2866
@<TRIPOS>BOND
     1    99    98    2
     2    98    97    1
     3    84    85    1
     4    97    96    1
     5    97   100    1
     6    96    86   am
     7    86    87    2
     8    86    85    1
     9    85    88    1
    10   100   101    1
    11    88    89    1
    12   101   102   ar
    13   101   103   ar
    14    59    58    2
    15   102   104   ar
    16    89    90   ar
    17    89    91   ar
    18    90    92   ar
    19   103   105   ar
    20    58    57    1
    21    91    93   ar
    22   104   106   ar
    23    92    94   ar
    24   105   106   ar
    25   145   143    1
    26    57    56    1
    27    57    60    1
    28    93    94   ar
    29    94    95    1
    30    74    75    2
    31    74    73    1
    32    61    60    1
    33    61    62    1
    34   143   140    1
    35   143   144    1
    36   139   140    1
    37    65    66    1
    38    73    76    1
    39    73    72    1
    40   140   141    1
    41    62    64   ar
    42    62    63   ar
    43    51    53   ar
    44    51    49   ar
    45    70    69    1
    46    53    54   ar
    47    76    77    1
    48    79    81   ar
    49    79    77   ar
    50    66    69    1
    51    66    67    1
    52    48    49    1
    53    48    45    1
    54    49    50   ar
    55    81    82   ar
    56    77    78   ar
    57   142   141    2
    58   141   146   am
    59    54    55    1
    60    54    52   ar
    61    69    71    1
    62   107   108    1
    63    68    67    2
    64   135   134    2
    65   138   136    1
    66    45    46    1
    67    45    44    1
    68    50    52   ar
    69    46    47    2
    70   146   147    1
    71   134   133    1
    72    82    83    1
    73    82    80   ar
    74    78    80   ar
    75   108   111    1
    76   108   109    1
    77   136   133    1
    78   136   137    1
    79   133   132    1
    80   150   147    1
    81   150   151    1
    82   110   109    2
    83   147   148    1
    84   109   112   am
    85    37    36    1
    86    35    36    1
    87    35    34    1
    88    34    33    1
    89   112   113    1
    90   149   148    2
    91   124   123    2
    92    23    22    2
    93    43    42    1
    94    42    39    1
    95    32    31    2
    96   113   114    1
    97   113   116    1
    98    29    30    1
    99    33    30    1
   100    31    30    1
   101    31    38   am
   102   131   129    1
   103   115   114    2
   104   117   116    1
   105   117   118    1
   106    22    21    1
   107   123   122    1
   108   128   129    2
   109   128   127    1
   110   129   130    1
   111    39    38    1
   112    39    40    1
   113    41    40    2
   114    24    21    1
   115    24    25    1
   116   120   118   ar
   117   127   126    1
   118    21    20    1
   119   121   122    1
   120   118   119   ar
   121   126   125    1
   122    26    25    1
   123    26    27    1
   124   125   122    1
   125    28    27    1
   126   174   173    1
   127   162   160    1
   128   160   161    1
   129   160   159    2
   130   173   171   ar
   131   173   172   ar
   132    10     9    1
   133   159   158    1
   134    19    17    1
   135   171   169   ar
   136    18    16    1
   137   172   170   ar
   138    17    16    1
   139     9    11    1
   140     9     8    2
   141    16    13    1
   142   158   157    1
   143   169   168   ar
   144   170   168   ar
   145   157   156    1
   146     7     8    1
   147     7     6    1
   148   168   167    1
   149    13    12    1
   150    13    14    1
   151     5     6    1
   152     5     2    1
   153   152   153    1
   154    15    14    2
   155    12     3   am
   156   156   153    1
   157     4     3    2
   158     3     2    1
   159   153   154    1
   160   167   164    1
   161     2     1    1
   162   164   163    1
   163   164   165    1
   164   154   155    2
   165   165   166    2
