@<TRIPOS>MOLECULE
tmp/5b2eB00.pdb
 138 134 0 0 0
SMALL
GASTEIGER

@<TRIPOS>ATOM
      1  N         45.6510   34.9170    4.1150 N.3    37  HIS37      -0.1241
      2  CA        46.4680   35.7200    3.2430 C.3    37  HIS37       0.1621
      3  C         47.7830   35.0010    2.9030 C.2    37  HIS37       0.2264
      4  O         48.1940   34.1390    3.6760 O.2    37  HIS37      -0.2867
      5  CB        46.8840   36.9620    3.9340 C.3    37  HIS37       0.0745
      6  CG        45.7260   37.7840    4.4530 C.ar   37  HIS37       0.0817
      7  ND1       45.4570   37.8740    5.7980 N.ar   37  HIS37      -0.2268
      8  CD2       44.7490   38.4920    3.8140 C.ar   37  HIS37       0.1154
      9  CE1       44.4030   38.6560    5.9860 C.ar   37  HIS37       0.1986
     10  NE2       43.9370   39.0170    4.7940 N.ar   37  HIS37      -0.2212
     11  N         51.3480   34.1510    3.2990 N.3    39  ASP39      -0.1225
     12  CA        52.3050   34.2050    4.4490 C.3    39  ASP39       0.1805
     13  C         51.6740   33.6370    5.7640 C.2    39  ASP39       0.2597
     14  O         52.3940   33.4080    6.7620 O.2    39  ASP39      -0.2718
     15  CB        52.9790   35.5860    4.7230 C.3    39  ASP39       0.1424
     16  CG        52.0260   36.6110    5.3610 C.2    39  ASP39       0.3668
     17  OD1       50.9350   36.2200    5.9220 O.co2  39  ASP39      -0.2456
     18  OD2       52.3790   37.7900    5.3700 O.co2  39  ASP39      -0.2456
     19  N         50.3470   33.3880    5.8000 N.am   40  ASP40      -0.1974
     20  CA        49.7490   32.9920    7.0940 C.3    40  ASP40       0.1709
     21  C         50.1100   31.5820    7.5160 C.2    40  ASP40       0.2293
     22  O         50.2900   31.3320    8.7150 O.2    40  ASP40      -0.2864
     23  CB        48.1890   33.2350    7.1560 C.3    40  ASP40       0.1436
     24  CG        47.8370   34.6980    7.4910 C.2    40  ASP40       0.3671
     25  OD1       48.3510   35.2700    8.4710 O.co2  40  ASP40      -0.2456
     26  OD2       46.8960   35.2370    6.8000 O.co2  40  ASP40      -0.2456
     27  N         53.8700   31.9450    8.7980 N.3    43  ILE43      -0.1245
     28  CA        53.8170   32.5270   10.1110 C.3    43  ILE43       0.1561
     29  C         53.1870   31.6830   11.2400 C.2    43  ILE43       0.2260
     30  O         53.7320   31.6110   12.3380 O.2    43  ILE43      -0.2867
     31  CB        53.1550   33.9270   10.0640 C.3    43  ILE43       0.0252
     32  CG1       53.9790   34.8420    9.1840 C.3    43  ILE43       0.0019
     33  CG2       53.0740   34.5520   11.4210 C.3    43  ILE43       0.0019
     34  CD1       53.1920   36.2260    8.7560 C.3    43  ILE43       0.0001
     35  N         45.7900   44.2850   -0.4900 N.3    69  MET69      -0.1230
     36  CA        45.8110   45.5200    0.2820 C.3    69  MET69       0.1702
     37  C         47.0830   45.7840    1.0810 C.2    69  MET69       0.2592
     38  O         47.2820   46.8880    1.6100 O.2    69  MET69      -0.2718
     39  CB        44.6150   45.5430    1.2340 C.3    69  MET69       0.0401
     40  CG        43.3150   45.6850    0.4560 C.3    69  MET69       0.0596
     41  SD        43.0520   47.2440   -0.3080 S.3    69  MET69      -0.1393
     42  CE        41.4200   46.7270   -0.9890 C.3    69  MET69       0.0692
     43  N         47.8930   44.7450    1.2010 N.am   70  GLY70      -0.1957
     44  CA        48.9730   44.7500    2.1660 C.3    70  GLY70       0.1869
     45  C         50.2230   45.5530    1.8480 C.2    70  GLY70       0.2309
     46  O         51.3390   44.9830    1.8780 O.2    70  GLY70      -0.2863
     47  N         52.9920   38.8760   -4.4620 N.3    85  ARG85      -0.1245
     48  CA        52.8020   37.9920   -3.3070 C.3    85  ARG85       0.1563
     49  C         52.5820   36.5770   -3.6890 C.2    85  ARG85       0.2260
     50  O         52.9160   35.6970   -2.8940 O.2    85  ARG85      -0.2867
     51  CB        51.6300   38.4630   -2.3950 C.3    85  ARG85       0.0307
     52  CG        51.9550   39.7740   -1.7970 C.3    85  ARG85       0.0489
     53  CD        50.9860   40.2980   -0.7490 C.3    85  ARG85       0.2205
     54  NE        51.0380   39.5530    0.5170 N.pl3  85  ARG85      -0.0865
     55  CZ        50.2870   39.8250    1.5870 C.cat  85  ARG85       0.5346
     56  NH1       49.4250   40.8840    1.5570 N.pl3  85  ARG85       0.1354
     57  NH2       50.3870   39.0470    2.6880 N.pl3  85  ARG85       0.1354
     58  N         41.7370   40.6210   -0.6560 N.3   108  ASP108     -0.1225
     59  CA        42.1840   40.8780    0.6820 C.3   108  ASP108      0.1805
     60  C         41.3310   42.0450    1.2790 C.2   108  ASP108      0.2598
     61  O         41.1010   43.0540    0.5940 O.2   108  ASP108     -0.2718
     62  CB        43.5990   41.4180    0.5160 C.3   108  ASP108      0.1424
     63  CG        44.2970   41.7390    1.7860 C.2   108  ASP108      0.3668
     64  OD1       43.8320   41.4730    2.8870 O.co2 108  ASP108     -0.2456
     65  OD2       45.3990   42.3500    1.6160 O.co2 108  ASP108     -0.2456
     66  N         40.8730   41.8350    2.5220 N.am  109  THR109     -0.1953
     67  CA        39.9230   42.7000    3.2670 C.3   109  THR109      0.1897
     68  C         38.4620   42.5060    2.8700 C.2   109  THR109      0.2313
     69  O         37.6070   43.0960    3.5000 O.2   109  THR109     -0.2863
     70  CB        40.2310   44.2470    3.2680 C.3   109  THR109      0.1794
     71  OG1       39.8940   44.8580    2.0000 O.3   109  THR109     -0.2208
     72  CG2       41.7170   44.6050    3.6750 C.3   109  THR109      0.0378
     73  N         41.0940   41.0380   12.2930 N.3   145  HIS145     -0.1241
     74  CA        41.0320   40.9130   10.8750 C.3   145  HIS145      0.1621
     75  C         39.8630   40.0510   10.4090 C.2   145  HIS145      0.2264
     76  O         39.8200   38.8630   10.6950 O.2   145  HIS145     -0.2867
     77  CB        42.3240   40.3130   10.2370 C.3   145  HIS145      0.0745
     78  CG        42.5720   40.8190    8.8560 C.ar  145  HIS145      0.0817
     79  ND1       41.6290   40.7340    7.8370 N.ar  145  HIS145     -0.2268
     80  CD2       43.6450   41.4820    8.3240 C.ar  145  HIS145      0.1154
     81  CE1       42.1300   41.2570    6.7320 C.ar  145  HIS145      0.1986
     82  NE2       43.3340   41.7370    7.0010 N.ar  145  HIS145     -0.2212
     83  N         40.5490   36.8180    8.7790 N.3   148  HIS148     -0.1241
     84  CA        40.9890   35.7030    9.6340 C.3   148  HIS148      0.1621
     85  C         39.8140   34.9540   10.2950 C.2   148  HIS148      0.2264
     86  O         39.7500   33.7100   10.2270 O.2   148  HIS148     -0.2867
     87  CB        41.9510   36.1370   10.6940 C.3   148  HIS148      0.0745
     88  CG        43.3200   36.2380   10.1690 C.ar  148  HIS148      0.0817
     89  ND1       44.4090   35.7560   10.8780 N.ar  148  HIS148     -0.2268
     90  CD2       43.7870   36.6840    8.9710 C.ar  148  HIS148      0.1154
     91  CE1       45.4950   35.9230   10.1390 C.ar  148  HIS148      0.1986
     92  NE2       45.1380   36.4670    8.9760 N.ar  148  HIS148     -0.2212
     93  N         47.0030   29.8000   15.1520 N.3   189  TYR189     -0.1241
     94  CA        46.7630   31.1610   15.6740 C.3   189  TYR189      0.1605
     95  C         45.6860   31.1380   16.7620 C.2   189  TYR189      0.2264
     96  O         44.6180   31.8370   16.6690 O.2   189  TYR189     -0.2867
     97  CB        46.2700   32.0760   14.5440 C.3   189  TYR189      0.0534
     98  CG        47.2340   32.5320   13.4980 C.ar  189  TYR189     -0.0201
     99  CD1       48.5760   32.7300   13.7880 C.ar  189  TYR189     -0.0009
    100  CD2       46.7650   32.8200   12.2120 C.ar  189  TYR189     -0.0009
    101  CE1       49.4750   33.2100   12.7870 C.ar  189  TYR189      0.0417
    102  CE2       47.6380   33.3070   11.2190 C.ar  189  TYR189      0.0417
    103  CZ        48.9690   33.5200   11.5090 C.ar  189  TYR189      0.1957
    104  OH        49.7590   34.0910   10.5420 O.3   189  TYR189     -0.2866
    105  N         55.9610   42.3110    2.6640 N.3   216  GLN216     -0.1231
    106  CA        55.3130   42.4040    3.9740 C.3   216  GLN216      0.1698
    107  C         56.3110   42.7720    5.0900 C.2   216  GLN216      0.2592
    108  O         55.9190   43.3710    6.1040 O.2   216  GLN216     -0.2718
    109  CB        54.6120   41.0790    4.3380 C.3   216  GLN216      0.0381
    110  CG        53.6080   40.6190    3.2930 C.3   216  GLN216      0.0905
    111  CD        52.6060   41.7340    3.0780 C.2   216  GLN216      0.2608
    112  OE1       51.8860   42.1100    4.0120 O.2   216  GLN216     -0.2717
    113  NE2       52.5970   42.2980    1.8830 N.am  216  GLN216     -0.0878
    114  N         57.6040   42.4270    4.8770 N.am  217  PHE217     -0.1976
    115  CA        58.5780   42.4150    5.9240 C.3   217  PHE217      0.1639
    116  C         59.8940   43.1360    5.5300 C.2   217  PHE217      0.2290
    117  O         60.9520   42.5460    5.6970 O.2   217  PHE217     -0.2864
    118  CB        58.8480   40.9600    6.3610 C.3   217  PHE217      0.0560
    119  CG        57.6070   40.2850    6.9620 C.ar  217  PHE217     -0.0200
    120  CD1       57.0340   40.8070    8.1210 C.ar  217  PHE217     -0.0042
    121  CD2       57.0110   39.2080    6.3500 C.ar  217  PHE217     -0.0042
    122  CE1       55.8310   40.2380    8.6770 C.ar  217  PHE217     -0.0003
    123  CE2       55.8300   38.6610    6.8960 C.ar  217  PHE217     -0.0003
    124  CZ        55.2630   39.2000    8.0460 C.ar  217  PHE217     -0.0000
    125  N         58.4450   42.9270   14.0250 N.3   225  TRP225     -0.1241
    126  CA        57.7880   41.6040   13.8250 C.3   225  TRP225      0.1605
    127  C         58.6600   40.4680   14.3110 C.2   225  TRP225      0.2264
    128  O         58.1590   39.4310   14.7630 O.2   225  TRP225     -0.2867
    129  CB        57.3710   41.3830   12.3670 C.3   225  TRP225      0.0550
    130  CG        55.9800   41.9130   12.1910 C.ar  225  TRP225      0.0003
    131  CD1       55.6190   43.2170   12.1740 C.ar  225  TRP225      0.0946
    132  CD2       54.7780   41.1610   12.1390 C.ar  225  TRP225      0.0152
    133  NE1       54.2590   43.3460   12.0600 N.ar  225  TRP225     -0.2442
    134  CE2       53.7020   42.1020   12.0280 C.ar  225  TRP225      0.0810
    135  CE3       54.4870   39.8030   12.1290 C.ar  225  TRP225      0.0012
    136  CZ2       52.3540   41.7170   11.9240 C.ar  225  TRP225      0.0191
    137  CZ3       53.1240   39.4190   12.0310 C.ar  225  TRP225      0.0001
    138  CH2       52.0790   40.4090   11.9310 C.ar  225  TRP225      0.0015
@<TRIPOS>BOND
     1    47    48    1
     2    49    48    1
     3    49    50    2
     4    48    51    1
     5    51    52    1
     6    52    53    1
     7    42    41    1
     8    53    54    1
     9    58    59    1
    10    35    36    1
    11    41    40    1
    12    36    37    1
    13    36    39    1
    14    40    39    1
    15    62    59    1
    16    62    63    1
    17    54    55    2
    18    61    60    2
    19    59    60    1
    20    37    43   am
    21    37    38    2
    22    43    44    1
    23    60    66   am
    24    56    55    1
    25    55    57    1
    26    65    63   ar
    27    63    64   ar
    28    45    46    2
    29    45    44    1
    30   113   111   am
    31    71    70    1
    32    66    67    1
    33   105   106    1
    34    68    67    1
    35    68    69    2
    36     3     2    1
    37     3     4    2
    38   111   110    1
    39   111   112    2
    40     2     5    1
    41     2     1    1
    42    67    70    1
    43    70    72    1
    44   110   109    1
    45    11    12    1
    46     8     6   ar
    47     8    10   ar
    48     5     6    1
    49   106   109    1
    50   106   107    1
    51    12    15    1
    52    12    13    1
    53     6     7   ar
    54    15    16    1
    55    10     9   ar
    56   114   107   am
    57   114   115    1
    58   107   108    2
    59    16    18   ar
    60    16    17   ar
    61   116   117    2
    62   116   115    1
    63    13    19   am
    64    13    14    2
    65     7     9   ar
    66    19    20    1
    67   115   118    1
    68   121   123   ar
    69   121   119   ar
    70   118   119    1
    71    81    82   ar
    72    81    79   ar
    73    26    24   ar
    74   123   124   ar
    75   119   120   ar
    76    82    80   ar
    77    20    23    1
    78    20    21    1
    79    23    24    1
    80    24    25   ar
    81    21    22    2
    82    79    78   ar
    83   124   122   ar
    84   120   122   ar
    85    80    78   ar
    86    34    32    1
    87    83    84    1
    88    27    28    1
    89    78    77    1
    90    90    92   ar
    91    90    88   ar
    92    92    91   ar
    93    32    31    1
    94    84    85    1
    95    84    87    1
    96    31    28    1
    97    31    33    1
    98    28    29    1
    99    91    89   ar
   100    88    87    1
   101    88    89   ar
   102    86    85    2
   103    77    74    1
   104    75    76    2
   105    75    74    1
   106   104   103    1
   107    74    73    1
   108   102   103   ar
   109   102   100   ar
   110    29    30    2
   111   103   101   ar
   112   136   138   ar
   113   136   134   ar
   114   138   137   ar
   115   134   133   ar
   116   134   132   ar
   117   137   135   ar
   118   133   131   ar
   119   135   132   ar
   120   132   130   ar
   121   131   130   ar
   122   130   129    1
   123   100    98   ar
   124   129   126    1
   125   101    99   ar
   126    98    99   ar
   127    98    97    1
   128   126   125    1
   129   126   127    1
   130   127   128    2
   131    97    94    1
   132    93    94    1
   133    94    95    1
   134    96    95    2
