@<TRIPOS>MOLECULE
tmp/5b2lA01.pdb
 76 75 0 0 0
SMALL
GASTEIGER

@<TRIPOS>ATOM
      1  N        -26.5120    4.1000    0.3130 N.3   198  VAL198     -0.1245
      2  CA       -26.4570    5.4550   -0.2020 C.3   198  VAL198      0.1561
      3  C        -25.2840    6.2740    0.4340 C.2   198  VAL198      0.2260
      4  O        -24.5590    7.0050   -0.2660 O.2   198  VAL198     -0.2867
      5  CB       -27.7800    6.2340    0.0200 C.3   198  VAL198      0.0252
      6  CG1      -27.6360    7.6790   -0.5090 C.3   198  VAL198      0.0019
      7  CG2      -28.9170    5.5360   -0.7560 C.3   198  VAL198      0.0019
      8  N        -22.1230    7.4800   -1.9960 N.3   202  THR202     -0.1218
      9  CA       -21.9710    8.8960   -2.2730 C.3   202  THR202      0.1862
     10  C        -20.9060    9.5050   -1.4390 C.2   202  THR202      0.2287
     11  O        -20.4730   10.6080   -1.7220 O.2   202  THR202     -0.2866
     12  CB       -23.2620    9.7110   -1.9900 C.3   202  THR202      0.1770
     13  OG1      -23.6110    9.5340   -0.6190 O.3   202  THR202     -0.2211
     14  CG2      -24.4070    9.1800   -2.8940 C.3   202  THR202      0.0375
     15  N        -27.0730   10.4880    3.9400 N.3   206  PRO206     -0.2116
     16  CA       -28.0040   11.1790    3.0560 C.3   206  PRO206      0.1372
     17  C        -28.8810   12.2410    3.7490 C.2   206  PRO206      0.2244
     18  O        -29.3150   13.1520    3.0690 O.2   206  PRO206     -0.2868
     19  CB       -28.8690   10.0700    2.4520 C.3   206  PRO206      0.0268
     20  CG       -28.6510    8.8610    3.3190 C.3   206  PRO206      0.0207
     21  CD       -27.4720    9.1050    4.2350 C.3   206  PRO206      0.0892
     22  N        -28.8860   15.4810    5.5110 N.3   208  LYS208     -0.1245
     23  CA       -27.8220   16.5030    5.6450 C.3   208  LYS208      0.1561
     24  C        -27.9420   17.3640    6.8750 C.2   208  LYS208      0.2260
     25  O        -29.0440   17.7730    7.2420 O.2   208  LYS208     -0.2867
     26  CB       -27.8310   17.4640    4.4490 C.3   208  LYS208      0.0271
     27  CG       -27.8170   16.7850    3.0930 C.3   208  LYS208      0.0035
     28  CD       -26.5690   15.9590    2.8860 C.3   208  LYS208      0.0206
     29  CE       -26.8040   14.9720    1.7550 C.3   208  LYS208      0.1093
     30  NZ       -25.6560   14.0420    1.6330 N.3   208  LYS208     -0.1314
     31  N        -38.7940   12.7710    1.0610 N.3   224  GLU224     -0.1231
     32  CA       -38.6940   11.6870    0.1100 C.3   224  GLU224      0.1684
     33  C        -37.4920   10.7960    0.4440 C.2   224  GLU224      0.2434
     34  O        -36.4980   11.2920    0.9550 O.2   224  GLU224     -0.2733
     35  CB       -38.5780   12.2740   -1.2970 C.3   224  GLU224      0.0402
     36  CG       -39.9430   12.6360   -1.8360 C.3   224  GLU224      0.1161
     37  CD       -40.8350   11.4200   -1.9060 C.2   224  GLU224      0.3649
     38  OE1      -41.8700   11.3970   -1.2020 O.co2 224  GLU224     -0.2457
     39  OE2      -40.4780   10.4600   -2.6360 O.co2 224  GLU224     -0.2457
     40  N        -37.5840    9.4980    0.1790 N.am  225  PRO225     -0.2718
     41  CA       -36.4170    8.6260    0.4720 C.3   225  PRO225      0.1520
     42  C        -35.2140    9.1330   -0.2950 C.2   225  PRO225      0.2440
     43  O        -35.3760    9.6060   -1.3920 O.2   225  PRO225     -0.2731
     44  CB       -36.8530    7.2200   -0.0160 C.3   225  PRO225      0.0310
     45  CG       -38.1270    7.4200   -0.8090 C.3   225  PRO225      0.0237
     46  CD       -38.7070    8.7680   -0.4830 C.3   225  PRO225      0.0939
     47  N        -34.0190    9.1040    0.3120 N.am  226  PRO226     -0.2716
     48  CA       -32.8250    9.6450   -0.3480 C.3   226  PRO226      0.1536
     49  C        -32.1230    8.6240   -1.2950 C.2   226  PRO226      0.2598
     50  O        -31.1490    7.9620   -0.8990 O.2   226  PRO226     -0.2715
     51  CB       -31.8840    9.9530    0.8130 C.3   226  PRO226      0.0310
     52  CG       -32.2250    8.9350    1.8690 C.3   226  PRO226      0.0237
     53  CD       -33.7240    8.6050    1.6830 C.3   226  PRO226      0.0939
     54  N        -32.5310    8.6190   -2.5540 N.am  227  LEU227     -0.1964
     55  CA       -32.0840    7.6300   -3.5540 C.3   227  LEU227      0.1728
     56  C        -30.7030    7.9500   -4.1090 C.2   227  LEU227      0.2616
     57  O        -30.1600    9.0580   -3.9030 O.2   227  LEU227     -0.2715
     58  CB       -33.1170    7.5880   -4.6800 C.3   227  LEU227      0.0311
     59  CG       -34.5480    7.3620   -4.1720 C.3   227  LEU227      0.0022
     60  CD1      -35.4410    7.3230   -5.3870 C.3   227  LEU227      0.0001
     61  CD2      -34.6810    6.0010   -3.4120 C.3   227  LEU227      0.0001
     62  N        -30.1140    6.9900   -4.8290 N.am  228  LEU228     -0.1964
     63  CA       -28.8510    7.3220   -5.5160 C.3   228  LEU228      0.1713
     64  C        -29.0510    8.5250   -6.4550 C.2   228  LEU228      0.2458
     65  O        -30.0380    8.5890   -7.1780 O.2   228  LEU228     -0.2730
     66  CB       -28.2310    6.1080   -6.2440 C.3   228  LEU228      0.0310
     67  CG       -27.8280    5.0050   -5.2660 C.3   228  LEU228      0.0022
     68  CD1      -27.2830    3.8220   -6.0800 C.3   228  LEU228      0.0001
     69  CD2      -26.7130    5.4650   -4.2630 C.3   228  LEU228      0.0001
     70  N        -28.1270    9.5040   -6.4370 N.am  229  PRO229     -0.2727
     71  CA       -28.2150   10.5980   -7.4750 C.3   229  PRO229      0.1402
     72  C        -28.1060   10.0090   -8.9130 C.2   229  PRO229      0.2269
     73  O        -27.4850    8.9520   -9.1530 O.2   229  PRO229     -0.2865
     74  CB       -26.9670   11.4670   -7.1730 C.3   229  PRO229      0.0296
     75  CG       -26.5430   11.0910   -5.7550 C.3   229  PRO229      0.0237
     76  CD       -26.9390    9.6430   -5.5600 C.3   229  PRO229      0.0939
@<TRIPOS>BOND
     1    73    72    2
     2    72    71    1
     3    71    74    1
     4    71    70    1
     5    65    64    2
     6    74    75    1
     7    64    70   am
     8    64    63    1
     9    70    76    1
    10    66    63    1
    11    66    67    1
    12    68    67    1
    13    75    76    1
    14    63    62    1
    15    60    59    1
    16    67    69    1
    17    62    56   am
    18    58    59    1
    19    58    55    1
    20    59    61    1
    21    56    57    2
    22    56    55    1
    23    55    54    1
    24    14    12    1
    25    39    37   ar
    26    54    49   am
    27     9     8    1
    28     9    12    1
    29     9    10    1
    30    12    13    1
    31    37    36    1
    32    37    38   ar
    33    36    35    1
    34    11    10    2
    35    43    42    2
    36    35    32    1
    37    49    50    2
    38    49    48    1
    39    45    46    1
    40    45    44    1
    41     7     5    1
    42     6     5    1
    43    46    40    1
    44    48    47    1
    45    48    51    1
    46    42    47   am
    47    42    41    1
    48     4     3    2
    49     2     5    1
    50     2     1    1
    51     2     3    1
    52    44    41    1
    53    32    33    1
    54    32    31    1
    55    40    33   am
    56    40    41    1
    57    47    53    1
    58    33    34    2
    59    51    52    1
    60    30    29    1
    61    53    52    1
    62    29    28    1
    63    19    16    1
    64    19    20    1
    65    28    27    1
    66    16    17    1
    67    16    15    1
    68    18    17    2
    69    27    26    1
    70    20    21    1
    71    15    21    1
    72    26    23    1
    73    22    23    1
    74    23    24    1
    75    24    25    2
