@<TRIPOS>MOLECULE
tmp/5b2nA09.pdb
 83 77 0 0 0
SMALL
GASTEIGER

@<TRIPOS>ATOM
      1  N         32.3890   26.0470  -16.5220 N.3    16  PHE16      -0.1241
      2  CA        31.9320   25.8880  -15.1410 C.3    16  PHE16       0.1605
      3  C         32.5310   24.6400  -14.5030 C.2    16  PHE16       0.2264
      4  O         32.9660   24.6780  -13.3470 O.2    16  PHE16      -0.2867
      5  CB        30.4040   25.8380  -15.0840 C.3    16  PHE16       0.0534
      6  CG        29.8520   25.7110  -13.6870 C.ar   16  PHE16      -0.0203
      7  CD1       30.0510   26.7240  -12.7540 C.ar   16  PHE16      -0.0042
      8  CD2       29.1460   24.5810  -13.3010 C.ar   16  PHE16      -0.0042
      9  CE1       29.5520   26.6130  -11.4650 C.ar   16  PHE16      -0.0003
     10  CE2       28.6330   24.4620  -12.0170 C.ar   16  PHE16      -0.0003
     11  CZ        28.8390   25.4840  -11.0950 C.ar   16  PHE16      -0.0000
     12  N         34.8570   24.7200  -11.2530 N.3    20  LEU20      -0.1245
     13  CA        34.5500   23.9220  -10.0650 C.3    20  LEU20       0.1561
     14  C         35.7640   23.1300   -9.6100 C.2    20  LEU20       0.2260
     15  O         36.0660   23.0520   -8.4110 O.2    20  LEU20      -0.2867
     16  CB        33.4060   22.9480  -10.3440 C.3    20  LEU20       0.0270
     17  CG        31.9640   23.4320  -10.3470 C.3    20  LEU20       0.0019
     18  CD1       31.0780   22.2740  -10.7720 C.3    20  LEU20       0.0001
     19  CD2       31.5700   23.9500   -8.9670 C.3    20  LEU20       0.0001
     20  N         38.5540   25.5570   -8.3760 N.3    23  MET23      -0.1245
     21  CA        38.1890   26.0390   -7.0440 C.3    23  MET23       0.1570
     22  C         38.4370   24.9670   -5.9950 C.2    23  MET23       0.2261
     23  O         38.9690   25.2570   -4.9100 O.2    23  MET23      -0.2867
     24  CB        36.7190   26.4690   -7.0150 C.3    23  MET23       0.0387
     25  CG        36.2420   26.9420   -5.6430 C.3    23  MET23       0.0595
     26  SD        34.4430   27.0010   -5.4990 S.3    23  MET23      -0.1393
     27  CE        34.0400   25.2630   -5.6920 C.3    23  MET23       0.0692
     28  N         26.0890   12.3460    5.4990 N.3   198  PHE198     -0.1241
     29  CA        25.6160   13.2700    4.4710 C.3   198  PHE198      0.1605
     30  C         26.5770   13.3150    3.2910 C.2   198  PHE198      0.2264
     31  O         26.1920   13.0640    2.1400 O.2   198  PHE198     -0.2867
     32  CB        25.4480   14.6680    5.0910 C.3   198  PHE198      0.0534
     33  CG        25.6590   15.8080    4.1150 C.ar  198  PHE198     -0.0203
     34  CD1       24.7380   16.0640    3.1280 C.ar  198  PHE198     -0.0042
     35  CD2       26.7770   16.6270    4.2160 C.ar  198  PHE198     -0.0042
     36  CE1       24.9190   17.1190    2.2300 C.ar  198  PHE198     -0.0003
     37  CE2       26.9680   17.6790    3.3320 C.ar  198  PHE198     -0.0003
     38  CZ        26.0340   17.9190    2.3340 C.ar  198  PHE198     -0.0000
     39  N         29.4090   18.9100   -9.9200 N.3   224  LEU224     -0.1245
     40  CA        28.9750   19.7410   -8.8000 C.3   224  LEU224      0.1561
     41  C         28.7980   18.9130   -7.5270 C.2   224  LEU224      0.2260
     42  O         29.2580   19.3060   -6.4440 O.2   224  LEU224     -0.2867
     43  CB        27.6740   20.4500   -9.1830 C.3   224  LEU224      0.0270
     44  CG        27.1180   21.4150   -8.1490 C.3   224  LEU224      0.0019
     45  CD1       28.0560   22.6160   -8.0690 C.3   224  LEU224      0.0001
     46  CD2       25.7060   21.8330   -8.5530 C.3   224  LEU224      0.0001
     47  N         32.0680   17.9860   -6.1190 N.3   227  THR227     -0.1203
     48  CA        32.7470   19.1350   -5.5250 C.3   227  THR227      0.1994
     49  C         32.1950   19.4380   -4.1380 C.2   227  THR227      0.2617
     50  O         32.9660   19.6440   -3.1870 O.2   227  THR227     -0.2717
     51  CB        32.6270   20.3540   -6.4470 C.3   227  THR227      0.1784
     52  OG1       33.2700   20.0620   -7.6940 O.3   227  THR227     -0.2211
     53  CG2       33.3000   21.5740   -5.8150 C.3   227  THR227      0.0376
     54  N         30.8640   19.4540   -4.0000 N.am  228  ILE228     -0.1979
     55  CA        30.2440   19.5800   -2.6780 C.3   228  ILE228      0.1595
     56  C         30.7450   18.4780   -1.7570 C.2   228  ILE228      0.2287
     57  O         31.1350   18.7310   -0.6080 O.2   228  ILE228     -0.2864
     58  CB        28.7070   19.5250   -2.7850 C.3   228  ILE228      0.0276
     59  CG1       28.1560   20.6990   -3.5810 C.3   228  ILE228      0.0022
     60  CG2       28.0750   19.4910   -1.3800 C.3   228  ILE228      0.0022
     61  CD1       26.6960   20.4540   -4.0400 C.3   228  ILE228      0.0001
     62  N         34.6510   18.7570   -0.7300 N.3   231  ILE231     -0.1231
     63  CA        34.9310   19.8000    0.2550 C.3   231  ILE231      0.1692
     64  C         34.3550   19.4170    1.6150 C.2   231  ILE231      0.2592
     65  O         34.9960   19.6250    2.6600 O.2   231  ILE231     -0.2718
     66  CB        34.4040   21.1580   -0.2510 C.3   231  ILE231      0.0266
     67  CG1       35.2740   21.6210   -1.4320 C.3   231  ILE231      0.0019
     68  CG2       34.3660   22.1910    0.8770 C.3   231  ILE231      0.0020
     69  CD1       34.8020   22.8990   -2.0980 C.3   231  ILE231      0.0001
     70  N         33.1690   18.8070    1.6240 N.am  232  SER232     -0.1952
     71  CA        32.5300   18.4170    2.8770 C.3   232  SER232      0.1924
     72  C         33.2390   17.2320    3.5220 C.2   232  SER232      0.2314
     73  O         33.4790   17.2330    4.7350 O.2   232  SER232     -0.2863
     74  CB        31.0550   18.0850    2.6390 C.3   232  SER232      0.2116
     75  OG        30.3620   19.2110    2.1470 O.3   232  SER232     -0.2180
     76  N         35.9830   20.1820    5.3010 N.3   236  ILE236     -0.1245
     77  CA        35.1790   20.4760    6.4890 C.3   236  ILE236      0.1561
     78  C         35.3920   19.3960    7.5450 C.2   236  ILE236      0.2260
     79  O         35.6140   19.6880    8.7290 O.2   236  ILE236     -0.2867
     80  CB        33.6910   20.6150    6.1180 C.3   236  ILE236      0.0252
     81  CG1       33.4970   21.7900    5.1620 C.3   236  ILE236      0.0019
     82  CG2       32.8380   20.7990    7.3910 C.3   236  ILE236      0.0019
     83  CD1       32.0280   21.9940    4.7630 C.3   236  ILE236      0.0001
@<TRIPOS>BOND
     1     1     2    1
     2     2     5    1
     3     2     3    1
     4     5     6    1
     5     3     4    2
     6     6     8   ar
     7     6     7   ar
     8     8    10   ar
     9     7     9   ar
    10    10    11   ar
    11     9    11   ar
    12    12    13    1
    13    18    17    1
    14    17    16    1
    15    17    19    1
    16    16    13    1
    17    13    14    1
    18    39    40    1
    19    14    15    2
    20    43    40    1
    21    43    44    1
    22    40    41    1
    23    46    44    1
    24    20    21    1
    25    44    45    1
    26    52    51    1
    27    41    42    2
    28    21    24    1
    29    21    22    1
    30    24    25    1
    31    51    53    1
    32    51    48    1
    33    47    48    1
    34    22    23    2
    35    27    26    1
    36    25    26    1
    37    48    49    1
    38    49    54   am
    39    49    50    2
    40    61    59    1
    41    54    55    1
    42    59    58    1
    43    58    55    1
    44    58    60    1
    45    55    56    1
    46    69    67    1
    47    56    57    2
    48    67    66    1
    49    62    63    1
    50    66    63    1
    51    66    68    1
    52    63    64    1
    53    64    70   am
    54    64    65    2
    55    70    71    1
    56    31    30    2
    57    75    74    1
    58    36    38   ar
    59    36    34   ar
    60    38    37   ar
    61    74    71    1
    62    71    72    1
    63    34    33   ar
    64    30    29    1
    65    37    35   ar
    66    72    73    2
    67    33    35   ar
    68    33    32    1
    69    29    32    1
    70    29    28    1
    71    83    81    1
    72    81    80    1
    73    76    77    1
    74    80    77    1
    75    80    82    1
    76    77    78    1
    77    78    79    2
