@<TRIPOS>MOLECULE
tmp/5b2nA04.pdb
 88 83 0 0 0
SMALL
GASTEIGER

@<TRIPOS>ATOM
      1  N         46.8520   25.4210    6.4770 N.3    34  PHE34      -0.1241
      2  CA        46.2830   25.5320    7.8160 C.3    34  PHE34       0.1605
      3  C         46.5740   24.2860    8.6430 C.2    34  PHE34       0.2264
      4  O         47.0620   24.3840    9.7780 O.2    34  PHE34      -0.2867
      5  CB        44.7770   25.7780    7.7350 C.3    34  PHE34       0.0534
      6  CG        44.0940   25.7650    9.0770 C.ar   34  PHE34      -0.0203
      7  CD1       44.0450   26.9100    9.8560 C.ar   34  PHE34      -0.0042
      8  CD2       43.5180   24.5990    9.5660 C.ar   34  PHE34      -0.0042
      9  CE1       43.4270   26.9000   11.0980 C.ar   34  PHE34      -0.0003
     10  CE2       42.9100   24.5780   10.8110 C.ar   34  PHE34      -0.0003
     11  CZ        42.8570   25.7340   11.5750 C.ar   34  PHE34      -0.0000
     12  N         48.8770   24.2230   12.1380 N.3    38  VAL38      -0.1245
     13  CA        48.3000   23.9370   13.4500 C.3    38  VAL38       0.1561
     14  C         48.7200   22.5860   14.0010 C.2    38  VAL38       0.2260
     15  O         48.4720   22.3150   15.1800 O.2    38  VAL38      -0.2867
     16  CB        46.7640   24.0330   13.4460 C.3    38  VAL38       0.0252
     17  CG1       46.3360   25.4240   12.9870 C.3    38  VAL38       0.0019
     18  CG2       46.1450   22.9310   12.5940 C.3    38  VAL38       0.0019
     19  N         50.3920   22.3130   17.4080 N.3    41  PHE41      -0.1241
     20  CA        49.5800   22.4860   18.6040 C.3    41  PHE41       0.1605
     21  C         48.7840   21.2390   18.9540 C.2    41  PHE41       0.2264
     22  O         47.9370   21.2900   19.8500 O.2    41  PHE41      -0.2867
     23  CB        48.6370   23.6790   18.4230 C.3    41  PHE41       0.0534
     24  CG        49.3350   24.9320   17.9640 C.ar   41  PHE41      -0.0203
     25  CD1       50.3190   25.5150   18.7420 C.ar   41  PHE41      -0.0042
     26  CD2       48.9990   25.5270   16.7530 C.ar   41  PHE41      -0.0042
     27  CE1       50.9670   26.6670   18.3240 C.ar   41  PHE41      -0.0003
     28  CE2       49.6410   26.6760   16.3290 C.ar   41  PHE41      -0.0003
     29  CZ        50.6260   27.2460   17.1110 C.ar   41  PHE41      -0.0000
     30  N         38.7750   19.7820    9.1480 N.3   239  LEU239     -0.1245
     31  CA        38.7930   20.8730   10.1210 C.3   239  LEU239      0.1561
     32  C         38.1490   20.4350   11.4260 C.2   239  LEU239      0.2260
     33  O         38.6250   20.7910   12.5150 O.2   239  LEU239     -0.2867
     34  CB        38.0730   22.0950    9.5420 C.3   239  LEU239      0.0270
     35  CG        38.8440   22.7550    8.4000 C.3   239  LEU239      0.0019
     36  CD1       37.9620   23.7890    7.7080 C.3   239  LEU239      0.0001
     37  CD2       40.1170   23.4150    8.9330 C.3   239  LEU239      0.0001
     38  N         40.5880   18.0310   13.2240 N.3   242  THR242     -0.1203
     39  CA        41.6990   18.7730   13.8230 C.3   242  THR242      0.1994
     40  C         41.2400   19.5930   15.0190 C.2   242  THR242      0.2617
     41  O         41.9720   19.7070   16.0140 O.2   242  THR242     -0.2717
     42  CB        42.3660   19.6540   12.7620 C.3   242  THR242      0.1784
     43  OG1       43.1940   18.8260   11.9410 O.3   242  THR242     -0.2211
     44  CG2       43.2420   20.7490   13.3900 C.3   242  THR242      0.0376
     45  N         40.0280   20.1550   14.9650 N.am  243  TYR243     -0.1975
     46  CA        39.4900   20.8130   16.1530 C.3   243  TYR243      0.1639
     47  C         39.4050   19.8310   17.3150 C.2   243  TYR243      0.2290
     48  O         39.8220   20.1370   18.4410 O.2   243  TYR243     -0.2864
     49  CB        38.1100   21.4130   15.8630 C.3   243  TYR243      0.0560
     50  CG        37.4260   21.8610   17.1310 C.ar  243  TYR243     -0.0198
     51  CD1       37.7760   23.0550   17.7430 C.ar  243  TYR243     -0.0009
     52  CD2       36.4570   21.0720   17.7360 C.ar  243  TYR243     -0.0009
     53  CE1       37.1680   23.4570   18.9220 C.ar  243  TYR243      0.0417
     54  CE2       35.8440   21.4630   18.9080 C.ar  243  TYR243      0.0417
     55  CZ        36.2020   22.6580   19.4960 C.ar  243  TYR243      0.1957
     56  OH        35.5910   23.0510   20.6640 O.3   243  TYR243     -0.2866
     57  N         42.8840   19.0840   18.6930 N.3   246  ILE246     -0.1245
     58  CA        43.4870   20.1410   19.5130 C.3   246  ILE246      0.1561
     59  C         42.7590   20.2710   20.8420 C.2   246  ILE246      0.2260
     60  O         43.3870   20.4700   21.8890 O.2   246  ILE246     -0.2867
     61  CB        43.5100   21.4810   18.7510 C.3   246  ILE246      0.0252
     62  CG1       44.4500   21.3920   17.5580 C.3   246  ILE246      0.0019
     63  CG2       44.0010   22.6070   19.6720 C.3   246  ILE246      0.0019
     64  CD1       44.3700   22.5740   16.6080 C.3   246  ILE246      0.0001
     65  N         47.5330   27.5780   22.2840 N.3   260  ALA260     -0.1231
     66  CA        46.9100   27.8720   20.9990 C.3   260  ALA260      0.1694
     67  C         45.4380   28.2210   21.1700 C.2   260  ALA260      0.2591
     68  O         44.9380   29.1630   20.5440 O.2   260  ALA260     -0.2718
     69  CB        47.0700   26.6840   20.0490 C.3   260  ALA260      0.0304
     70  N         44.7230   27.4690   22.0070 N.am  261  LEU261     -0.1980
     71  CA        43.3110   27.7560   22.2230 C.3   261  LEU261      0.1596
     72  C         43.1140   28.9920   23.0930 C.2   261  LEU261      0.2287
     73  O         42.0760   29.6540   22.9950 O.2   261  LEU261     -0.2864
     74  CB        42.6140   26.5420   22.8450 C.3   261  LEU261      0.0297
     75  CG        42.5140   25.3060   21.9440 C.3   261  LEU261      0.0022
     76  CD1       42.0120   24.1000   22.7200 C.3   261  LEU261      0.0001
     77  CD2       41.6070   25.5830   20.7620 C.3   261  LEU261      0.0001
     78  N         44.8360   31.7960   22.8520 N.3   263  ARG263     -0.1245
     79  CA        44.9380   32.9570   21.9730 C.3   263  ARG263      0.1563
     80  C         43.6290   33.2000   21.2260 C.2   263  ARG263      0.2260
     81  O         42.8230   32.2840   21.0460 O.2   263  ARG263     -0.2867
     82  CB        46.0870   32.7750   20.9790 C.3   263  ARG263      0.0307
     83  CG        47.4670   33.0380   21.5630 C.3   263  ARG263      0.0489
     84  CD        48.4820   32.0060   21.0870 C.3   263  ARG263      0.2205
     85  NE        48.1840   31.5080   19.7470 N.pl3 263  ARG263     -0.0865
     86  CZ        48.8920   30.5700   19.1240 C.cat 263  ARG263      0.5346
     87  NH1       49.9490   30.0290   19.7170 N.pl3 263  ARG263      0.1354
     88  NH2       48.5460   30.1720   17.9060 N.pl3 263  ARG263      0.1354
@<TRIPOS>BOND
     1     1     2    1
     2    36    35    1
     3     5     2    1
     4     5     6    1
     5     2     3    1
     6    35    37    1
     7    35    34    1
     8     3     4    2
     9     6     8   ar
    10     6     7   ar
    11    30    31    1
    12    34    31    1
    13     8    10   ar
    14     7     9   ar
    15    31    32    1
    16    10    11   ar
    17     9    11   ar
    18    32    33    2
    19    43    42    1
    20    12    13    1
    21    18    16    1
    22    42    44    1
    23    42    39    1
    24    17    16    1
    25    38    39    1
    26    16    13    1
    27    13    14    1
    28    39    40    1
    29    14    15    2
    30    45    40   am
    31    45    46    1
    32    40    41    2
    33    49    46    1
    34    49    50    1
    35    46    47    1
    36    28    26   ar
    37    28    29   ar
    38    64    62    1
    39    26    24   ar
    40    29    27   ar
    41    50    52   ar
    42    50    51   ar
    43    47    48    2
    44    19    20    1
    45    62    61    1
    46    52    54   ar
    47    51    53   ar
    48    88    86    1
    49    24    23    1
    50    24    25   ar
    51    27    25   ar
    52    23    20    1
    53    20    21    1
    54    57    58    1
    55    61    58    1
    56    61    63    1
    57    54    55   ar
    58    53    55   ar
    59    21    22    2
    60    86    87    1
    61    86    85    2
    62    55    56    1
    63    58    59    1
    64    85    84    1
    65    69    66    1
    66    68    67    2
    67    77    75    1
    68    59    60    2
    69    82    83    1
    70    82    79    1
    71    66    67    1
    72    66    65    1
    73    81    80    2
    74    84    83    1
    75    67    70   am
    76    80    79    1
    77    75    76    1
    78    75    74    1
    79    79    78    1
    80    70    71    1
    81    71    74    1
    82    71    72    1
    83    73    72    2
