@<TRIPOS>MOLECULE
tmp/5b34A03.pdb
 75 71 0 0 0
SMALL
GASTEIGER

@<TRIPOS>ATOM
      1  N          7.8880   71.8400    0.1610 N.3    13  LEU13      -0.1245
      2  CA         8.2330   71.2810    1.4870 C.3    13  LEU13       0.1561
      3  C          9.3920   71.9770    2.1580 C.2    13  LEU13       0.2260
      4  O          9.3010   72.2800    3.3550 O.2    13  LEU13      -0.2867
      5  CB         8.4940   69.7720    1.4300 C.3    13  LEU13       0.0270
      6  CG         7.2350   68.9770    1.0550 C.3    13  LEU13       0.0019
      7  CD1        7.6540   67.5870    0.5780 C.3    13  LEU13       0.0001
      8  CD2        6.2630   68.9240    2.2310 C.3    13  LEU13       0.0001
      9  N          7.9480   75.4800    3.2930 N.3    16  LEU16      -0.1231
     10  CA         7.1370   75.3200    4.4910 C.3    16  LEU16       0.1693
     11  C          7.9540   75.0020    5.7680 C.2    16  LEU16       0.2592
     12  O          7.6920   75.5970    6.8220 O.2    16  LEU16      -0.2718
     13  CB         6.0380   74.2440    4.2820 C.3    16  LEU16       0.0284
     14  CG         4.5800   74.4910    3.8530 C.3    16  LEU16       0.0019
     15  CD1        4.0990   75.9510    3.9710 C.3    16  LEU16       0.0001
     16  CD2        4.2590   73.8910    2.4880 C.3    16  LEU16       0.0001
     17  N          8.8820   74.0330    5.6770 N.am   17  GLY17      -0.1957
     18  CA         9.8500   73.7280    6.7230 C.3    17  GLY17       0.1869
     19  C         10.5440   74.9880    7.2180 C.2    17  GLY17       0.2309
     20  O         10.5620   75.2600    8.4040 O.2    17  GLY17      -0.2863
     21  N          8.1040   77.4560    8.9630 N.3    20  TYR20      -0.1227
     22  CA         7.7460   76.9510   10.2910 C.3    20  TYR20       0.1736
     23  C          8.8840   77.0780   11.3290 C.2    20  TYR20       0.2595
     24  O          8.6720   77.4920   12.4800 O.2    20  TYR20      -0.2718
     25  CB         7.2220   75.5220   10.1560 C.3    20  TYR20       0.0548
     26  CG         6.7750   74.9680   11.4430 C.ar   20  TYR20      -0.0200
     27  CD1        5.5960   75.4110   12.0200 C.ar   20  TYR20      -0.0009
     28  CD2        7.5370   74.0040   12.1140 C.ar   20  TYR20      -0.0009
     29  CE1        5.1860   74.8940   13.2220 C.ar   20  TYR20       0.0417
     30  CE2        7.1480   73.5170   13.3270 C.ar   20  TYR20       0.0417
     31  CZ         5.9620   73.9590   13.8670 C.ar   20  TYR20       0.1957
     32  OH         5.5530   73.5040   15.0640 O.3    20  TYR20      -0.2866
     33  N         10.0940   76.7180   10.9160 N.am   21  PHE21      -0.1976
     34  CA        11.2300   76.8130   11.7830 C.3    21  PHE21       0.1639
     35  C         11.5340   78.2950   12.1480 C.2    21  PHE21       0.2290
     36  O         11.9100   78.5980   13.2820 O.2    21  PHE21      -0.2864
     37  CB        12.4720   76.1240   11.1410 C.3    21  PHE21       0.0560
     38  CG        12.3590   74.6000   10.9560 C.ar   21  PHE21      -0.0200
     39  CD1       11.3650   73.8460   11.5380 C.ar   21  PHE21      -0.0042
     40  CD2       13.3430   73.9130   10.2300 C.ar   21  PHE21      -0.0042
     41  CE1       11.3360   72.4620   11.4020 C.ar   21  PHE21      -0.0003
     42  CE2       13.3050   72.5260   10.0860 C.ar   21  PHE21      -0.0003
     43  CZ        12.2910   71.8080   10.6490 C.ar   21  PHE21      -0.0000
     44  N         14.1450   66.0150    2.1280 N.3   207  VAL207     -0.1231
     45  CA        13.1280   66.4960    3.0870 C.3   207  VAL207      0.1692
     46  C         13.2650   65.8180    4.4280 C.2   207  VAL207      0.2592
     47  O         13.1750   66.4830    5.4790 O.2   207  VAL207     -0.2718
     48  CB        11.6900   66.4110    2.4970 C.3   207  VAL207      0.0266
     49  CG1       10.5840   66.7170    3.5300 C.3   207  VAL207      0.0020
     50  CG2       11.6100   67.2990    1.2850 C.3   207  VAL207      0.0020
     51  N         13.4710   64.4930    4.4090 N.am  208  SER208     -0.1952
     52  CA        13.6500   63.7260    5.6380 C.3   208  SER208      0.1924
     53  C         14.9370   64.1290    6.4150 C.2   208  SER208      0.2314
     54  O         14.8810   64.3160    7.6220 O.2   208  SER208     -0.2863
     55  CB        13.6170   62.2070    5.3770 C.3   208  SER208      0.2116
     56  OG        12.4390   61.8100    4.6850 O.3   208  SER208     -0.2180
     57  N         14.1010   68.6230    7.0080 N.3   211  VAL211     -0.1231
     58  CA        12.8780   69.0170    7.7480 C.3   211  VAL211      0.1692
     59  C         12.5290   68.0020    8.8230 C.2   211  VAL211      0.2592
     60  O         12.1950   68.3800    9.9680 O.2   211  VAL211     -0.2718
     61  CB        11.7090   69.2270    6.7510 C.3   211  VAL211      0.0266
     62  CG1       10.4190   69.6030    7.4570 C.3   211  VAL211      0.0020
     63  CG2       12.1140   70.2900    5.7290 C.3   211  VAL211      0.0020
     64  N         12.6110   66.7050    8.4680 N.am  212  GLY212     -0.1957
     65  CA        12.3950   65.6410    9.4340 C.3   212  GLY212      0.1869
     66  C         13.3580   65.7160   10.6130 C.2   212  GLY212      0.2309
     67  O         12.9460   65.7980   11.7700 O.2   212  GLY212     -0.2863
     68  N         12.5980   68.8870   12.7170 N.3   215  LEU215     -0.1245
     69  CA        11.4210   68.6700   13.5870 C.3   215  LEU215      0.1561
     70  C         11.7330   67.8940   14.8450 C.2   215  LEU215      0.2260
     71  O         11.2750   68.2580   15.9200 O.2   215  LEU215     -0.2867
     72  CB        10.2390   67.9960   12.8610 C.3   215  LEU215      0.0270
     73  CG         9.4630   68.9280   11.9060 C.3   215  LEU215      0.0019
     74  CD1        8.5410   68.1260   11.0130 C.3   215  LEU215      0.0001
     75  CD2        8.6820   69.9890   12.6720 C.3   215  LEU215      0.0001
@<TRIPOS>BOND
     1     1     2    1
     2     7     6    1
     3     6     5    1
     4     6     8    1
     5    50    48    1
     6     5     2    1
     7     2     3    1
     8    44    45    1
     9     3     4    2
    10    16    14    1
    11    48    45    1
    12    48    49    1
    13    45    46    1
    14     9    10    1
    15    14    15    1
    16    14    13    1
    17    13    10    1
    18    51    46   am
    19    51    52    1
    20    46    47    2
    21    10    11    1
    22    56    55    1
    23    55    52    1
    24    52    53    1
    25    17    11   am
    26    17    18    1
    27    63    61    1
    28    11    12    2
    29    53    54    2
    30    18    19    1
    31    61    62    1
    32    61    58    1
    33    57    58    1
    34    19    20    2
    35    58    59    1
    36    64    59   am
    37    64    65    1
    38    59    60    2
    39    21    22    1
    40    65    66    1
    41    42    40   ar
    42    42    43   ar
    43    25    22    1
    44    25    26    1
    45    40    38   ar
    46    22    23    1
    47    66    67    2
    48    43    41   ar
    49    33    23   am
    50    33    34    1
    51    38    37    1
    52    38    39   ar
    53    74    73    1
    54    37    34    1
    55    23    24    2
    56    41    39   ar
    57    26    27   ar
    58    26    28   ar
    59    34    35    1
    60    73    75    1
    61    73    72    1
    62    27    29   ar
    63    28    30   ar
    64    35    36    2
    65    68    69    1
    66    72    69    1
    67    29    31   ar
    68    30    31   ar
    69    69    70    1
    70    31    32    1
    71    70    71    2
