@<TRIPOS>MOLECULE
tmp/5b34A10.pdb
 75 66 0 0 0
SMALL
GASTEIGER

@<TRIPOS>ATOM
      1  N         18.8450   58.5550   12.4500 N.3   171  VAL171     -0.1245
      2  CA        18.2390   59.1780   11.2590 C.3   171  VAL171      0.1561
      3  C         19.3030   59.4830   10.2160 C.2   171  VAL171      0.2260
      4  O         19.1690   59.1600    9.0450 O.2   171  VAL171     -0.2867
      5  CB        17.4090   60.4540   11.6680 C.3   171  VAL171      0.0252
      6  CG1       17.0290   61.2690   10.4860 C.3   171  VAL171      0.0019
      7  CG2       16.1300   60.0230   12.3860 C.3   171  VAL171      0.0019
      8  N         21.0150   56.2990    8.6660 N.3   174  VAL174     -0.1231
      9  CA        20.1450   55.6250    7.7080 C.3   174  VAL174      0.1692
     10  C         19.9380   56.4750    6.4820 C.2   174  VAL174      0.2591
     11  O         20.0370   55.9620    5.3600 O.2   174  VAL174     -0.2718
     12  CB        18.7790   55.2710    8.3450 C.3   174  VAL174      0.0266
     13  CG1       17.7710   54.8050    7.2950 C.3   174  VAL174      0.0020
     14  CG2       18.9970   54.1700    9.3750 C.3   174  VAL174      0.0020
     15  N         19.6050   57.7750    6.6650 N.am  175  LEU175     -0.1980
     16  CA        19.3840   58.6330    5.4950 C.3   175  LEU175      0.1596
     17  C         20.6450   58.9120    4.6300 C.2   175  LEU175      0.2287
     18  O         20.5840   58.7990    3.4150 O.2   175  LEU175     -0.2864
     19  CB        18.6400   59.9030    5.8420 C.3   175  LEU175      0.0297
     20  CG        17.2000   59.6950    6.3650 C.3   175  LEU175      0.0022
     21  CD1       16.6760   61.0500    6.7880 C.3   175  LEU175      0.0001
     22  CD2       16.2910   59.0500    5.3430 C.3   175  LEU175      0.0001
     23  N         21.8960   56.0400    2.1660 N.3   178  ALA178     -0.1245
     24  CA        21.1160   55.8130    0.9530 C.3   178  ALA178      0.1562
     25  C         21.6540   56.6810   -0.2310 C.2   178  ALA178      0.2260
     26  O         21.5930   56.2550   -1.3780 O.2   178  ALA178     -0.2867
     27  CB        19.5930   56.0440    1.2160 C.3   178  ALA178      0.0290
     28  N         21.7070   55.7420   -4.3400 N.3   182  VAL182     -0.1245
     29  CA        20.8920   56.4230   -5.3280 C.3   182  VAL182      0.1561
     30  C         21.7910   56.8950   -6.4780 C.2   182  VAL182      0.2260
     31  O         21.4740   56.7020   -7.6520 O.2   182  VAL182     -0.2867
     32  CB        20.0080   57.5520   -4.6830 C.3   182  VAL182      0.0252
     33  CG1       19.2550   58.3780   -5.7200 C.3   182  VAL182      0.0019
     34  CG2       19.0260   56.9370   -3.6870 C.3   182  VAL182      0.0019
     35  N         13.4290   60.2050   -5.2250 N.3   201  LEU201     -0.1245
     36  CA        14.2150   59.6170   -4.1310 C.3   201  LEU201      0.1561
     37  C         15.0420   60.6620   -3.3840 C.2   201  LEU201      0.2260
     38  O         15.0170   60.7020   -2.1710 O.2   201  LEU201     -0.2867
     39  CB        15.1190   58.4900   -4.6700 C.3   201  LEU201      0.0270
     40  CG        14.3350   57.2450   -5.1570 C.3   201  LEU201      0.0019
     41  CD1       15.2940   56.2160   -5.6960 C.3   201  LEU201      0.0001
     42  CD2       13.4880   56.6640   -4.0580 C.3   201  LEU201      0.0001
     43  N         12.6810   62.8260   -1.2720 N.3   204  VAL204     -0.1231
     44  CA        12.2610   62.1750   -0.0450 C.3   204  VAL204      0.1692
     45  C         13.4260   62.1640    0.9750 C.2   204  VAL204      0.2591
     46  O         13.2270   62.4190    2.1820 O.2   204  VAL204     -0.2718
     47  CB        11.7320   60.7230   -0.3040 C.3   204  VAL204      0.0266
     48  CG1       11.5210   60.0100    0.9920 C.3   204  VAL204      0.0020
     49  CG2       10.4530   60.7400   -1.1450 C.3   204  VAL204      0.0020
     50  N         14.6220   61.8370    0.5090 N.am  205  LEU205     -0.1980
     51  CA        15.8090   61.8780    1.3650 C.3   205  LEU205      0.1596
     52  C         16.1330   63.2890    1.9030 C.2   205  LEU205      0.2287
     53  O         16.4410   63.4430    3.0960 O.2   205  LEU205     -0.2864
     54  CB        17.0320   61.2670    0.6370 C.3   205  LEU205      0.0297
     55  CG        17.0160   59.7400    0.3160 C.3   205  LEU205      0.0022
     56  CD1       18.1990   59.4210   -0.6120 C.3   205  LEU205      0.0001
     57  CD2       17.0280   58.8900    1.5710 C.3   205  LEU205      0.0001
     58  N         13.4710   64.4930    4.4090 N.3   208  SER208     -0.1217
     59  CA        13.6500   63.7260    5.6380 C.3   208  SER208      0.1889
     60  C         14.9370   64.1290    6.4150 C.2   208  SER208      0.2288
     61  O         14.8810   64.3160    7.6220 O.2   208  SER208     -0.2866
     62  CB        13.6170   62.2070    5.3770 C.3   208  SER208      0.2089
     63  OG        12.4390   61.8100    4.6850 O.3   208  SER208     -0.2183
     64  N         12.6110   66.7050    8.4680 N.3   212  GLY212     -0.1225
     65  CA        12.3950   65.6410    9.4340 C.3   212  GLY212      0.1811
     66  C         13.3580   65.7160   10.6130 C.2   212  GLY212      0.2280
     67  O         12.9460   65.7980   11.7700 O.2   212  GLY212     -0.2866
     68  N         12.5420   66.8480   14.7260 N.3   216  ILE216     -0.1245
     69  CA        12.9700   66.1130   15.9040 C.3   216  ILE216      0.1561
     70  C         13.7860   66.9850   16.8520 C.2   216  ILE216      0.2260
     71  O         13.5640   66.9980   18.0660 O.2   216  ILE216     -0.2867
     72  CB        13.7780   64.8240   15.5380 C.3   216  ILE216      0.0252
     73  CG1       12.9300   63.8800   14.6910 C.3   216  ILE216      0.0019
     74  CG2       14.2390   64.1290   16.8180 C.3   216  ILE216      0.0019
     75  CD1       13.6670   62.8300   13.8800 C.3   216  ILE216      0.0001
@<TRIPOS>BOND
     1    31    30    2
     2    30    29    1
     3    33    32    1
     4    41    40    1
     5    29    32    1
     6    29    28    1
     7    35    36    1
     8    40    39    1
     9    40    42    1
    10    32    34    1
    11    39    36    1
    12    36    37    1
    13    37    38    2
    14    26    25    2
    15    43    44    1
    16    49    47    1
    17    56    55    1
    18    47    44    1
    19    47    48    1
    20    25    24    1
    21    44    45    1
    22    55    54    1
    23    55    57    1
    24    50    45   am
    25    50    51    1
    26    54    51    1
    27    24    27    1
    28    24    23    1
    29    45    46    2
    30    51    52    1
    31    52    53    2
    32    18    17    2
    33    58    59    1
    34    17    16    1
    35    63    62    1
    36    22    20    1
    37    11    10    2
    38    62    59    1
    39    16    19    1
    40    16    15    1
    41    59    60    1
    42    19    20    1
    43    20    21    1
    44    60    61    2
    45    10    15   am
    46    10     9    1
    47    13    12    1
    48     9    12    1
    49     9     8    1
    50    12    14    1
    51    64    65    1
    52     4     3    2
    53    65    66    1
    54     3     2    1
    55     6     5    1
    56    66    67    2
    57     2     5    1
    58     2     1    1
    59     5     7    1
    60    75    73    1
    61    73    72    1
    62    68    69    1
    63    72    69    1
    64    72    74    1
    65    69    70    1
    66    70    71    2
