@<TRIPOS>MOLECULE
tmp/5b36A01.pdb
 94 88 0 0 0
SMALL
GASTEIGER

@<TRIPOS>ATOM
      1  N         40.3100    1.0510   -2.9830 N.3   126  LYS126     -0.1245
      2  CA        39.8620    0.2130   -1.8630 C.3   126  LYS126      0.1561
      3  C         40.4090   -1.2150   -1.7570 C.2   126  LYS126      0.2260
      4  O         40.2380   -1.8810   -0.7450 O.2   126  LYS126     -0.2867
      5  CB        38.3150    0.1950   -1.7580 C.3   126  LYS126      0.0271
      6  CG        37.7120    1.5890   -1.4910 C.3   126  LYS126      0.0035
      7  CD        38.5300    2.2010   -0.3200 C.3   126  LYS126      0.0206
      8  CE        37.7150    2.9480    0.6510 C.3   126  LYS126      0.1093
      9  NZ        37.0220    3.8320   -0.3680 N.3   126  LYS126     -0.1314
     10  N         29.7370    0.8350    3.6490 N.3   151  THR151     -0.1203
     11  CA        30.4720    1.3160    2.4510 C.3   151  THR151      0.1994
     12  C         29.6160    2.1740    1.5030 C.2   151  THR151      0.2618
     13  O         28.3550    1.9670    1.4490 O.2   151  THR151     -0.2717
     14  CB        31.0060    0.0840    1.6440 C.3   151  THR151      0.1784
     15  OG1       31.7780    0.5200    0.5310 O.3   151  THR151     -0.2211
     16  CG2       29.8720   -0.7390    1.1320 C.3   151  THR151      0.0376
     17  N         30.2790    3.0960    0.7580 N.am  152  SER152     -0.1951
     18  CA        29.6370    3.8050   -0.3910 C.3   152  SER152      0.1924
     19  C         29.4670    2.9220   -1.6510 C.2   152  SER152      0.2314
     20  O         28.5810    3.2270   -2.4880 O.2   152  SER152     -0.2863
     21  CB        30.3590    5.1170   -0.7640 C.3   152  SER152      0.2116
     22  OG        31.7930    4.9160   -0.8350 O.3   152  SER152     -0.2180
     23  N         32.7400    0.9210   -3.2010 N.3   154  ASN154     -0.1225
     24  CA        34.0190    0.2660   -3.4760 C.3   154  ASN154      0.1785
     25  C         34.5410   -0.7330   -2.4200 C.2   154  ASN154      0.2597
     26  O         34.8920   -1.8930   -2.7270 O.2   154  ASN154     -0.2718
     27  CB        35.0740    1.3230   -3.8460 C.3   154  ASN154      0.1169
     28  CG        34.9220    1.7940   -5.2800 C.2   154  ASN154      0.2627
     29  OD1       34.6110    0.9790   -6.2100 O.2   154  ASN154     -0.2716
     30  ND2       35.1360    3.1050   -5.5030 N.am  154  ASN154     -0.0877
     31  N         34.6090   -0.2730   -1.1740 N.am  155  PHE155     -0.1976
     32  CA        35.1670   -1.0530   -0.1100 C.3   155  PHE155      0.1639
     33  C         34.3810   -2.3680    0.0880 C.2   155  PHE155      0.2290
     34  O         34.9650   -3.4160    0.3900 O.2   155  PHE155     -0.2864
     35  CB        35.2160   -0.2430    1.1820 C.3   155  PHE155      0.0560
     36  CG        35.8930   -0.9850    2.3120 C.ar  155  PHE155     -0.0200
     37  CD1       37.2690   -1.3340    2.1990 C.ar  155  PHE155     -0.0042
     38  CD2       35.1960   -1.3660    3.4570 C.ar  155  PHE155     -0.0042
     39  CE1       37.9310   -2.0790    3.2010 C.ar  155  PHE155     -0.0003
     40  CE2       35.8680   -2.1430    4.4510 C.ar  155  PHE155     -0.0003
     41  CZ        37.2620   -2.4830    4.2970 C.ar  155  PHE155     -0.0000
     42  N         26.9620    6.9890    4.0780 N.3   202  THR202     -0.1218
     43  CA        27.6820    5.8180    4.6350 C.3   202  THR202      0.1862
     44  C         27.9140    5.8670    6.1470 C.2   202  THR202      0.2287
     45  O         27.5980    4.8770    6.8380 O.2   202  THR202     -0.2866
     46  CB        29.0530    5.6400    3.9340 C.3   202  THR202      0.1770
     47  OG1       28.8230    5.6340    2.5250 O.3   202  THR202     -0.2211
     48  CG2       29.7530    4.3470    4.3990 C.3   202  THR202      0.0375
     49  N         36.5040    0.4060    8.4310 N.3   223  GLN223     -0.1231
     50  CA        37.4660    1.1320    7.5940 C.3   223  GLN223      0.1698
     51  C         37.6780    2.6070    8.0450 C.2   223  GLN223      0.2592
     52  O         38.7500    3.2070    7.7860 O.2   223  GLN223     -0.2718
     53  CB        37.0030    1.0340    6.1280 C.3   223  GLN223      0.0381
     54  CG        35.6310    1.7400    5.8450 C.3   223  GLN223      0.0905
     55  CD        35.3840    1.9840    4.3770 C.2   223  GLN223      0.2608
     56  OE1       36.3090    2.1820    3.6210 O.2   223  GLN223     -0.2717
     57  NE2       34.1440    1.9490    3.9640 N.am  223  GLN223     -0.0878
     58  N         36.6730    3.1730    8.7460 N.am  224  PHE224     -0.1976
     59  CA        36.7030    4.5750    9.2070 C.3   224  PHE224      0.1639
     60  C         37.6450    4.7760   10.4200 C.2   224  PHE224      0.2290
     61  O         38.0850    5.9030   10.7300 O.2   224  PHE224     -0.2864
     62  CB        35.2470    5.0800    9.5260 C.3   224  PHE224      0.0560
     63  CG        34.4200    5.2730    8.2820 C.ar  224  PHE224     -0.0200
     64  CD1       34.4760    6.4700    7.5900 C.ar  224  PHE224     -0.0042
     65  CD2       33.6700    4.2160    7.7560 C.ar  224  PHE224     -0.0042
     66  CE1       33.7880    6.6310    6.4080 C.ar  224  PHE224     -0.0003
     67  CE2       32.9820    4.3390    6.5740 C.ar  224  PHE224     -0.0003
     68  CZ        33.0260    5.5760    5.8910 C.ar  224  PHE224     -0.0000
     69  N         37.4110   10.1180    1.8180 N.3   260  GLY260     -0.1210
     70  CA        36.3100    9.2720    2.2410 C.3   260  GLY260      0.1956
     71  C         36.5480    9.0180    3.7320 C.2   260  GLY260      0.2612
     72  O         36.1370    9.8600    4.5920 O.2   260  GLY260     -0.2717
     73  N         37.2060    7.8850    4.0410 N.am  261  THR261     -0.1952
     74  CA        37.8040    7.6170    5.3620 C.3   261  THR261      0.1897
     75  C         38.9940    8.5410    5.7040 C.2   261  THR261      0.2313
     76  O         39.3060    8.7640    6.9030 O.2   261  THR261     -0.2863
     77  CB        38.3340    6.1450    5.4670 C.3   261  THR261      0.1794
     78  OG1       39.4960    5.9690    4.6430 O.3   261  THR261     -0.2208
     79  CG2       37.2300    5.0840    4.9800 C.3   261  THR261      0.0378
     80  N         31.4420    8.3880   -2.9290 N.3   294  GLY294     -0.1225
     81  CA        32.5870    7.8000   -2.2610 C.3   294  GLY294      0.1811
     82  C         33.2900    8.7950   -1.3440 C.2   294  GLY294      0.2280
     83  O         34.1870    8.3950   -0.6020 O.2   294  GLY294     -0.2866
     84  N         33.4930   12.8270    1.0530 N.3   296  ARG296     -0.1245
     85  CA        32.8420   13.5760    2.1600 C.3   296  ARG296      0.1563
     86  C         33.5880   14.8490    2.4550 C.2   296  ARG296      0.2260
     87  O         34.7800   14.9430    2.1350 O.2   296  ARG296     -0.2867
     88  CB        32.8750   12.7680    3.4920 C.3   296  ARG296      0.0307
     89  CG        32.0630   11.4710    3.5440 C.3   296  ARG296      0.0489
     90  CD        32.7440   10.5130    4.5150 C.3   296  ARG296      0.2205
     91  NE        32.4770   10.9420    5.8670 N.pl3 296  ARG296     -0.0865
     92  CZ        33.2870   10.8280    6.9130 C.cat 296  ARG296      0.5346
     93  NH1       34.4930   10.2860    6.8400 N.pl3 296  ARG296      0.1354
     94  NH2       32.8530   11.2630    8.0690 N.pl3 296  ARG296      0.1354
@<TRIPOS>BOND
     1    29    28    2
     2    30    28   am
     3    28    27    1
     4    27    24    1
     5    24    23    1
     6    24    25    1
     7     1     2    1
     8    80    81    1
     9    26    25    2
    10    20    19    2
    11    25    31   am
    12    81    82    1
    13     2     5    1
    14     2     3    1
    15     5     6    1
    16     3     4    2
    17    19    18    1
    18     6     7    1
    19    82    83    2
    20    31    32    1
    21    22    21    1
    22    21    18    1
    23    18    17    1
    24     9     8    1
    25     7     8    1
    26    32    33    1
    27    32    35    1
    28    33    34    2
    29    15    14    1
    30    17    12   am
    31    84    85    1
    32    16    14    1
    33    35    36    1
    34    13    12    2
    35    12    11    1
    36    14    11    1
    37    69    70    1
    38    87    86    2
    39    85    86    1
    40    85    88    1
    41    37    36   ar
    42    37    39   ar
    43    70    71    1
    44    36    38   ar
    45    11    10    1
    46    47    46    1
    47    39    41   ar
    48    38    40   ar
    49    88    89    1
    50    89    90    1
    51    56    55    2
    52    71    73   am
    53    71    72    2
    54    46    48    1
    55    46    43    1
    56    57    55   am
    57    73    74    1
    58    42    43    1
    59    41    40   ar
    60    55    54    1
    61    90    91    1
    62    43    44    1
    63    78    77    1
    64    79    77    1
    65    74    77    1
    66    74    75    1
    67    75    76    2
    68    54    53    1
    69    91    92    2
    70    68    66   ar
    71    68    67   ar
    72    53    50    1
    73    44    45    2
    74    66    64   ar
    75    67    65   ar
    76    93    92    1
    77    92    94    1
    78    64    63   ar
    79    50    51    1
    80    50    49    1
    81    65    63   ar
    82    52    51    2
    83    51    58   am
    84    63    62    1
    85    58    59    1
    86    59    62    1
    87    59    60    1
    88    60    61    2
