@<TRIPOS>MOLECULE
tmp/5b3iD00.pdb
 230 220 0 0 0
SMALL
GASTEIGER

@<TRIPOS>ATOM
      1  N        -36.6240  -31.6770    5.6590 N.3     9  VAL9       -0.1245
      2  CA       -37.9410  -31.7030    5.0190 C.3     9  VAL9        0.1561
      3  C        -38.8610  -32.6500    5.7970 C.2     9  VAL9        0.2260
      4  O        -40.0130  -32.3340    6.1220 O.2     9  VAL9       -0.2867
      5  CB       -37.8700  -32.1710    3.5410 C.3     9  VAL9        0.0252
      6  CG1      -39.2760  -32.2510    2.9560 C.3     9  VAL9        0.0019
      7  CG2      -36.9920  -31.2480    2.6980 C.3     9  VAL9        0.0019
      8  N        -40.0260  -31.1240    9.1600 N.3    12  ARG12      -0.1231
      9  CA       -40.9400  -29.9990    9.0490 C.3    12  ARG12       0.1694
     10  C        -42.2840  -30.4820    8.5100 C.2    12  ARG12       0.2591
     11  O        -43.3060  -30.0760    9.0070 O.2    12  ARG12      -0.2718
     12  CB       -40.3420  -28.8510    8.2130 C.3    12  ARG12       0.0321
     13  CG       -40.2250  -29.0140    6.6990 C.3    12  ARG12       0.0489
     14  CD       -39.2360  -27.9660    6.1240 C.3    12  ARG12       0.2205
     15  NE       -39.2120  -27.9230    4.6600 N.pl3  12  ARG12      -0.0865
     16  CZ       -38.1480  -27.5630    3.9320 C.cat  12  ARG12       0.5346
     17  NH1      -37.0100  -27.2740    4.5440 N.pl3  12  ARG12       0.1354
     18  NH2      -38.1980  -27.5470    2.5940 N.pl3  12  ARG12       0.1354
     19  N        -42.2970  -31.3840    7.5440 N.am   13  GLN13      -0.1979
     20  CA       -43.5740  -31.9750    7.1080 C.3    13  GLN13       0.1601
     21  C        -44.3070  -32.6760    8.2550 C.2    13  GLN13       0.2287
     22  O        -45.5210  -32.5430    8.3950 O.2    13  GLN13      -0.2864
     23  CB       -43.3370  -32.9500    5.9440 C.3    13  GLN13       0.0394
     24  CG       -42.9460  -32.2190    4.6510 C.3    13  GLN13       0.0908
     25  CD       -42.5370  -33.1610    3.5170 C.2    13  GLN13       0.2608
     26  OE1      -42.1840  -34.3260    3.7520 O.2    13  GLN13      -0.2717
     27  NE2      -42.5760  -32.6570    2.2850 N.am   13  GLN13      -0.0878
     28  N        -45.9200  -29.9820   10.6180 N.3    16  TYR16      -0.1227
     29  CA       -47.1470  -29.3940   10.1090 C.3    16  TYR16       0.1736
     30  C        -48.3180  -30.4030   10.1730 C.2    16  TYR16       0.2596
     31  O        -49.3780  -30.0820   10.4970 O.2    16  TYR16      -0.2718
     32  CB       -46.9590  -28.8210    8.6930 C.3    16  TYR16       0.0548
     33  CG       -46.0070  -27.6640    8.6190 C.ar   16  TYR16      -0.0200
     34  CD1      -46.3050  -26.4670    9.1830 C.ar   16  TYR16      -0.0009
     35  CD2      -44.8120  -27.7920    8.0060 C.ar   16  TYR16      -0.0009
     36  CE1      -45.4440  -25.4140    9.0870 C.ar   16  TYR16       0.0417
     37  CE2      -43.9270  -26.7500    7.9000 C.ar   16  TYR16       0.0417
     38  CZ       -44.2160  -25.5690    8.4650 C.ar   16  TYR16       0.1957
     39  OH       -43.3150  -24.5510    8.3500 O.3    16  TYR16      -0.2866
     40  N        -48.0370  -31.6200    9.8030 N.am   17  THR17      -0.1953
     41  CA       -49.0680  -32.6540    9.7160 C.3    17  THR17       0.1897
     42  C        -49.5830  -33.0310   11.1010 C.2    17  THR17       0.2313
     43  O        -50.7800  -33.2850   11.2860 O.2    17  THR17      -0.2863
     44  CB       -48.5490  -33.8700    8.9340 C.3    17  THR17       0.1794
     45  OG1      -48.5190  -33.5020    7.5540 O.3    17  THR17      -0.2208
     46  CG2      -49.4920  -35.0890    9.0730 C.3    17  THR17       0.0378
     47  N        -49.7120  -30.8330   13.5140 N.3    19  MET19      -0.1230
     48  CA       -50.6010  -29.7110   13.7640 C.3    19  MET19       0.1702
     49  C        -51.9640  -29.8510   13.0720 C.2    19  MET19       0.2592
     50  O        -53.0180  -29.5220   13.6690 O.2    19  MET19      -0.2718
     51  CB       -49.9190  -28.4020   13.3600 C.3    19  MET19       0.0401
     52  CG       -48.8260  -27.9780   14.3920 C.3    19  MET19       0.0596
     53  SD       -48.3870  -26.2160   14.2860 S.3    19  MET19      -0.1393
     54  CE       -47.6190  -26.1430   12.6620 C.3    19  MET19       0.0692
     55  N        -51.9730  -30.3640   11.8430 N.am   20  ALA20      -0.1980
     56  CA       -53.2350  -30.5550   11.1280 C.3    20  ALA20       0.1597
     57  C        -54.1240  -31.5410   11.8560 C.2    20  ALA20       0.2287
     58  O        -55.3180  -31.3190   11.9560 O.2    20  ALA20      -0.2864
     59  CB       -52.9900  -31.0390    9.6620 C.3    20  ALA20       0.0319
     60  N        -55.4590  -29.7150   14.8510 N.3    23  MET23      -0.1245
     61  CA       -56.4170  -28.6970   14.3940 C.3    23  MET23       0.1570
     62  C        -57.7610  -29.3480   14.0120 C.2    23  MET23       0.2261
     63  O        -58.8490  -28.8220   14.3270 O.2    23  MET23      -0.2867
     64  CB       -55.8520  -27.8860   13.2070 C.3    23  MET23       0.0387
     65  CG       -54.7080  -26.9000   13.5680 C.3    23  MET23       0.0595
     66  SD       -55.2760  -25.3740   14.3590 S.3    23  MET23      -0.1393
     67  CE       -56.0100  -24.4640   12.9870 C.3    23  MET23       0.0692
     68  N        -50.4870  -27.4740   19.2000 N.3    49  ILE49      -0.1245
     69  CA       -50.3970  -26.4210   18.1930 C.3    49  ILE49       0.1561
     70  C        -49.5320  -25.2650   18.6940 C.2    49  ILE49       0.2260
     71  O        -48.6400  -24.7950   17.9720 O.2    49  ILE49      -0.2867
     72  CB       -51.8040  -25.9460   17.7620 C.3    49  ILE49       0.0252
     73  CG1      -52.5580  -27.1360   17.1090 C.3    49  ILE49       0.0019
     74  CG2      -51.6890  -24.7320   16.7910 C.3    49  ILE49       0.0019
     75  CD1      -54.0950  -27.0650   17.1620 C.3    49  ILE49       0.0001
     76  N        -35.1630  -24.8560    7.8180 N.3    61  TYR61      -0.1241
     77  CA       -35.1930  -24.2290    6.4970 C.3    61  TYR61       0.1605
     78  C        -33.8370  -23.7250    6.0400 C.2    61  TYR61       0.2264
     79  O        -33.2620  -22.8130    6.6420 O.2    61  TYR61      -0.2867
     80  CB       -36.1920  -23.0740    6.4780 C.3    61  TYR61       0.0534
     81  CG       -37.6160  -23.5820    6.4310 C.ar   61  TYR61      -0.0201
     82  CD1      -38.2100  -23.9070    5.2280 C.ar   61  TYR61      -0.0009
     83  CD2      -38.3230  -23.8130    7.5940 C.ar   61  TYR61      -0.0009
     84  CE1      -39.5080  -24.3990    5.1740 C.ar   61  TYR61       0.0417
     85  CE2      -39.6060  -24.3090    7.5670 C.ar   61  TYR61       0.0417
     86  CZ       -40.2040  -24.6040    6.3610 C.ar   61  TYR61       0.1957
     87  OH       -41.4930  -25.0970    6.3160 O.3    61  TYR61      -0.2866
     88  N        -40.9100  -36.9230    3.4640 N.3    71  PHE71      -0.1227
     89  CA       -41.8830  -37.9650    3.2130 C.3    71  PHE71       0.1736
     90  C        -42.3270  -37.8510    1.7540 C.2    71  PHE71       0.2595
     91  O        -42.7190  -38.8340    1.1100 O.2    71  PHE71      -0.2718
     92  CB       -43.0570  -37.8510    4.1710 C.3    71  PHE71       0.0547
     93  CG       -42.6870  -38.1780    5.5770 C.ar   71  PHE71      -0.0202
     94  CD1      -42.1310  -39.4120    5.8820 C.ar   71  PHE71      -0.0042
     95  CD2      -42.8340  -37.2400    6.5860 C.ar   71  PHE71      -0.0042
     96  CE1      -41.7600  -39.7260    7.1900 C.ar   71  PHE71      -0.0003
     97  CE2      -42.4800  -37.5450    7.8990 C.ar   71  PHE71      -0.0003
     98  CZ       -41.9370  -38.7900    8.1960 C.ar   71  PHE71      -0.0000
     99  N        -42.3170  -36.6240    1.2620 N.am   72  LYS72      -0.1980
    100  CA       -42.6050  -36.3720   -0.1260 C.3    72  LYS72       0.1596
    101  C        -41.8760  -35.1130   -0.5420 C.2    72  LYS72       0.2287
    102  O        -41.3700  -34.3730    0.3060 O.2    72  LYS72      -0.2864
    103  CB       -44.1150  -36.2650   -0.3520 C.3    72  LYS72       0.0298
    104  CG       -44.7770  -35.0400    0.2210 C.3    72  LYS72       0.0038
    105  CD       -46.3050  -35.1610    0.1330 C.3    72  LYS72       0.0206
    106  CE       -46.9800  -33.9510    0.7290 C.3    72  LYS72       0.1093
    107  NZ       -48.4380  -34.1980    0.8670 N.3    72  LYS72      -0.1314
    108  N        -40.6480  -31.6730   -1.1950 N.3    74  SER74      -0.1202
    109  CA       -41.0060  -30.4850   -0.4370 C.3    74  SER74       0.2020
    110  C        -41.8430  -29.5580   -1.2910 C.2    74  SER74       0.2619
    111  O        -41.5280  -29.3270   -2.4680 O.2    74  SER74      -0.2717
    112  CB       -39.7750  -29.7520    0.0650 C.3    74  SER74       0.2103
    113  OG       -40.1800  -28.5850    0.7490 O.3    74  SER74      -0.2182
    114  N        -42.9040  -29.0300   -0.6950 N.am   75  ARG75      -0.1965
    115  CA       -43.7790  -28.1030   -1.3880 C.3    75  ARG75       0.1729
    116  C        -43.3890  -26.6530   -1.0880 C.2    75  ARG75       0.2616
    117  O        -44.1130  -25.7190   -1.4370 O.2    75  ARG75      -0.2715
    118  CB       -45.2380  -28.3540   -0.9880 C.3    75  ARG75       0.0348
    119  CG       -45.7340  -29.7700   -1.2830 C.3    75  ARG75       0.0492
    120  CD       -47.1200  -30.0060   -0.6760 C.3    75  ARG75       0.2205
    121  NE       -48.1310  -29.0450   -1.1420 N.pl3  75  ARG75      -0.0865
    122  CZ       -49.2910  -28.8260   -0.5240 C.cat  75  ARG75       0.5346
    123  NH1      -49.5900  -29.4860    0.5960 N.pl3  75  ARG75       0.1354
    124  NH2      -50.1440  -27.9420   -1.0110 N.pl3  75  ARG75       0.1354
    125  N        -42.2230  -26.4670   -0.4720 N.am   76  LEU76      -0.1977
    126  CA       -41.7150  -25.1280   -0.1840 C.3    76  LEU76       0.1596
    127  C        -41.4390  -24.3180   -1.4630 C.2    76  LEU76       0.2287
    128  O        -40.8370  -24.8390   -2.3900 O.2    76  LEU76      -0.2864
    129  CB       -40.4250  -25.2230    0.6260 C.3    76  LEU76       0.0297
    130  CG       -39.7970  -23.8630    0.9370 C.3    76  LEU76       0.0022
    131  CD1      -40.6710  -23.0800    1.9170 C.3    76  LEU76       0.0001
    132  CD2      -38.3900  -23.9600    1.4490 C.3    76  LEU76       0.0001
    133  N        -39.5420  -17.9440   -0.2660 N.3    80  PHE80      -0.1241
    134  CA       -39.3810  -18.0090    1.1830 C.3    80  PHE80       0.1605
    135  C        -38.0500  -17.3620    1.5950 C.2    80  PHE80       0.2264
    136  O        -38.0080  -16.5470    2.5140 O.2    80  PHE80      -0.2867
    137  CB       -39.4630  -19.4780    1.6370 C.3    80  PHE80       0.0534
    138  CG       -39.2220  -19.7000    3.1120 C.ar   80  PHE80      -0.0203
    139  CD1      -40.2610  -19.6050    4.0330 C.ar   80  PHE80      -0.0042
    140  CD2      -37.9630  -20.0540    3.5690 C.ar   80  PHE80      -0.0042
    141  CE1      -40.0430  -19.8280    5.3970 C.ar   80  PHE80      -0.0003
    142  CE2      -37.7240  -20.2770    4.9340 C.ar   80  PHE80      -0.0003
    143  CZ       -38.7660  -20.1560    5.8510 C.ar   80  PHE80      -0.0000
    144  N        -41.8550  -13.8210    6.4300 N.3    87  VAL87      -0.1245
    145  CA       -41.8460  -15.0470    7.1950 C.3    87  VAL87       0.1561
    146  C        -41.8740  -14.7420    8.6970 C.2    87  VAL87       0.2260
    147  O        -42.7100  -15.3010    9.4440 O.2    87  VAL87      -0.2867
    148  CB       -40.6050  -15.8830    6.8870 C.3    87  VAL87       0.0252
    149  CG1      -40.5050  -17.0770    7.8590 C.3    87  VAL87       0.0019
    150  CG2      -40.6090  -16.3330    5.4200 C.3    87  VAL87       0.0019
    151  N        -45.2990  -13.3840    9.7320 N.3    90  ILE90      -0.1231
    152  CA       -46.3090  -14.4400    9.7700 C.3    90  ILE90       0.1692
    153  C        -46.0970  -15.4020   10.9390 C.2    90  ILE90       0.2591
    154  O        -47.0430  -15.7330   11.6510 O.2    90  ILE90      -0.2718
    155  CB       -46.3290  -15.2090    8.4400 C.3    90  ILE90       0.0266
    156  CG1      -46.8480  -14.2850    7.3310 C.3    90  ILE90       0.0019
    157  CG2      -47.1630  -16.4860    8.5630 C.3    90  ILE90       0.0020
    158  CD1      -46.7000  -14.8470    5.9530 C.3    90  ILE90       0.0001
    159  N        -44.8540  -15.8390   11.1310 N.am   91  ALA91      -0.1980
    160  CA       -44.5330  -16.7660   12.1900 C.3    91  ALA91       0.1597
    161  C        -44.8580  -16.1370   13.5290 C.2    91  ALA91       0.2287
    162  O        -45.3080  -16.8280   14.4290 O.2    91  ALA91      -0.2864
    163  CB       -43.0900  -17.1840   12.1410 C.3    91  ALA91       0.0319
    164  N        -48.5360  -16.1550   14.1030 N.3    94  PHE94      -0.1241
    165  CA       -48.8970  -17.5440   14.3950 C.3    94  PHE94       0.1605
    166  C        -48.6420  -17.8920   15.8830 C.2    94  PHE94       0.2264
    167  O        -49.5210  -18.4440   16.5460 O.2    94  PHE94      -0.2867
    168  CB       -48.1480  -18.4930   13.4460 C.3    94  PHE94       0.0534
    169  CG       -48.4180  -19.9550   13.7020 C.ar   94  PHE94      -0.0203
    170  CD1      -49.7280  -20.4190   13.8550 C.ar   94  PHE94      -0.0042
    171  CD2      -47.3830  -20.8750   13.7180 C.ar   94  PHE94      -0.0042
    172  CE1      -49.9980  -21.7550   14.0760 C.ar   94  PHE94      -0.0003
    173  CE2      -47.6540  -22.2340   13.9290 C.ar   94  PHE94      -0.0003
    174  CZ       -48.9650  -22.6660   14.1200 C.ar   94  PHE94      -0.0000
    175  N        -56.2160  -18.6940   14.4590 N.3   120  VAL120     -0.1245
    176  CA       -55.0510  -19.5290   14.1950 C.3   120  VAL120      0.1561
    177  C        -55.0950  -20.0380   12.7580 C.2   120  VAL120      0.2260
    178  O        -54.1050  -19.9520   12.0080 O.2   120  VAL120     -0.2867
    179  CB       -54.9690  -20.6860   15.1840 C.3   120  VAL120      0.0252
    180  CG1      -53.8850  -21.6870   14.7500 C.3   120  VAL120      0.0019
    181  CG2      -54.6850  -20.1390   16.5580 C.3   120  VAL120      0.0019
    182  N        -53.5640  -17.8080   10.3150 N.3   123  ALA123     -0.1231
    183  CA       -52.1140  -17.7390   10.3360 C.3   123  ALA123      0.1694
    184  C        -51.5320  -18.8780    9.4870 C.2   123  ALA123      0.2592
    185  O        -50.6000  -18.6530    8.6940 O.2   123  ALA123     -0.2718
    186  CB       -51.5910  -17.7900   11.7840 C.3   123  ALA123      0.0304
    187  N        -52.0980  -20.0760    9.6400 N.am  124  CYS124     -0.1970
    188  CA       -51.7470  -21.2190    8.7900 C.3   124  CYS124      0.1712
    189  C        -51.8870  -20.8470    7.3200 C.2   124  CYS124      0.2296
    190  O        -50.9410  -21.0630    6.5300 O.2   124  CYS124     -0.2864
    191  CB       -52.6400  -22.4640    9.0850 C.3   124  CYS124      0.0983
    192  SG       -52.7940  -23.0120   10.8210 S.3   124  CYS124     -0.0798
    193  N        -49.2950  -18.2540    5.8170 N.3   127  CYS127     -0.1221
    194  CA       -47.9700  -18.7280    5.3980 C.3   127  CYS127      0.1808
    195  C        -48.0560  -19.5400    4.1170 C.2   127  CYS127      0.2601
    196  O        -47.2380  -19.3770    3.2190 O.2   127  CYS127     -0.2717
    197  CB       -47.2940  -19.5600    6.4950 C.3   127  CYS127      0.0970
    198  SG       -45.5680  -19.8710    6.1430 S.3   127  CYS127     -0.0800
    199  N        -49.0460  -20.4170    4.0390 N.am  128  HIS128     -0.1975
    200  CA       -49.2290  -21.2690    2.8740 C.3   128  HIS128      0.1656
    201  C        -49.4330  -20.4380    1.6050 C.2   128  HIS128      0.2291
    202  O        -48.8780  -20.7580    0.5490 O.2   128  HIS128     -0.2864
    203  CB       -50.3990  -22.2240    3.0940 C.3   128  HIS128      0.0771
    204  CG       -50.1850  -23.1740    4.2280 C.ar  128  HIS128      0.0820
    205  ND1      -51.2230  -23.7610    4.9100 N.ar  128  HIS128     -0.2267
    206  CD2      -49.0430  -23.6280    4.8080 C.ar  128  HIS128      0.1154
    207  CE1      -50.7360  -24.5370    5.8670 C.ar  128  HIS128      0.1986
    208  NE2      -49.4190  -24.4600    5.8410 N.ar  128  HIS128     -0.2212
    209  N        -45.8910  -19.0950    0.6900 N.3   131  PHE131     -0.1227
    210  CA       -44.6830  -19.9140    0.6590 C.3   131  PHE131      0.1736
    211  C        -44.8660  -21.4050    0.3690 C.2   131  PHE131      0.2595
    212  O        -43.8880  -22.1410    0.3370 O.2   131  PHE131     -0.2718
    213  CB       -43.9320  -19.7210    1.9900 C.3   131  PHE131      0.0547
    214  CG       -43.5720  -18.2880    2.2590 C.ar  131  PHE131     -0.0202
    215  CD1      -42.7980  -17.5780    1.3550 C.ar  131  PHE131     -0.0042
    216  CD2      -44.0050  -17.6400    3.4120 C.ar  131  PHE131     -0.0042
    217  CE1      -42.4670  -16.2720    1.5870 C.ar  131  PHE131     -0.0003
    218  CE2      -43.6700  -16.3210    3.6460 C.ar  131  PHE131     -0.0003
    219  CZ       -42.8980  -15.6390    2.7240 C.ar  131  PHE131     -0.0000
    220  N        -46.0960  -21.8590    0.1490 N.am  132  ARG132     -0.1980
    221  CA       -46.3180  -23.2850   -0.0860 C.3   132  ARG132      0.1597
    222  C        -47.0310  -23.5130   -1.4180 C.2   132  ARG132      0.2287
    223  O        -48.0570  -22.8840   -1.6940 O.2   132  ARG132     -0.2864
    224  CB       -47.1200  -23.9180    1.0790 C.3   132  ARG132      0.0334
    225  CG       -47.2620  -25.4460    0.9850 C.3   132  ARG132      0.0492
    226  CD       -48.1840  -26.0400    2.0460 C.3   132  ARG132      0.2205
    227  NE       -49.6030  -25.7750    1.7850 N.pl3 132  ARG132     -0.0865
    228  CZ       -50.6070  -26.2330    2.5280 C.cat 132  ARG132      0.5346
    229  NH1      -50.3610  -26.9540    3.6190 N.pl3 132  ARG132      0.1354
    230  NH2      -51.8580  -25.9500    2.2030 N.pl3 132  ARG132      0.1354
@<TRIPOS>BOND
     1   111   110    2
     2   128   127    2
     3   223   222    2
     4   127   126    1
     5   117   116    2
     6   222   221    1
     7   115   116    1
     8   115   118    1
     9   115   114    1
    10   110   114   am
    11   110   109    1
    12   119   118    1
    13   119   120    1
    14   108   109    1
    15   121   120    1
    16   121   122    2
    17   116   125   am
    18   124   122    1
    19   101   100    1
    20   101   102    2
    21   122   123    1
    22   125   126    1
    23   109   112    1
    24   103   100    1
    25   103   104    1
    26   133   134    1
    27   126   129    1
    28   100    99    1
    29   221   220    1
    30   221   224    1
    31   112   113    1
    32   105   104    1
    33   105   106    1
    34   220   211   am
    35   212   211    2
    36   211   210    1
    37   202   201    2
    38   129   130    1
    39   210   209    1
    40   210   213    1
    41   106   107    1
    42   130   132    1
    43   130   131    1
    44   225   224    1
    45   225   226    1
    46    91    90    2
    47   134   135    1
    48   134   137    1
    49    99    90   am
    50   215   217   ar
    51   215   214   ar
    52   217   219   ar
    53   135   136    2
    54   201   200    1
    55   137   138    1
    56    90    89    1
    57   227   226    1
    58   227   228    2
    59   213   214    1
    60   230   228    1
    61   214   216   ar
    62    27    25   am
    63   228   229    1
    64    18    16    1
    65     7     5    1
    66   219   218   ar
    67   200   203    1
    68   200   199    1
    69     6     5    1
    70   203   204    1
    71   138   140   ar
    72   138   139   ar
    73    89    88    1
    74    89    92    1
    75   196   195    2
    76   216   218   ar
    77    25    26    2
    78    25    24    1
    79     5     2    1
    80   140   142   ar
    81    16    17    1
    82    16    15    2
    83   139   141   ar
    84   199   195   am
    85   195   194    1
    86    92    93    1
    87   204   206   ar
    88   204   205   ar
    89    24    23    1
    90    15    14    1
    91   206   208   ar
    92   205   207   ar
    93   142   143   ar
    94     2     1    1
    95     2     3    1
    96    84    82   ar
    97    84    86   ar
    98    82    81   ar
    99   141   143   ar
   100   194   193    1
   101   194   197    1
   102   150   148    1
   103    93    94   ar
   104    93    95   ar
   105     3     4    2
   106   208   207   ar
   107    94    96   ar
   108    23    20    1
   109   158   156    1
   110    78    77    1
   111    78    79    2
   112    14    13    1
   113   198   197    1
   114    87    86    1
   115    86    85   ar
   116   144   145    1
   117    81    80    1
   118    81    83   ar
   119    80    77    1
   120    77    76    1
   121   190   189    2
   122    95    97   ar
   123    13    12    1
   124   148   145    1
   125   148   149    1
   126    20    19    1
   127    20    21    1
   128    96    98   ar
   129   145   146    1
   130   189   188    1
   131   156   155    1
   132    19    10   am
   133    45    44    1
   134    85    83   ar
   135    97    98   ar
   136    37    35   ar
   137    37    38   ar
   138    35    33   ar
   139    12     9    1
   140    21    22    2
   141    39    38    1
   142   155   157    1
   143   155   152    1
   144    38    36   ar
   145    10    11    2
   146    10     9    1
   147    33    32    1
   148    33    34   ar
   149    32    29    1
   150   185   184    2
   151   146   147    2
   152   188   191    1
   153   188   187    1
   154    44    46    1
   155    44    41    1
   156     9     8    1
   157   191   192    1
   158    36    34   ar
   159   184   187   am
   160   184   183    1
   161    59    56    1
   162    41    40    1
   163    41    42    1
   164   151   152    1
   165   152   153    1
   166    40    30   am
   167    29    30    1
   168    29    28    1
   169    30    31    2
   170   182   183    1
   171   183   186    1
   172   153   159   am
   173   153   154    2
   174    42    43    2
   175    56    55    1
   176    56    57    1
   177   159   160    1
   178    55    49   am
   179    57    58    2
   180   178   177    2
   181   163   160    1
   182   160   161    1
   183    54    53    1
   184   177   176    1
   185    67    66    1
   186    49    50    2
   187    49    48    1
   188    64    65    1
   189    64    61    1
   190    51    48    1
   191    51    52    1
   192   168   169    1
   193   168   165    1
   194    47    48    1
   195   161   162    2
   196    65    66    1
   197   169   171   ar
   198   169   170   ar
   199   171   173   ar
   200   170   172   ar
   201   173   174   ar
   202    62    63    2
   203    62    61    1
   204   172   174   ar
   205   164   165    1
   206   176   175    1
   207   176   179    1
   208    53    52    1
   209    61    60    1
   210   165   166    1
   211   180   179    1
   212   179   181    1
   213   166   167    2
   214    74    72    1
   215    73    75    1
   216    73    72    1
   217    72    69    1
   218    71    70    2
   219    69    70    1
   220    69    68    1
