@<TRIPOS>MOLECULE
tmp/5b3rB00.pdb
 120 113 0 0 0
SMALL
GASTEIGER

@<TRIPOS>ATOM
      1  N         43.9710   46.1180   20.2650 N.3    21  GLU21      -0.1245
      2  CA        43.1120   45.4070   19.3170 C.3    21  GLU21       0.1567
      3  C         41.7530   45.1540   19.9410 C.2    21  GLU21       0.2260
      4  O         41.6700   44.7520   21.0970 O.2    21  GLU21      -0.2867
      5  CB        43.7280   44.0710   18.9070 C.3    21  GLU21       0.0388
      6  CG        42.8840   43.2600   17.9320 C.3    21  GLU21       0.1160
      7  CD        43.2920   41.8000   17.8420 C.2    21  GLU21       0.3649
      8  OE1       43.0660   41.1950   16.7710 O.co2  21  GLU21      -0.2457
      9  OE2       43.8240   41.2370   18.8230 O.co2  21  GLU21      -0.2457
     10  N         39.0630   42.6420   20.0980 N.3    23  VAL23      -0.1245
     11  CA        38.7540   41.2490   19.8160 C.3    23  VAL23       0.1561
     12  C         37.2280   41.1730   19.7410 C.2    23  VAL23       0.2260
     13  O         36.5360   41.3790   20.7440 O.2    23  VAL23      -0.2867
     14  CB        39.3230   40.3130   20.9010 C.3    23  VAL23       0.0252
     15  CG1       38.9550   38.8590   20.6360 C.3    23  VAL23       0.0019
     16  CG2       40.8360   40.4610   20.9790 C.3    23  VAL23       0.0019
     17  N         34.4220   40.0780   22.3390 N.3    26  TRP26      -0.1241
     18  CA        35.1370   39.8700   23.6080 C.3    26  TRP26       0.1605
     19  C         35.4110   41.2340   24.2350 C.2    26  TRP26       0.2264
     20  O         34.8470   41.5550   25.2700 O.2    26  TRP26      -0.2867
     21  CB        36.4340   39.0630   23.4010 C.3    26  TRP26       0.0550
     22  CG        36.9170   38.2220   24.5790 C.ar   26  TRP26       0.0003
     23  CD1       36.8510   38.5400   25.9000 C.ar   26  TRP26       0.0946
     24  CD2       37.6020   36.9550   24.5070 C.ar   26  TRP26       0.0152
     25  NE1       37.4070   37.5400   26.6570 N.ar   26  TRP26      -0.2442
     26  CE2       37.8810   36.5570   25.8270 C.ar   26  TRP26       0.0810
     27  CE3       37.9970   36.1200   23.4520 C.ar   26  TRP26       0.0012
     28  CZ2       38.5440   35.3520   26.1260 C.ar   26  TRP26       0.0191
     29  CZ3       38.6430   34.9280   23.7470 C.ar   26  TRP26       0.0001
     30  CH2       38.9120   34.5540   25.0730 C.ar   26  TRP26       0.0015
     31  N         42.1120   44.4220   23.8860 N.3    29  VAL29      -0.1245
     32  CA        43.3720   43.9450   24.4540 C.3    29  VAL29       0.1561
     33  C         44.4470   45.0310   24.2650 C.2    29  VAL29       0.2260
     34  O         44.5710   45.6140   23.1830 O.2    29  VAL29      -0.2867
     35  CB        43.7990   42.6180   23.7890 C.3    29  VAL29       0.0252
     36  CG1       45.1690   42.1490   24.2900 C.3    29  VAL29       0.0019
     37  CG2       42.7600   41.5310   24.0410 C.3    29  VAL29       0.0019
     38  N         50.1740   43.8600   18.0240 N.3    49  ILE49      -0.1245
     39  CA        48.9990   43.0060   17.9810 C.3    49  ILE49       0.1561
     40  C         48.2560   43.0900   16.6430 C.2    49  ILE49       0.2260
     41  O         47.3950   42.2720   16.3630 O.2    49  ILE49      -0.2867
     42  CB        48.0940   43.3130   19.2080 C.3    49  ILE49       0.0252
     43  CG1       47.0330   42.2140   19.4130 C.3    49  ILE49       0.0019
     44  CG2       47.4510   44.6930   19.0930 C.3    49  ILE49       0.0019
     45  CD1       46.3380   42.3060   20.7570 C.3    49  ILE49       0.0001
     46  N         55.3330   33.7030   21.6220 N.3    75  HIS75      -0.1241
     47  CA        54.4160   32.5820   21.4990 C.3    75  HIS75       0.1621
     48  C         53.5580   32.7100   20.2520 C.2    75  HIS75       0.2264
     49  O         53.6070   33.7280   19.5530 O.2    75  HIS75      -0.2867
     50  CB        53.5740   32.3780   22.7640 C.3    75  HIS75       0.0745
     51  CG        52.5070   33.4000   22.9810 C.ar   75  HIS75       0.0817
     52  ND1       52.7250   34.7530   22.8680 N.ar   75  HIS75      -0.2268
     53  CD2       51.2170   33.2590   23.3680 C.ar   75  HIS75       0.1154
     54  CE1       51.6130   35.4030   23.1500 C.ar   75  HIS75       0.1986
     55  NE2       50.6880   34.5180   23.4650 N.ar   75  HIS75      -0.2212
     56  N         50.3120   32.9230   19.6060 N.3    77  HIS77      -0.1241
     57  CA        49.1180   33.7680   19.4820 C.3    77  HIS77       0.1621
     58  C         49.3710   35.0360   18.6920 C.2    77  HIS77       0.2264
     59  O         50.5080   35.5620   18.6450 O.2    77  HIS77      -0.2867
     60  CB        48.5490   34.1740   20.8350 C.3    77  HIS77       0.0745
     61  CG        47.9090   33.0500   21.5940 C.ar   77  HIS77       0.0817
     62  ND1       47.8020   33.0660   22.9630 N.ar   77  HIS77      -0.2268
     63  CD2       47.3780   31.8730   21.1910 C.ar   77  HIS77       0.1154
     64  CE1       47.2020   31.9600   23.3770 C.ar   77  HIS77       0.1986
     65  NE2       46.9380   31.2180   22.3190 N.ar   77  HIS77      -0.2212
     66  N         48.7760   38.1320   19.3250 N.3    79  ASP79      -0.1239
     67  CA        49.3310   39.3200   19.9710 C.3    79  ASP79       0.1674
     68  C         50.8740   39.3510   20.0030 C.2    79  ASP79       0.2266
     69  O         51.4540   40.4050   20.2360 O.2    79  ASP79      -0.2867
     70  CB        48.6800   39.6400   21.3270 C.3    79  ASP79       0.1410
     71  CG        48.9450   38.6030   22.3870 C.2    79  ASP79       0.3668
     72  OD1       49.0540   37.4200   22.0500 O.co2  79  ASP79      -0.2456
     73  OD2       49.0010   38.9980   23.5720 O.co2  79  ASP79      -0.2456
     74  N         51.1450   29.8590   29.9580 N.3   137  HIS137     -0.1241
     75  CA        50.1090   30.5030   29.1730 C.3   137  HIS137      0.1621
     76  C         49.8010   29.7160   27.9010 C.2   137  HIS137      0.2264
     77  O         48.6240   29.5880   27.5240 O.2   137  HIS137     -0.2867
     78  CB        50.5070   31.9370   28.8720 C.3   137  HIS137      0.0745
     79  CG        49.6600   32.5810   27.8400 C.ar  137  HIS137      0.0817
     80  ND1       48.3460   32.9280   28.0660 N.ar  137  HIS137     -0.2268
     81  CD2       49.9350   32.9380   26.5670 C.ar  137  HIS137      0.1154
     82  CE1       47.8450   33.4560   26.9680 C.ar  137  HIS137      0.1986
     83  NE2       48.7890   33.4750   26.0470 N.ar  137  HIS137     -0.2212
     84  N         53.2970   36.9450   27.5680 N.3   156  CYS156     -0.1235
     85  CA        52.0030   36.5730   28.1700 C.3   156  CYS156      0.1677
     86  C         52.1220   35.4950   29.2550 C.2   156  CYS156      0.2270
     87  O         51.1090   35.0790   29.8320 O.2   156  CYS156     -0.2867
     88  CB        51.0380   36.1340   27.0700 C.3   156  CYS156      0.0956
     89  SG        50.7340   37.4190   25.8340 S.3   156  CYS156     -0.0801
     90  N         52.1130   37.0460   34.5150 N.3   159  LYS159     -0.1245
     91  CA        50.7110   37.3330   34.7590 C.3   159  LYS159      0.1561
     92  C         50.5260   37.5560   36.2510 C.2   159  LYS159      0.2260
     93  O         50.0180   36.6850   36.9570 O.2   159  LYS159     -0.2867
     94  CB        49.8530   36.1690   34.2660 C.3   159  LYS159      0.0271
     95  CG        49.7230   36.0690   32.7560 C.3   159  LYS159      0.0035
     96  CD        48.7660   37.0960   32.1590 C.3   159  LYS159      0.0206
     97  CE        48.6710   36.9960   30.6450 C.3   159  LYS159      0.1093
     98  NZ        48.4330   35.6180   30.1280 N.3   159  LYS159     -0.1314
     99  N         44.4820   35.4790   32.7540 N.3   164  GLY164     -0.1210
    100  CA        43.9140   35.8410   31.4630 C.3   164  GLY164      0.1956
    101  C         43.3600   34.6710   30.6700 C.2   164  GLY164      0.2611
    102  O         42.5990   33.8550   31.1900 O.2   164  GLY164     -0.2717
    103  N         43.7310   34.5880   29.3970 N.am  165  ASN165     -0.1974
    104  CA        43.1480   33.6060   28.4880 C.3   165  ASN165      0.1688
    105  C         43.7180   32.2170   28.6980 C.2   165  ASN165      0.2292
    106  O         44.8630   31.9420   28.3140 O.2   165  ASN165     -0.2864
    107  CB        43.3570   34.0440   27.0410 C.3   165  ASN165      0.1181
    108  CG        42.9770   32.9730   26.0470 C.2   165  ASN165      0.2629
    109  OD1       42.0580   32.1910   26.2800 O.2   165  ASN165     -0.2716
    110  ND2       43.6930   32.9240   24.9290 N.am  165  ASN165     -0.0877
    111  N         50.7070   42.5430   29.4550 N.3   195  HIS195     -0.1241
    112  CA        49.4730   43.2340   29.8760 C.3   195  HIS195      0.1621
    113  C         49.4860   43.9450   31.2180 C.2   195  HIS195      0.2264
    114  O         48.4680   44.5250   31.5940 O.2   195  HIS195     -0.2867
    115  CB        48.2990   42.2560   29.8690 C.3   195  HIS195      0.0745
    116  CG        48.2130   41.4160   28.6410 C.ar  195  HIS195      0.0817
    117  ND1       47.7600   41.8980   27.4300 N.ar  195  HIS195     -0.2268
    118  CD2       48.5200   40.1180   28.4400 C.ar  195  HIS195      0.1154
    119  CE1       47.7990   40.9290   26.5350 C.ar  195  HIS195      0.1986
    120  NE2       48.2610   39.8380   27.1230 N.ar  195  HIS195     -0.2212
@<TRIPOS>BOND
     1    41    40    2
     2    40    39    1
     3     8     7   ar
     4     7     6    1
     5     7     9   ar
     6     6     5    1
     7    39    38    1
     8    39    42    1
     9    59    58    2
    10    58    57    1
    11     5     2    1
    12    44    42    1
    13    42    43    1
    14     2     3    1
    15     2     1    1
    16    66    67    1
    17    43    45    1
    18    57    56    1
    19    57    60    1
    20    49    48    2
    21    12    11    1
    22    12    13    2
    23    11    10    1
    24    11    14    1
    25     3     4    2
    26    67    68    1
    27    67    70    1
    28    68    69    2
    29    48    47    1
    30    15    14    1
    31    60    61    1
    32    14    16    1
    33    63    61   ar
    34    63    65   ar
    35    70    71    1
    36    47    46    1
    37    47    50    1
    38    61    62   ar
    39    72    71   ar
    40    65    64   ar
    41    17    18    1
    42    71    73   ar
    43    50    51    1
    44    52    51   ar
    45    52    54   ar
    46    62    64   ar
    47    51    53   ar
    48    54    55   ar
    49    34    33    2
    50    53    55   ar
    51    21    18    1
    52    21    22    1
    53    27    29   ar
    54    27    24   ar
    55    18    19    1
    56    29    30   ar
    57    35    37    1
    58    35    36    1
    59    35    32    1
    60    31    32    1
    61    19    20    2
    62    33    32    1
    63    24    22   ar
    64    24    26   ar
    65    22    23   ar
    66   110   108   am
    67    30    28   ar
    68    26    28   ar
    69    26    25   ar
    70    89    88    1
    71    23    25   ar
    72   108   109    2
    73   108   107    1
    74    83    81   ar
    75    83    82   ar
    76   119   120   ar
    77   119   117   ar
    78    81    79   ar
    79    82    80   ar
    80   107   104    1
    81    88    85    1
    82   120   118   ar
    83   117   116   ar
    84    77    76    2
    85    84    85    1
    86    79    80   ar
    87    79    78    1
    88    76    75    1
    89    85    86    1
    90   106   105    2
    91   118   116   ar
    92   104   105    1
    93   104   103    1
    94   116   115    1
    95    78    75    1
    96    75    74    1
    97    86    87    2
    98   103   101   am
    99   111   112    1
   100   115   112    1
   101   112   113    1
   102    98    97    1
   103    97    96    1
   104   101   102    2
   105   101   100    1
   106   113   114    2
   107   100    99    1
   108    96    95    1
   109    95    94    1
   110    94    91    1
   111    90    91    1
   112    91    92    1
   113    92    93    2
