@<TRIPOS>MOLECULE
tmp/5b3vB00.pdb
 224 221 0 0 0
SMALL
GASTEIGER

@<TRIPOS>ATOM
      1  N        -32.4480    9.7760   17.6540 N.3     9  GLY9       -0.1210
      2  CA       -32.0740    8.8450   18.7010 C.3     9  GLY9        0.1956
      3  C        -31.9830    9.5230   20.0530 C.2     9  GLY9        0.2613
      4  O        -31.8160   10.7450   20.1250 O.2     9  GLY9       -0.2717
      5  N        -32.0950    8.7500   21.1350 N.am   10  THR10      -0.1938
      6  CA       -32.0160    9.2950   22.4820 C.3    10  THR10       0.2028
      7  C        -31.0700    8.5210   23.3910 C.2    10  THR10       0.2643
      8  O        -30.8660    8.9340   24.5390 O.2    10  THR10      -0.2714
      9  CB       -33.4070    9.3280   23.1340 C.3    10  THR10       0.1808
     10  OG1      -33.9690    8.0090   23.1270 O.3    10  THR10      -0.2208
     11  CG2      -34.3330   10.2780   22.3830 C.3    10  THR10       0.0379
     12  N        -30.4880    7.4230   22.9160 N.am   11  GLY11      -0.1939
     13  CA       -29.6960    6.5540   23.7570 C.3    11  GLY11       0.2014
     14  C        -28.2600    6.9880   23.9500 C.2    11  GLY11       0.2639
     15  O        -27.9650    8.1870   23.9890 O.2    11  GLY11      -0.2714
     16  N        -27.3530    6.0120   24.0610 N.am   12  TYR12      -0.1959
     17  CA       -25.9760    6.3110   24.4420 C.3    12  TYR12       0.1771
     18  C        -25.2880    7.1910   23.4070 C.2    12  TYR12       0.2619
     19  O        -24.7140    8.2320   23.7470 O.2    12  TYR12      -0.2715
     20  CB       -25.1840    5.0210   24.6470 C.3    12  TYR12       0.0574
     21  CG       -23.7570    5.2870   25.0640 C.ar   12  TYR12      -0.0198
     22  CD1      -23.4440    5.5460   26.3890 C.ar   12  TYR12      -0.0009
     23  CD2      -22.7250    5.3070   24.1290 C.ar   12  TYR12      -0.0009
     24  CE1      -22.1520    5.8060   26.7770 C.ar   12  TYR12       0.0417
     25  CE2      -21.4240    5.5660   24.5100 C.ar   12  TYR12       0.0417
     26  CZ       -21.1460    5.8130   25.8360 C.ar   12  TYR12       0.1957
     27  OH       -19.8560    6.0710   26.2310 O.3    12  TYR12      -0.2866
     28  N        -25.3130    6.7740   22.1390 N.am   13  ALA13      -0.1977
     29  CA       -24.6490    7.5460   21.0940 C.3    13  ALA13       0.1597
     30  C        -25.2180    8.9570   21.0120 C.2    13  ALA13       0.2287
     31  O        -24.4680    9.9390   20.9690 O.2    13  ALA13      -0.2864
     32  CB       -24.7770    6.8300   19.7490 C.3    13  ALA13       0.0319
     33  N        -35.4370   13.5640   17.5680 N.3    33  TRP33      -0.1227
     34  CA       -36.5840   12.6680   17.4980 C.3    33  TRP33       0.1737
     35  C        -36.2900   11.4030   18.2910 C.2    33  TRP33       0.2596
     36  O        -35.1870   10.8560   18.2140 O.2    33  TRP33      -0.2718
     37  CB       -36.9320   12.3020   16.0500 C.3    33  TRP33       0.0564
     38  CG       -37.9930   11.2480   15.9560 C.ar   33  TRP33       0.0003
     39  CD1      -39.3330   11.4180   16.1440 C.ar   33  TRP33       0.0946
     40  CD2      -37.8010    9.8600   15.6570 C.ar   33  TRP33       0.0152
     41  NE1      -39.9890   10.2210   15.9800 N.ar   33  TRP33      -0.2442
     42  CE2      -39.0710    9.2500   15.6780 C.ar   33  TRP33       0.0810
     43  CE3      -36.6800    9.0750   15.3720 C.ar   33  TRP33       0.0012
     44  CZ2      -39.2500    7.8900   15.4270 C.ar   33  TRP33       0.0191
     45  CZ3      -36.8600    7.7260   15.1220 C.ar   33  TRP33       0.0001
     46  CH2      -38.1350    7.1480   15.1510 C.ar   33  TRP33       0.0015
     47  N        -37.2820   10.9330   19.0420 N.am   34  GLY34      -0.1942
     48  CA       -37.0760    9.7810   19.8990 C.3    34  GLY34       0.2014
     49  C        -37.9960    8.6110   19.6190 C.2    34  GLY34       0.2639
     50  O        -38.4630    8.4300   18.4920 O.2    34  GLY34      -0.2714
     51  N        -38.2570    7.8040   20.6460 N.am   35  ASN35      -0.1958
     52  CA       -39.1360    6.6490   20.5120 C.3    35  ASN35       0.1819
     53  C        -40.1270    6.6120   21.6710 C.2    35  ASN35       0.2622
     54  O        -41.2670    7.0640   21.5270 O.2    35  ASN35      -0.2715
     55  CB       -38.3090    5.3610   20.4410 C.3    35  ASN35       0.1195
     56  CG       -39.1570    4.1180   20.2470 C.2    35  ASN35       0.2630
     57  OD1      -40.1740    4.1400   19.5530 O.2    35  ASN35      -0.2716
     58  ND2      -38.7360    3.0200   20.8630 N.am   35  ASN35      -0.0877
     59  N        -39.7020    6.1030   22.8250 N.am   36  SER36      -0.1950
     60  CA       -40.5820    6.0190   23.9810 C.3    36  SER36       0.1924
     61  C        -40.7970    7.3940   24.6080 C.2    36  SER36       0.2314
     62  O        -39.9410    8.2790   24.5300 O.2    36  SER36      -0.2863
     63  CB       -40.0140    5.0600   25.0270 C.3    36  SER36       0.2116
     64  OG       -38.8940    5.6300   25.6820 O.3    36  SER36      -0.2180
     65  N        -38.1700    8.3010   27.5750 N.3    39  ASN39      -0.1240
     66  CA       -36.8050    8.6350   27.1930 C.3    39  ASN39       0.1653
     67  C        -36.7250    9.7910   26.2080 C.2    39  ASN39       0.2266
     68  O        -35.6850   10.4560   26.1430 O.2    39  ASN39      -0.2867
     69  CB       -36.1000    7.4020   26.6140 C.3    39  ASN39       0.1155
     70  CG       -35.8160    6.3470   27.6710 C.2    39  ASN39       0.2627
     71  OD1      -35.8500    6.6320   28.8680 O.2    39  ASN39      -0.2716
     72  ND2      -35.5290    5.1260   27.2340 N.am   39  ASN39      -0.0877
     73  N        -28.6500    8.1780   15.2440 N.3    70  ALA70      -0.1231
     74  CA       -28.1850    7.3340   16.3360 C.3    70  ALA70       0.1694
     75  C        -29.3280    6.4900   16.8900 C.2    70  ALA70       0.2593
     76  O        -29.4110    6.2620   18.1000 O.2    70  ALA70      -0.2718
     77  CB       -27.5430    8.1750   17.4400 C.3    70  ALA70       0.0304
     78  N        -30.2240    6.0330   16.0220 N.am   71  THR71      -0.1939
     79  CA       -31.3090    5.1540   16.4160 C.3    71  THR71       0.2028
     80  C        -30.9500    3.7190   16.0400 C.2    71  THR71       0.2642
     81  O        -29.8020    3.4110   15.7120 O.2    71  THR71      -0.2714
     82  CB       -32.6280    5.5980   15.7770 C.3    71  THR71       0.1808
     83  OG1      -33.6790    4.7150   16.1910 O.3    71  THR71      -0.2208
     84  CG2      -32.5210    5.5800   14.2570 C.3    71  THR71       0.0379
     85  N        -31.9440    2.8290   16.0750 N.am   72  ILE72      -0.1963
     86  CA       -31.6850    1.4190   15.7990 C.3    72  ILE72       0.1727
     87  C        -31.2270    1.2320   14.3530 C.2    72  ILE72       0.2616
     88  O        -31.4680    2.0680   13.4710 O.2    72  ILE72      -0.2715
     89  CB       -32.9320    0.5760   16.1040 C.3    72  ILE72       0.0290
     90  CG1      -34.1100    1.0380   15.2540 C.3    72  ILE72       0.0022
     91  CG2      -33.2980    0.6860   17.5740 C.3    72  ILE72       0.0023
     92  CD1      -35.3520    0.2100   15.4590 C.3    72  ILE72       0.0001
     93  N        -30.5580    0.1010   14.1110 N.am   73  ASN73      -0.1972
     94  CA       -29.9150   -0.1300   12.8200 C.3    73  ASN73       0.1688
     95  C        -30.9230   -0.1530   11.6750 C.2    73  ASN73       0.2292
     96  O        -30.6380    0.3500   10.5820 O.2    73  ASN73      -0.2864
     97  CB       -29.1300   -1.4430   12.8550 C.3    73  ASN73       0.1181
     98  CG       -27.8390   -1.3460   13.6550 C.2    73  ASN73       0.2629
     99  OD1      -27.3320   -0.2550   13.9200 O.2    73  ASN73      -0.2716
    100  ND2      -27.2970   -2.4960   14.0310 N.am   73  ASN73      -0.0877
    101  N        -33.5150    1.4400   10.8610 N.3    75  LEU75      -0.1231
    102  CA       -33.9570    2.7140   10.3060 C.3    75  LEU75       0.1693
    103  C        -32.8250    3.5210    9.6910 C.2    75  LEU75       0.2592
    104  O        -33.0840    4.6110    9.1710 O.2    75  LEU75      -0.2718
    105  CB       -34.6430    3.5660   11.3920 C.3    75  LEU75       0.0284
    106  CG       -35.5870    2.8400   12.3560 C.3    75  LEU75       0.0019
    107  CD1      -35.8850    3.7170   13.5780 C.3    75  LEU75       0.0001
    108  CD2      -36.8760    2.4070   11.6560 C.3    75  LEU75       0.0001
    109  N        -31.5950    3.0030    9.7130 N.am   76  HIS76      -0.1976
    110  CA       -30.4510    3.7710    9.2300 C.3    76  HIS76       0.1656
    111  C        -30.5820    4.1080    7.7490 C.2    76  HIS76       0.2291
    112  O        -30.3690    5.2570    7.3470 O.2    76  HIS76      -0.2864
    113  CB       -29.1510    3.0110    9.4940 C.3    76  HIS76       0.0771
    114  CG       -28.6690    3.1170   10.9060 C.ar   76  HIS76       0.0820
    115  ND1      -27.3930    2.7580   11.2840 N.ar   76  HIS76      -0.2267
    116  CD2      -29.2910    3.5400   12.0320 C.ar   76  HIS76       0.1154
    117  CE1      -27.2490    2.9590   12.5810 C.ar   76  HIS76       0.1986
    118  NE2      -28.3870    3.4300   13.0600 N.ar   76  HIS76      -0.2212
    119  N        -23.9700    6.7410   12.9470 N.3    93  GLU93      -0.1231
    120  CA       -23.2860    5.7190   13.7120 C.3    93  GLU93       0.1699
    121  C        -23.4130    4.4060   12.9520 C.2    93  GLU93       0.2592
    122  O        -24.4570    4.1180   12.3600 O.2    93  GLU93      -0.2718
    123  CB       -23.8820    5.6030   15.1150 C.3    93  GLU93       0.0402
    124  CG       -24.4330    6.9090   15.6900 C.3    93  GLU93       0.1161
    125  CD       -23.3590    7.9060   16.1110 C.2    93  GLU93       0.3649
    126  OE1      -22.1660    7.7000   15.8080 O.co2  93  GLU93      -0.2457
    127  OE2      -23.7180    8.9100   16.7600 O.co2  93  GLU93      -0.2457
    128  N        -22.3350    3.6310   12.9330 N.am   94  TYR94      -0.1976
    129  CA       -22.3030    2.4360   12.1020 C.3    94  TYR94       0.1639
    130  C        -23.3440    1.4220   12.5730 C.2    94  TYR94       0.2290
    131  O        -23.7260    1.4280   13.7460 O.2    94  TYR94      -0.2864
    132  CB       -20.8930    1.8260   12.0820 C.3    94  TYR94       0.0560
    133  CG       -20.4230    1.1760   13.3640 C.ar   94  TYR94      -0.0198
    134  CD1      -20.8320   -0.1090   13.7090 C.ar   94  TYR94      -0.0009
    135  CD2      -19.5290    1.8230   14.2050 C.ar   94  TYR94      -0.0009
    136  CE1      -20.3900   -0.7130   14.8690 C.ar   94  TYR94       0.0417
    137  CE2      -19.0770    1.2270   15.3650 C.ar   94  TYR94       0.0417
    138  CZ       -19.5100   -0.0410   15.6950 C.ar   94  TYR94       0.1957
    139  OH       -19.0580   -0.6320   16.8530 O.3    94  TYR94      -0.2866
    140  N        -19.6100    7.0700   11.4290 N.3   120  GLU120     -0.1245
    141  CA       -18.6740    7.0640   12.5430 C.3   120  GLU120      0.1567
    142  C        -18.1210    5.6600   12.7610 C.2   120  GLU120      0.2260
    143  O        -18.8660    4.6760   12.7410 O.2   120  GLU120     -0.2867
    144  CB       -19.3740    7.5890   13.7970 C.3   120  GLU120      0.0388
    145  CG       -18.8510    7.0910   15.1430 C.3   120  GLU120      0.1160
    146  CD       -19.3740    5.7100   15.5190 C.2   120  GLU120      0.3649
    147  OE1      -18.5510    4.7980   15.7430 O.co2 120  GLU120     -0.2457
    148  OE2      -20.6070    5.5280   15.5660 O.co2 120  GLU120     -0.2457
    149  N        -15.5990    4.6950   15.5490 N.3   122  ILE122     -0.1245
    150  CA       -14.7250    5.0140   16.6760 C.3   122  ILE122      0.1561
    151  C        -13.7220    3.9050   16.9670 C.2   122  ILE122      0.2260
    152  O        -12.7080    4.1570   17.6250 O.2   122  ILE122     -0.2867
    153  CB       -15.5440    5.3350   17.9470 C.3   122  ILE122      0.0252
    154  CG1      -16.4120    4.1460   18.3610 C.3   122  ILE122      0.0019
    155  CG2      -16.3950    6.5780   17.7470 C.3   122  ILE122      0.0019
    156  CD1      -16.9850    4.2730   19.7610 C.3   122  ILE122      0.0001
    157  N        -34.2330   -6.2320   24.1170 N.3   159  ARG159     -0.1231
    158  CA       -33.9740   -4.9120   23.5640 C.3   159  ARG159      0.1694
    159  C        -33.5880   -5.0430   22.0900 C.2   159  ARG159      0.2592
    160  O        -33.4770   -6.1470   21.5450 O.2   159  ARG159     -0.2718
    161  CB       -32.8800   -4.2070   24.3710 C.3   159  ARG159      0.0321
    162  CG       -31.5170   -4.8870   24.3060 C.3   159  ARG159      0.0489
    163  CD       -30.5050   -4.2120   25.2230 C.3   159  ARG159      0.2205
    164  NE       -30.7070   -2.7700   25.3330 N.pl3 159  ARG159     -0.0865
    165  CZ       -29.9850   -1.8710   24.6750 C.cat 159  ARG159      0.5346
    166  NH1      -29.0160   -2.2720   23.8660 N.pl3 159  ARG159      0.1354
    167  NH2      -30.2250   -0.5760   24.8280 N.pl3 159  ARG159      0.1354
    168  N        -33.3630   -3.8950   21.4450 N.am  160  TRP160     -0.1962
    169  CA       -33.2060   -3.8830   19.9920 C.3   160  TRP160      0.1771
    170  C        -31.9080   -4.5430   19.5410 C.2   160  TRP160      0.2620
    171  O        -31.8440   -5.0700   18.4240 O.2   160  TRP160     -0.2715
    172  CB       -33.2780   -2.4500   19.4650 C.3   160  TRP160      0.0590
    173  CG       -32.0280   -1.6450   19.6810 C.ar  160  TRP160      0.0006
    174  CD1      -31.7320   -0.8620   20.7580 C.ar  160  TRP160      0.0946
    175  CD2      -30.9110   -1.5370   18.7860 C.ar  160  TRP160      0.0152
    176  NE1      -30.5000   -0.2760   20.5920 N.ar  160  TRP160     -0.2442
    177  CE2      -29.9760   -0.6730   19.3900 C.ar  160  TRP160      0.0810
    178  CE3      -30.6110   -2.0880   17.5360 C.ar  160  TRP160      0.0012
    179  CZ2      -28.7600   -0.3480   18.7870 C.ar  160  TRP160      0.0191
    180  CZ3      -29.4030   -1.7630   16.9390 C.ar  160  TRP160      0.0001
    181  CH2      -28.4930   -0.9020   17.5650 C.ar  160  TRP160      0.0015
    182  N        -30.8670   -4.5230   20.3760 N.am  161  THR161     -0.1951
    183  CA       -29.6140   -5.1750   20.0160 C.3   161  THR161      0.1897
    184  C        -29.7040   -6.6970   20.0460 C.2   161  THR161      0.2313
    185  O        -28.7400   -7.3630   19.6540 O.2   161  THR161     -0.2863
    186  CB       -28.4760   -4.7160   20.9360 C.3   161  THR161      0.1794
    187  OG1      -28.7660   -5.0820   22.2910 O.3   161  THR161     -0.2208
    188  CG2      -28.2780   -3.2080   20.8400 C.3   161  THR161      0.0378
    189  N        -34.3050   -5.2960   13.9060 N.3   166  GLN166     -0.1231
    190  CA       -33.8430   -3.9930   14.3640 C.3   166  GLN166      0.1698
    191  C        -32.3220   -3.9490   14.4570 C.2   166  GLN166      0.2592
    192  O        -31.7020   -2.9420   14.0970 O.2   166  GLN166     -0.2718
    193  CB       -34.4890   -3.6690   15.7120 C.3   166  GLN166      0.0381
    194  CG       -36.0120   -3.5420   15.6550 C.3   166  GLN166      0.0905
    195  CD       -36.6550   -3.5530   17.0310 C.2   166  GLN166      0.2608
    196  OE1      -35.9900   -3.3270   18.0400 O.2   166  GLN166     -0.2717
    197  NE2      -37.9550   -3.8220   17.0760 N.am  166  GLN166     -0.0878
    198  N        -31.7110   -5.0410   14.9150 N.am  167  PHE167     -0.1976
    199  CA       -30.2610   -5.1150   15.0540 C.3   167  PHE167      0.1639
    200  C        -29.5840   -5.3670   13.7140 C.2   167  PHE167      0.2290
    201  O        -28.5680   -4.7380   13.3980 O.2   167  PHE167     -0.2864
    202  CB       -29.9190   -6.2200   16.0530 C.3   167  PHE167      0.0560
    203  CG       -28.4780   -6.2820   16.4450 C.ar  167  PHE167     -0.0200
    204  CD1      -27.8550   -5.1960   17.0370 C.ar  167  PHE167     -0.0042
    205  CD2      -27.7600   -7.4540   16.2690 C.ar  167  PHE167     -0.0042
    206  CE1      -26.5300   -5.2690   17.4230 C.ar  167  PHE167     -0.0003
    207  CE2      -26.4380   -7.5390   16.6490 C.ar  167  PHE167     -0.0003
    208  CZ       -25.8190   -6.4450   17.2300 C.ar  167  PHE167     -0.0000
    209  N        -24.1640   -5.4890   12.0300 N.3   173  ALA173     -0.1245
    210  CA       -24.4280   -4.5730   13.1330 C.3   173  ALA173      0.1562
    211  C        -23.1480   -4.2300   13.8880 C.2   173  ALA173      0.2260
    212  O        -22.8910   -3.0570   14.1860 O.2   173  ALA173     -0.2867
    213  CB       -25.4700   -5.1800   14.0680 C.3   173  ALA173      0.0290
    214  N        -16.6250    9.6180   20.6490 N.3   276  PHE276     -0.1241
    215  CA       -17.7260   10.3170   19.9930 C.3   276  PHE276      0.1605
    216  C        -17.4380   11.8080   19.9020 C.2   276  PHE276      0.2264
    217  O        -17.7630   12.4530   18.8970 O.2   276  PHE276     -0.2867
    218  CB       -19.0410   10.0700   20.7340 C.3   276  PHE276      0.0534
    219  CG       -19.6870    8.7500   20.4110 C.ar  276  PHE276     -0.0203
    220  CD1      -20.3940    8.5820   19.2290 C.ar  276  PHE276     -0.0042
    221  CD2      -19.6050    7.6850   21.2940 C.ar  276  PHE276     -0.0042
    222  CE1      -20.9950    7.3760   18.9280 C.ar  276  PHE276     -0.0003
    223  CE2      -20.2050    6.4730   21.0010 C.ar  276  PHE276     -0.0003
    224  CZ       -20.9010    6.3190   19.8150 C.ar  276  PHE276     -0.0000
@<TRIPOS>BOND
     1   112   111    2
     2   111   110    1
     3   104   103    2
     4   110   113    1
     5   110   109    1
     6   113   114    1
     7   103   109   am
     8   103   102    1
     9   102   101    1
    10   102   105    1
    11    96    95    2
    12   114   115   ar
    13   114   116   ar
    14   115   117   ar
    15   105   106    1
    16   140   141    1
    17   108   106    1
    18    95    94    1
    19   209   210    1
    20   116   118   ar
    21   132   129    1
    22   132   133    1
    23   129   130    1
    24   129   128    1
    25   106   107    1
    26   122   121    2
    27   141   142    1
    28   141   144    1
    29   130   131    2
    30   117   118   ar
    31   143   142    2
    32    94    97    1
    33    94    93    1
    34    97    98    1
    35   128   121   am
    36   119   120    1
    37   121   120    1
    38   210   211    1
    39   210   213    1
    40   133   134   ar
    41   133   135   ar
    42   201   200    2
    43    88    87    2
    44    98    99    2
    45    98   100   am
    46   134   136   ar
    47   120   123    1
    48   200   199    1
    49   144   145    1
    50   211   212    2
    51   189   190    1
    52   192   191    2
    53    93    87   am
    54   135   137   ar
    55    84    82    1
    56    87    86    1
    57   190   191    1
    58   190   193    1
    59   191   198   am
    60   136   138   ar
    61   198   199    1
    62   199   202    1
    63   123   124    1
    64    45    46   ar
    65    45    43   ar
    66   145   146    1
    67    46    44   ar
    68    73    74    1
    69    90    92    1
    70    90    89    1
    71   137   138   ar
    72    43    40   ar
    73    44    42   ar
    74   146   148   ar
    75   146   147   ar
    76   149   150    1
    77   194   193    1
    78   194   195    1
    79    40    42   ar
    80    40    38   ar
    81    42    41   ar
    82   124   125    1
    83   138   139    1
    84    81    80    2
    85    82    83    1
    86    82    79    1
    87    86    85    1
    88    86    89    1
    89   126   125   ar
    90    38    37    1
    91    38    39   ar
    92    41    39   ar
    93    78    79    1
    94    78    75   am
    95    80    85   am
    96    80    79    1
    97    37    34    1
    98   202   203    1
    99    89    91    1
   100   125   127   ar
   101   205   203   ar
   102   205   207   ar
   103    74    75    1
   104    74    77    1
   105   203   204   ar
   106   207   208   ar
   107   150   151    1
   108   150   153    1
   109    75    76    2
   110   180   178   ar
   111   180   181   ar
   112   151   152    2
   113   195   197   am
   114   195   196    2
   115   204   206   ar
   116   208   206   ar
   117    34    33    1
   118    34    35    1
   119   178   175   ar
   120   181   179   ar
   121     1     2    1
   122   155   153    1
   123   153   154    1
   124    36    35    2
   125    35    47   am
   126   154   156    1
   127   171   170    2
   128    50    49    2
   129     2     3    1
   130   175   177   ar
   131   175   173   ar
   132   179   177   ar
   133   217   216    2
   134   222   220   ar
   135   222   224   ar
   136    47    48    1
   137   220   219   ar
   138   177   176   ar
   139   172   173    1
   140   172   169    1
   141   170   169    1
   142   170   182   am
   143    57    56    2
   144    49    48    1
   145    49    51   am
   146   185   184    2
   147   173   174   ar
   148    32    29    1
   149   224   223   ar
   150   216   215    1
   151   169   168    1
   152   215   214    1
   153   215   218    1
   154   183   184    1
   155   183   182    1
   156   183   186    1
   157     3     4    2
   158     3     5   am
   159    56    55    1
   160    56    58   am
   161   219   218    1
   162   219   221   ar
   163    55    52    1
   164    52    51    1
   165    52    53    1
   166   176   174   ar
   167   188   186    1
   168   186   187    1
   169    31    30    2
   170   223   221   ar
   171    30    29    1
   172    29    28    1
   173     5     6    1
   174   168   159   am
   175    54    53    2
   176   160   159    2
   177    53    59   am
   178   159   158    1
   179    28    18   am
   180    11     9    1
   181     6     9    1
   182     6     7    1
   183    59    60    1
   184    12     7   am
   185    12    13    1
   186    10     9    1
   187     7     8    2
   188    18    19    2
   189    18    17    1
   190   158   157    1
   191   158   161    1
   192    13    14    1
   193   166   165    1
   194    14    15    2
   195    14    16   am
   196    60    61    1
   197    60    63    1
   198    16    17    1
   199    23    25   ar
   200    23    21   ar
   201   162   161    1
   202   162   163    1
   203    17    20    1
   204    25    26   ar
   205    62    61    2
   206    20    21    1
   207   165   167    1
   208   165   164    2
   209    63    64    1
   210    21    22   ar
   211   163   164    1
   212    26    27    1
   213    26    24   ar
   214    68    67    2
   215    67    66    1
   216    22    24   ar
   217    69    66    1
   218    69    70    1
   219    66    65    1
   220    72    70   am
   221    70    71    2
