@<TRIPOS>MOLECULE
tmp/5b3vB01.pdb
 211 204 0 0 0
SMALL
GASTEIGER

@<TRIPOS>ATOM
      1  N        -27.3530    6.0120   24.0610 N.3    12  TYR12      -0.1241
      2  CA       -25.9760    6.3110   24.4420 C.3    12  TYR12       0.1605
      3  C        -25.2880    7.1910   23.4070 C.2    12  TYR12       0.2264
      4  O        -24.7140    8.2320   23.7470 O.2    12  TYR12      -0.2867
      5  CB       -25.1840    5.0210   24.6470 C.3    12  TYR12       0.0534
      6  CG       -23.7570    5.2870   25.0640 C.ar   12  TYR12      -0.0201
      7  CD1      -23.4440    5.5460   26.3890 C.ar   12  TYR12      -0.0009
      8  CD2      -22.7250    5.3070   24.1290 C.ar   12  TYR12      -0.0009
      9  CE1      -22.1520    5.8060   26.7770 C.ar   12  TYR12       0.0417
     10  CE2      -21.4240    5.5660   24.5100 C.ar   12  TYR12       0.0417
     11  CZ       -21.1460    5.8130   25.8360 C.ar   12  TYR12       0.1957
     12  OH       -19.8560    6.0710   26.2310 O.3    12  TYR12      -0.2866
     13  N        -22.3350    3.6310   12.9330 N.3    94  TYR94      -0.1241
     14  CA       -22.3030    2.4360   12.1020 C.3    94  TYR94       0.1605
     15  C        -23.3440    1.4220   12.5730 C.2    94  TYR94       0.2264
     16  O        -23.7260    1.4280   13.7460 O.2    94  TYR94      -0.2867
     17  CB       -20.8930    1.8260   12.0820 C.3    94  TYR94       0.0534
     18  CG       -20.4230    1.1760   13.3640 C.ar   94  TYR94      -0.0201
     19  CD1      -20.8320   -0.1090   13.7090 C.ar   94  TYR94      -0.0009
     20  CD2      -19.5290    1.8230   14.2050 C.ar   94  TYR94      -0.0009
     21  CE1      -20.3900   -0.7130   14.8690 C.ar   94  TYR94       0.0417
     22  CE2      -19.0770    1.2270   15.3650 C.ar   94  TYR94       0.0417
     23  CZ       -19.5100   -0.0410   15.6950 C.ar   94  TYR94       0.1957
     24  OH       -19.0580   -0.6320   16.8530 O.3    94  TYR94      -0.2866
     25  N        -15.5990    4.6950   15.5490 N.3   122  ILE122     -0.1231
     26  CA       -14.7250    5.0140   16.6760 C.3   122  ILE122      0.1692
     27  C        -13.7220    3.9050   16.9670 C.2   122  ILE122      0.2591
     28  O        -12.7080    4.1570   17.6250 O.2   122  ILE122     -0.2718
     29  CB       -15.5440    5.3350   17.9470 C.3   122  ILE122      0.0266
     30  CG1      -16.4120    4.1460   18.3610 C.3   122  ILE122      0.0019
     31  CG2      -16.3950    6.5780   17.7470 C.3   122  ILE122      0.0020
     32  CD1      -16.9850    4.2730   19.7610 C.3   122  ILE122      0.0001
     33  N        -13.9700    2.6780   16.4980 N.am  123  GLU123     -0.1979
     34  CA       -13.0240    1.5980   16.7740 C.3   123  GLU123      0.1602
     35  C        -11.6830    1.8470   16.0990 C.2   123  GLU123      0.2287
     36  O        -10.6570    1.3260   16.5500 O.2   123  GLU123     -0.2864
     37  CB       -13.5820    0.2450   16.3380 C.3   123  GLU123      0.0415
     38  CG       -13.5530   -0.0190   14.8370 C.3   123  GLU123      0.1163
     39  CD       -14.5980    0.7740   14.0770 C.2   123  GLU123      0.3649
     40  OE1      -15.3950    1.4810   14.7230 O.co2 123  GLU123     -0.2457
     41  OE2      -14.6510    0.6510   12.8350 O.co2 123  GLU123     -0.2457
     42  N         -9.8800    3.9880   18.7080 N.3   126  GLY126     -0.1225
     43  CA        -9.6630    3.4270   20.0240 C.3   126  GLY126      0.1811
     44  C         -8.2020    3.1370   20.3160 C.2   126  GLY126      0.2280
     45  O         -7.3330    3.1530   19.4440 O.2   126  GLY126     -0.2866
     46  N         -9.7960  -11.6130   16.0560 N.3   147  TYR147     -0.1241
     47  CA       -10.4910  -10.7530   17.0070 C.3   147  TYR147      0.1605
     48  C        -11.7080  -11.4990   17.5370 C.2   147  TYR147      0.2264
     49  O        -12.6350  -11.8010   16.7770 O.2   147  TYR147     -0.2867
     50  CB       -10.9100   -9.4220   16.3770 C.3   147  TYR147      0.0534
     51  CG       -11.3150   -8.3950   17.4100 C.ar  147  TYR147     -0.0201
     52  CD1      -10.9430   -8.5440   18.7370 C.ar  147  TYR147     -0.0009
     53  CD2      -12.0730   -7.2790   17.0660 C.ar  147  TYR147     -0.0009
     54  CE1      -11.3030   -7.6220   19.6930 C.ar  147  TYR147      0.0417
     55  CE2      -12.4430   -6.3450   18.0210 C.ar  147  TYR147      0.0417
     56  CZ       -12.0530   -6.5220   19.3310 C.ar  147  TYR147      0.1957
     57  OH       -12.4150   -5.5980   20.2860 O.3   147  TYR147     -0.2866
     58  N        -24.4660  -12.3780   28.8550 N.3   153  GLN153     -0.1245
     59  CA       -25.5030  -11.5770   29.4920 C.3   153  GLN153      0.1566
     60  C        -26.6700  -12.4980   29.8020 C.2   153  GLN153      0.2260
     61  O        -27.1610  -13.1940   28.9090 O.2   153  GLN153     -0.2867
     62  CB       -25.9370  -10.4140   28.5890 C.3   153  GLN153      0.0367
     63  CG       -26.5080   -9.2170   29.3300 C.3   153  GLN153      0.0905
     64  CD       -26.9340   -8.1080   28.3920 C.2   153  GLN153      0.2608
     65  OE1      -26.6340   -8.1400   27.1980 O.2   153  GLN153     -0.2717
     66  NE2      -27.6320   -7.1140   28.9280 N.am  153  GLN153     -0.0878
     67  N        -34.2330   -6.2320   24.1170 N.3   159  ARG159     -0.1231
     68  CA       -33.9740   -4.9120   23.5640 C.3   159  ARG159      0.1694
     69  C        -33.5880   -5.0430   22.0900 C.2   159  ARG159      0.2592
     70  O        -33.4770   -6.1470   21.5450 O.2   159  ARG159     -0.2718
     71  CB       -32.8800   -4.2070   24.3710 C.3   159  ARG159      0.0321
     72  CG       -31.5170   -4.8870   24.3060 C.3   159  ARG159      0.0489
     73  CD       -30.5050   -4.2120   25.2230 C.3   159  ARG159      0.2205
     74  NE       -30.7070   -2.7700   25.3330 N.pl3 159  ARG159     -0.0865
     75  CZ       -29.9850   -1.8710   24.6750 C.cat 159  ARG159      0.5346
     76  NH1      -29.0160   -2.2720   23.8660 N.pl3 159  ARG159      0.1354
     77  NH2      -30.2250   -0.5760   24.8280 N.pl3 159  ARG159      0.1354
     78  N        -33.3630   -3.8950   21.4450 N.am  160  TRP160     -0.1962
     79  CA       -33.2060   -3.8830   19.9920 C.3   160  TRP160      0.1771
     80  C        -31.9080   -4.5430   19.5410 C.2   160  TRP160      0.2620
     81  O        -31.8440   -5.0700   18.4240 O.2   160  TRP160     -0.2715
     82  CB       -33.2780   -2.4500   19.4650 C.3   160  TRP160      0.0590
     83  CG       -32.0280   -1.6450   19.6810 C.ar  160  TRP160      0.0006
     84  CD1      -31.7320   -0.8620   20.7580 C.ar  160  TRP160      0.0946
     85  CD2      -30.9110   -1.5370   18.7860 C.ar  160  TRP160      0.0152
     86  NE1      -30.5000   -0.2760   20.5920 N.ar  160  TRP160     -0.2442
     87  CE2      -29.9760   -0.6730   19.3900 C.ar  160  TRP160      0.0810
     88  CE3      -30.6110   -2.0880   17.5360 C.ar  160  TRP160      0.0012
     89  CZ2      -28.7600   -0.3480   18.7870 C.ar  160  TRP160      0.0191
     90  CZ3      -29.4030   -1.7630   16.9390 C.ar  160  TRP160      0.0001
     91  CH2      -28.4930   -0.9020   17.5650 C.ar  160  TRP160      0.0015
     92  N        -30.8670   -4.5230   20.3760 N.am  161  THR161     -0.1951
     93  CA       -29.6140   -5.1750   20.0160 C.3   161  THR161      0.1897
     94  C        -29.7040   -6.6970   20.0460 C.2   161  THR161      0.2313
     95  O        -28.7400   -7.3630   19.6540 O.2   161  THR161     -0.2863
     96  CB       -28.4760   -4.7160   20.9360 C.3   161  THR161      0.1794
     97  OG1      -28.7660   -5.0820   22.2910 O.3   161  THR161     -0.2208
     98  CG2      -28.2780   -3.2080   20.8400 C.3   161  THR161      0.0378
     99  N        -31.7110   -5.0410   14.9150 N.3   167  PHE167     -0.1241
    100  CA       -30.2610   -5.1150   15.0540 C.3   167  PHE167      0.1605
    101  C        -29.5840   -5.3670   13.7140 C.2   167  PHE167      0.2264
    102  O        -28.5680   -4.7380   13.3980 O.2   167  PHE167     -0.2867
    103  CB       -29.9190   -6.2200   16.0530 C.3   167  PHE167      0.0534
    104  CG       -28.4780   -6.2820   16.4450 C.ar  167  PHE167     -0.0203
    105  CD1      -27.8550   -5.1960   17.0370 C.ar  167  PHE167     -0.0042
    106  CD2      -27.7600   -7.4540   16.2690 C.ar  167  PHE167     -0.0042
    107  CE1      -26.5300   -5.2690   17.4230 C.ar  167  PHE167     -0.0003
    108  CE2      -26.4380   -7.5390   16.6490 C.ar  167  PHE167     -0.0003
    109  CZ       -25.8190   -6.4450   17.2300 C.ar  167  PHE167     -0.0000
    110  N        -24.1640   -5.4890   12.0300 N.3   173  ALA173     -0.1231
    111  CA       -24.4280   -4.5730   13.1330 C.3   173  ALA173      0.1694
    112  C        -23.1480   -4.2300   13.8880 C.2   173  ALA173      0.2591
    113  O        -22.8910   -3.0570   14.1860 O.2   173  ALA173     -0.2718
    114  CB       -25.4700   -5.1800   14.0680 C.3   173  ALA173      0.0304
    115  N        -22.3350   -5.2320   14.2050 N.am  174  ALA174     -0.1980
    116  CA       -21.0170   -5.0100   14.8040 C.3   174  ALA174      0.1597
    117  C        -19.9390   -4.9300   13.7310 C.2   174  ALA174      0.2287
    118  O        -18.9010   -5.5910   13.8040 O.2   174  ALA174     -0.2864
    119  CB       -20.7020   -6.1040   15.8160 C.3   174  ALA174      0.0319
    120  N        -17.7060   -3.0750   13.2510 N.3   176  SER176     -0.1202
    121  CA       -16.4040   -2.6100   13.7170 C.3   176  SER176      0.2020
    122  C        -15.3910   -3.7440   13.8260 C.2   176  SER176      0.2618
    123  O        -14.1870   -3.5050   13.6790 O.2   176  SER176     -0.2717
    124  CB       -16.5570   -1.8980   15.0630 C.3   176  SER176      0.2103
    125  OG       -17.2290   -2.7160   16.0010 O.3   176  SER176     -0.2182
    126  N        -15.8440   -4.9760   14.0740 N.am  177  ARG177     -0.1979
    127  CA       -14.9160   -6.1050   14.1250 C.3   177  ARG177      0.1597
    128  C        -14.2080   -6.2900   12.7910 C.2   177  ARG177      0.2287
    129  O        -12.9760   -6.3850   12.7340 O.2   177  ARG177     -0.2864
    130  CB       -15.6490   -7.3960   14.5030 C.3   177  ARG177      0.0334
    131  CG       -16.5320   -7.3180   15.7260 C.3   177  ARG177      0.0492
    132  CD       -15.7470   -6.8930   16.9420 C.3   177  ARG177      0.2205
    133  NE       -16.6140   -6.9840   18.1070 N.pl3 177  ARG177     -0.0865
    134  CZ       -17.5920   -6.1360   18.3930 C.cat 177  ARG177      0.5346
    135  NH1      -17.8020   -5.0870   17.5910 N.pl3 177  ARG177      0.1354
    136  NH2      -18.3250   -6.3350   19.4600 N.pl3 177  ARG177      0.1354
    137  N        -11.7890   -3.2280   11.5820 N.3   180  ARG180     -0.1245
    138  CA       -10.4040   -3.1670   12.0400 C.3   180  ARG180      0.1563
    139  C         -9.4750   -3.8890   11.0750 C.2   180  ARG180      0.2260
    140  O         -8.3560   -3.4310   10.8170 O.2   180  ARG180     -0.2867
    141  CB       -10.2800   -3.7710   13.4370 C.3   180  ARG180      0.0307
    142  CG       -11.1550   -3.1300   14.4950 C.3   180  ARG180      0.0489
    143  CD       -11.2690   -4.0510   15.6950 C.3   180  ARG180      0.2205
    144  NE       -12.0220   -3.4500   16.7900 N.pl3 180  ARG180     -0.0865
    145  CZ       -11.4890   -2.6440   17.7020 C.cat 180  ARG180      0.5346
    146  NH1      -10.1980   -2.3400   17.6460 N.pl3 180  ARG180      0.1354
    147  NH2      -12.2450   -2.1420   18.6670 N.pl3 180  ARG180      0.1354
    148  N        -17.8930  -13.1850   17.1650 N.3   227  TYR227     -0.1241
    149  CA       -18.8370  -12.3130   17.8550 C.3   227  TYR227      0.1605
    150  C        -19.8280  -13.1940   18.6020 C.2   227  TYR227      0.2264
    151  O        -20.6050  -13.9290   17.9800 O.2   227  TYR227     -0.2867
    152  CB       -19.5550  -11.3890   16.8700 C.3   227  TYR227      0.0534
    153  CG       -20.5650  -10.4540   17.5020 C.ar  227  TYR227     -0.0201
    154  CD1      -21.8750  -10.8600   17.7260 C.ar  227  TYR227     -0.0009
    155  CD2      -20.2150   -9.1570   17.8560 C.ar  227  TYR227     -0.0009
    156  CE1      -22.8030  -10.0060   18.2970 C.ar  227  TYR227      0.0417
    157  CE2      -21.1360   -8.2980   18.4260 C.ar  227  TYR227      0.0417
    158  CZ       -22.4260   -8.7240   18.6430 C.ar  227  TYR227      0.1957
    159  OH       -23.3380   -7.8620   19.2090 O.3   227  TYR227     -0.2866
    160  N        -12.5110  -10.2870   25.0160 N.3   238  ARG238     -0.1245
    161  CA       -12.2860   -9.1870   24.0730 C.3   238  ARG238      0.1563
    162  C        -10.7890   -9.2360   23.7440 C.2   238  ARG238      0.2260
    163  O         -9.9680   -8.4900   24.2840 O.2   238  ARG238     -0.2867
    164  CB       -12.7180   -7.8290   24.6280 C.3   238  ARG238      0.0307
    165  CG       -12.9800   -6.7910   23.5420 C.3   238  ARG238      0.0489
    166  CD       -13.6020   -5.5040   24.0840 C.3   238  ARG238      0.2205
    167  NE       -15.0540   -5.5790   24.2360 N.pl3 238  ARG238     -0.0865
    168  CZ       -15.7070   -5.3560   25.3740 C.cat 238  ARG238      0.5346
    169  NH1      -15.0430   -5.0380   26.4770 N.pl3 238  ARG238      0.1354
    170  NH2      -17.0300   -5.4450   25.4080 N.pl3 238  ARG238      0.1354
    171  N         -9.4190    5.0950   27.9520 N.3   272  ARG272     -0.1231
    172  CA       -10.7570    5.0850   27.3650 C.3   272  ARG272      0.1694
    173  C        -11.2160    6.5190   27.1310 C.2   272  ARG272      0.2591
    174  O        -11.6970    7.1920   28.0450 O.2   272  ARG272     -0.2718
    175  CB       -11.7270    4.3400   28.2750 C.3   272  ARG272      0.0321
    176  CG       -12.5800    3.3070   27.5650 C.3   272  ARG272      0.0489
    177  CD       -11.7480    2.1010   27.1670 C.3   272  ARG272      0.2205
    178  NE       -12.4610    1.2140   26.2530 N.pl3 272  ARG272     -0.0865
    179  CZ       -12.6510    1.4670   24.9620 C.cat 272  ARG272      0.5346
    180  NH1      -12.1820    2.5860   24.4240 N.pl3 272  ARG272      0.1354
    181  NH2      -13.3110    0.6020   24.2050 N.pl3 272  ARG272      0.1354
    182  N        -11.0550    6.9940   25.9030 N.am  273  ARG273     -0.1980
    183  CA       -11.6020    8.2760   25.4840 C.3   273  ARG273      0.1597
    184  C        -12.9650    7.9280   24.8730 C.2   273  ARG273      0.2287
    185  O        -13.2120    6.7440   24.6530 O.2   273  ARG273     -0.2864
    186  CB       -10.6230    8.9720   24.5320 C.3   273  ARG273      0.0334
    187  CG        -9.2120    9.0100   25.1090 C.3   273  ARG273      0.0492
    188  CD        -8.2740    9.9750   24.3960 C.3   273  ARG273      0.2205
    189  NE        -7.6280    9.3870   23.2250 N.pl3 273  ARG273     -0.0865
    190  CZ        -7.9610    9.6620   21.9680 C.cat 273  ARG273      0.5346
    191  NH1       -8.9320   10.5280   21.7150 N.pl3 273  ARG273      0.1354
    192  NH2       -7.3180    9.0820   20.9640 N.pl3 273  ARG273      0.1354
    193  N        -14.3320    9.2890   22.3330 N.3   275  LEU275     -0.1231
    194  CA       -14.2580    9.0220   20.9010 C.3   275  LEU275      0.1693
    195  C        -15.3970    9.6720   20.1240 C.2   275  LEU275      0.2592
    196  O        -15.1720   10.2050   19.0320 O.2   275  LEU275     -0.2718
    197  CB       -14.2450    7.5100   20.6710 C.3   275  LEU275      0.0284
    198  CG       -12.8930    6.7830   20.6810 C.3   275  LEU275      0.0019
    199  CD1      -11.8750    7.4350   21.6050 C.3   275  LEU275      0.0001
    200  CD2      -13.0930    5.3250   21.0630 C.3   275  LEU275      0.0001
    201  N        -16.6250    9.6180   20.6490 N.am  276  PHE276     -0.1976
    202  CA       -17.7260   10.3170   19.9930 C.3   276  PHE276      0.1639
    203  C        -17.4380   11.8080   19.9020 C.2   276  PHE276      0.2290
    204  O        -17.7630   12.4530   18.8970 O.2   276  PHE276     -0.2864
    205  CB       -19.0410   10.0700   20.7340 C.3   276  PHE276      0.0560
    206  CG       -19.6870    8.7500   20.4110 C.ar  276  PHE276     -0.0200
    207  CD1      -20.3940    8.5820   19.2290 C.ar  276  PHE276     -0.0042
    208  CD2      -19.6050    7.6850   21.2940 C.ar  276  PHE276     -0.0042
    209  CE1      -20.9950    7.3760   18.9280 C.ar  276  PHE276     -0.0003
    210  CE2      -20.2050    6.4730   21.0010 C.ar  276  PHE276     -0.0003
    211  CZ       -20.9010    6.3190   19.8150 C.ar  276  PHE276     -0.0000
@<TRIPOS>BOND
     1   140   139    2
     2   139   138    1
     3   137   138    1
     4   110   111    1
     5   138   141    1
     6    17    14    1
     7    17    18    1
     8    14    15    1
     9    14    13    1
    10    15    16    2
    11   129   128    2
    12   128   127    1
    13    41    39   ar
    14   111   112    1
    15   111   114    1
    16   120   121    1
    17    18    19   ar
    18    18    20   ar
    19   102   101    2
    20   141   142    1
    21   123   122    2
    22    19    21   ar
    23   101   100    1
    24   121   122    1
    25   121   124    1
    26   117   118    2
    27   117   116    1
    28   122   126   am
    29   112   113    2
    30   112   115   am
    31   126   127    1
    32    39    40   ar
    33    39    38    1
    34   127   130    1
    35    20    22   ar
    36   115   116    1
    37   142   143    1
    38   130   131    1
    39   116   119    1
    40    38    37    1
    41    21    23   ar
    42    99   100    1
    43   100   103    1
    44   124   125    1
    45    22    23   ar
    46    25    26    1
    47    23    24    1
    48   143   144    1
    49   131   132    1
    50   103   104    1
    51    46    47    1
    52    35    36    2
    53    35    34    1
    54   106   104   ar
    55   106   108   ar
    56    37    34    1
    57    50    47    1
    58    50    51    1
    59   104   105   ar
    60    33    34    1
    61    33    27   am
    62   108   109   ar
    63    26    27    1
    64    26    29    1
    65    49    48    2
    66   144   145    2
    67   152   153    1
    68   152   149    1
    69    90    88   ar
    70    90    91   ar
    71   132   133    1
    72    27    28    2
    73    47    48    1
    74   105   107   ar
    75    53    51   ar
    76    53    55   ar
    77   148   149    1
    78   109   107   ar
    79    51    52   ar
    80   153   154   ar
    81   153   155   ar
    82    88    85   ar
    83    91    89   ar
    84   135   134    1
    85   146   145    1
    86   145   147    1
    87   154   156   ar
    88    31    29    1
    89   149   150    1
    90   155   157   ar
    91    29    30    1
    92   151   150    2
    93    55    56   ar
    94   133   134    2
    95   156   158   ar
    96    30    32    1
    97   134   136    1
    98    81    80    2
    99   157   158   ar
   100   158   159    1
   101    42    43    1
   102    52    54   ar
   103    85    87   ar
   104    85    83   ar
   105    89    87   ar
   106   204   203    2
   107   209   207   ar
   108   209   211   ar
   109   196   195    2
   110   207   206   ar
   111    56    54   ar
   112    56    57    1
   113    87    86   ar
   114    45    44    2
   115    82    83    1
   116    82    79    1
   117    80    79    1
   118    80    92   am
   119    95    94    2
   120    83    84   ar
   121   211   210   ar
   122   203   202    1
   123    79    78    1
   124   202   201    1
   125   202   205    1
   126    93    94    1
   127    93    92    1
   128    93    96    1
   129    43    44    1
   130   195   201   am
   131   195   194    1
   132   206   205    1
   133   206   208   ar
   134    86    84   ar
   135   197   198    1
   136   197   194    1
   137   198   200    1
   138   198   199    1
   139    98    96    1
   140   194   193    1
   141    96    97    1
   142   192   190    1
   143   210   208   ar
   144    78    69   am
   145    70    69    2
   146   191   190    1
   147   190   189    2
   148    69    68    1
   149   189   188    1
   150     3     4    2
   151     3     2    1
   152   165   166    1
   153   165   164    1
   154    68    67    1
   155    68    71    1
   156   162   161    1
   157   162   163    2
   158    76    75    1
   159     1     2    1
   160   161   164    1
   161   161   160    1
   162   166   167    1
   163     8    10   ar
   164     8     6   ar
   165   181   179    1
   166   167   168    2
   167    72    71    1
   168    72    73    1
   169   188   187    1
   170   180   179    1
   171     2     5    1
   172    10    11   ar
   173   186   187    1
   174   186   183    1
   175     5     6    1
   176   185   184    2
   177    75    77    1
   178    75    74    2
   179   184   183    1
   180   179   178    2
   181     6     7   ar
   182    73    74    1
   183   168   170    1
   184   168   169    1
   185   183   182    1
   186    11    12    1
   187    11     9   ar
   188   182   173   am
   189   178   177    1
   190     7     9   ar
   191   173   172    1
   192   173   174    2
   193   177   176    1
   194    65    64    2
   195   172   171    1
   196   172   175    1
   197   176   175    1
   198    64    66   am
   199    64    63    1
   200    62    63    1
   201    62    59    1
   202    58    59    1
   203    61    60    2
   204    59    60    1
