@<TRIPOS>MOLECULE
tmp/5b3vB02.pdb
 160 150 0 0 0
SMALL
GASTEIGER

@<TRIPOS>ATOM
      1  N         -9.7960  -11.6130   16.0560 N.3   147  TYR147     -0.1241
      2  CA       -10.4910  -10.7530   17.0070 C.3   147  TYR147      0.1605
      3  C        -11.7080  -11.4990   17.5370 C.2   147  TYR147      0.2264
      4  O        -12.6350  -11.8010   16.7770 O.2   147  TYR147     -0.2867
      5  CB       -10.9100   -9.4220   16.3770 C.3   147  TYR147      0.0534
      6  CG       -11.3150   -8.3950   17.4100 C.ar  147  TYR147     -0.0201
      7  CD1      -10.9430   -8.5440   18.7370 C.ar  147  TYR147     -0.0009
      8  CD2      -12.0730   -7.2790   17.0660 C.ar  147  TYR147     -0.0009
      9  CE1      -11.3030   -7.6220   19.6930 C.ar  147  TYR147      0.0417
     10  CE2      -12.4430   -6.3450   18.0210 C.ar  147  TYR147      0.0417
     11  CZ       -12.0530   -6.5220   19.3310 C.ar  147  TYR147      0.1957
     12  OH       -12.4150   -5.5980   20.2860 O.3   147  TYR147     -0.2866
     13  N        -14.6960  -11.4120   20.4770 N.3   149  THR149     -0.1218
     14  CA       -15.4460  -10.6650   21.4800 C.3   149  THR149      0.1862
     15  C        -16.6610  -11.4830   21.8810 C.2   149  THR149      0.2287
     16  O        -17.4870  -11.8360   21.0300 O.2   149  THR149     -0.2866
     17  CB       -15.8850   -9.2920   20.9640 C.3   149  THR149      0.1770
     18  OG1      -16.8110   -9.4630   19.8860 O.3   149  THR149     -0.2211
     19  CG2      -14.6920   -8.4930   20.4830 C.3   149  THR149      0.0375
     20  N        -19.6640  -11.3260   24.8100 N.3   151  MET151     -0.1245
     21  CA       -20.3310  -10.5790   25.8750 C.3   151  MET151      0.1570
     22  C        -21.4840  -11.4350   26.3950 C.2   151  MET151      0.2261
     23  O        -22.5990  -11.3950   25.8730 O.2   151  MET151     -0.2867
     24  CB       -20.8100   -9.2120   25.3780 C.3   151  MET151      0.0387
     25  CG       -21.7320   -8.4670   26.3460 C.3   151  MET151      0.0595
     26  SD       -21.1970   -8.4400   28.0700 S.3   151  MET151     -0.1393
     27  CE       -19.9390   -7.1680   28.0200 C.3   151  MET151      0.0692
     28  N        -24.4660  -12.3780   28.8550 N.3   153  GLN153     -0.1245
     29  CA       -25.5030  -11.5770   29.4920 C.3   153  GLN153      0.1566
     30  C        -26.6700  -12.4980   29.8020 C.2   153  GLN153      0.2260
     31  O        -27.1610  -13.1940   28.9090 O.2   153  GLN153     -0.2867
     32  CB       -25.9370  -10.4140   28.5890 C.3   153  GLN153      0.0367
     33  CG       -26.5080   -9.2170   29.3300 C.3   153  GLN153      0.0905
     34  CD       -26.9340   -8.1080   28.3920 C.2   153  GLN153      0.2608
     35  OE1      -26.6340   -8.1400   27.1980 O.2   153  GLN153     -0.2717
     36  NE2      -27.6320   -7.1140   28.9280 N.am  153  GLN153     -0.0878
     37  N        -34.2330   -6.2320   24.1170 N.3   159  ARG159     -0.1245
     38  CA       -33.9740   -4.9120   23.5640 C.3   159  ARG159      0.1563
     39  C        -33.5880   -5.0430   22.0900 C.2   159  ARG159      0.2260
     40  O        -33.4770   -6.1470   21.5450 O.2   159  ARG159     -0.2867
     41  CB       -32.8800   -4.2070   24.3710 C.3   159  ARG159      0.0307
     42  CG       -31.5170   -4.8870   24.3060 C.3   159  ARG159      0.0489
     43  CD       -30.5050   -4.2120   25.2230 C.3   159  ARG159      0.2205
     44  NE       -30.7070   -2.7700   25.3330 N.pl3 159  ARG159     -0.0865
     45  CZ       -29.9850   -1.8710   24.6750 C.cat 159  ARG159      0.5346
     46  NH1      -29.0160   -2.2720   23.8660 N.pl3 159  ARG159      0.1354
     47  NH2      -30.2250   -0.5760   24.8280 N.pl3 159  ARG159      0.1354
     48  N        -30.8670   -4.5230   20.3760 N.3   161  THR161     -0.1203
     49  CA       -29.6140   -5.1750   20.0160 C.3   161  THR161      0.1994
     50  C        -29.7040   -6.6970   20.0460 C.2   161  THR161      0.2617
     51  O        -28.7400   -7.3630   19.6540 O.2   161  THR161     -0.2717
     52  CB       -28.4760   -4.7160   20.9360 C.3   161  THR161      0.1784
     53  OG1      -28.7660   -5.0820   22.2910 O.3   161  THR161     -0.2211
     54  CG2      -28.2780   -3.2080   20.8400 C.3   161  THR161      0.0376
     55  N        -30.8270   -7.2580   20.5020 N.am  162  TYR162     -0.1975
     56  CA       -31.0760   -8.6950   20.4770 C.3   162  TYR162      0.1639
     57  C        -32.2330   -9.0560   19.5490 C.2   162  TYR162      0.2290
     58  O        -32.8080  -10.1420   19.6690 O.2   162  TYR162     -0.2864
     59  CB       -31.3660   -9.2120   21.8860 C.3   162  TYR162      0.0560
     60  CG       -30.1590   -9.4100   22.7770 C.ar  162  TYR162     -0.0198
     61  CD1      -29.5210   -8.3280   23.3750 C.ar  162  TYR162     -0.0009
     62  CD2      -29.6780  -10.6840   23.0530 C.ar  162  TYR162     -0.0009
     63  CE1      -28.4270   -8.5120   24.2060 C.ar  162  TYR162      0.0417
     64  CE2      -28.5850  -10.8780   23.8800 C.ar  162  TYR162      0.0417
     65  CZ       -27.9650   -9.7870   24.4570 C.ar  162  TYR162      0.1957
     66  OH       -26.8810   -9.9650   25.2880 O.3   162  TYR162     -0.2866
     67  N        -31.7110   -5.0410   14.9150 N.3   167  PHE167     -0.1241
     68  CA       -30.2610   -5.1150   15.0540 C.3   167  PHE167      0.1605
     69  C        -29.5840   -5.3670   13.7140 C.2   167  PHE167      0.2264
     70  O        -28.5680   -4.7380   13.3980 O.2   167  PHE167     -0.2867
     71  CB       -29.9190   -6.2200   16.0530 C.3   167  PHE167      0.0534
     72  CG       -28.4780   -6.2820   16.4450 C.ar  167  PHE167     -0.0203
     73  CD1      -27.8550   -5.1960   17.0370 C.ar  167  PHE167     -0.0042
     74  CD2      -27.7600   -7.4540   16.2690 C.ar  167  PHE167     -0.0042
     75  CE1      -26.5300   -5.2690   17.4230 C.ar  167  PHE167     -0.0003
     76  CE2      -26.4380   -7.5390   16.6490 C.ar  167  PHE167     -0.0003
     77  CZ       -25.8190   -6.4450   17.2300 C.ar  167  PHE167     -0.0000
     78  N        -15.8440   -4.9760   14.0740 N.3   177  ARG177     -0.1245
     79  CA       -14.9160   -6.1050   14.1250 C.3   177  ARG177      0.1563
     80  C        -14.2080   -6.2900   12.7910 C.2   177  ARG177      0.2260
     81  O        -12.9760   -6.3850   12.7340 O.2   177  ARG177     -0.2867
     82  CB       -15.6490   -7.3960   14.5030 C.3   177  ARG177      0.0307
     83  CG       -16.5320   -7.3180   15.7260 C.3   177  ARG177      0.0489
     84  CD       -15.7470   -6.8930   16.9420 C.3   177  ARG177      0.2205
     85  NE       -16.6140   -6.9840   18.1070 N.pl3 177  ARG177     -0.0865
     86  CZ       -17.5920   -6.1360   18.3930 C.cat 177  ARG177      0.5346
     87  NH1      -17.8020   -5.0870   17.5910 N.pl3 177  ARG177      0.1354
     88  NH2      -18.3250   -6.3350   19.4600 N.pl3 177  ARG177      0.1354
     89  N        -11.7890   -3.2280   11.5820 N.3   180  ARG180     -0.1245
     90  CA       -10.4040   -3.1670   12.0400 C.3   180  ARG180      0.1563
     91  C         -9.4750   -3.8890   11.0750 C.2   180  ARG180      0.2260
     92  O         -8.3560   -3.4310   10.8170 O.2   180  ARG180     -0.2867
     93  CB       -10.2800   -3.7710   13.4370 C.3   180  ARG180      0.0307
     94  CG       -11.1550   -3.1300   14.4950 C.3   180  ARG180      0.0489
     95  CD       -11.2690   -4.0510   15.6950 C.3   180  ARG180      0.2205
     96  NE       -12.0220   -3.4500   16.7900 N.pl3 180  ARG180     -0.0865
     97  CZ       -11.4890   -2.6440   17.7020 C.cat 180  ARG180      0.5346
     98  NH1      -10.1980   -2.3400   17.6460 N.pl3 180  ARG180      0.1354
     99  NH2      -12.2450   -2.1420   18.6670 N.pl3 180  ARG180      0.1354
    100  N        -17.8930  -13.1850   17.1650 N.3   227  TYR227     -0.1241
    101  CA       -18.8370  -12.3130   17.8550 C.3   227  TYR227      0.1605
    102  C        -19.8280  -13.1940   18.6020 C.2   227  TYR227      0.2264
    103  O        -20.6050  -13.9290   17.9800 O.2   227  TYR227     -0.2867
    104  CB       -19.5550  -11.3890   16.8700 C.3   227  TYR227      0.0534
    105  CG       -20.5650  -10.4540   17.5020 C.ar  227  TYR227     -0.0201
    106  CD1      -21.8750  -10.8600   17.7260 C.ar  227  TYR227     -0.0009
    107  CD2      -20.2150   -9.1570   17.8560 C.ar  227  TYR227     -0.0009
    108  CE1      -22.8030  -10.0060   18.2970 C.ar  227  TYR227      0.0417
    109  CE2      -21.1360   -8.2980   18.4260 C.ar  227  TYR227      0.0417
    110  CZ       -22.4260   -8.7240   18.6430 C.ar  227  TYR227      0.1957
    111  OH       -23.3380   -7.8620   19.2090 O.3   227  TYR227     -0.2866
    112  N        -22.6550  -13.2510   22.0410 N.3   229  LYS229     -0.1245
    113  CA       -23.4260  -12.4420   22.9700 C.3   229  LYS229      0.1561
    114  C        -24.6320  -13.2380   23.4410 C.2   229  LYS229      0.2260
    115  O        -25.3020  -13.8900   22.6390 O.2   229  LYS229     -0.2867
    116  CB       -23.8790  -11.1260   22.3240 C.3   229  LYS229      0.0271
    117  CG       -24.6390  -10.2190   23.2730 C.3   229  LYS229      0.0035
    118  CD       -25.0020   -8.8820   22.6490 C.3   229  LYS229      0.0206
    119  CE       -25.9610   -9.0480   21.4860 C.3   229  LYS229      0.1093
    120  NZ       -26.0700   -7.8010   20.6820 N.3   229  LYS229     -0.1314
    121  N        -14.9480  -12.4330   26.5820 N.3   237  GLU237     -0.1231
    122  CA       -13.6680  -12.2080   25.9260 C.3   237  GLU237      0.1699
    123  C        -13.6980  -10.8840   25.1800 C.2   237  GLU237      0.2592
    124  O        -14.7560  -10.4210   24.7490 O.2   237  GLU237     -0.2718
    125  CB       -13.3280  -13.3030   24.9080 C.3   237  GLU237      0.0402
    126  CG       -12.7840  -14.6000   25.4630 C.3   237  GLU237      0.1161
    127  CD       -12.5860  -15.6130   24.3570 C.2   237  GLU237      0.3649
    128  OE1      -12.4050  -15.1710   23.2050 O.co2 237  GLU237     -0.2457
    129  OE2      -12.6090  -16.8340   24.6260 O.co2 237  GLU237     -0.2457
    130  N        -12.5110  -10.2870   25.0160 N.am  238  ARG238     -0.1980
    131  CA       -12.2860   -9.1870   24.0730 C.3   238  ARG238      0.1597
    132  C        -10.7890   -9.2360   23.7440 C.2   238  ARG238      0.2287
    133  O         -9.9680   -8.4900   24.2840 O.2   238  ARG238     -0.2864
    134  CB       -12.7180   -7.8290   24.6280 C.3   238  ARG238      0.0334
    135  CG       -12.9800   -6.7910   23.5420 C.3   238  ARG238      0.0492
    136  CD       -13.6020   -5.5040   24.0840 C.3   238  ARG238      0.2205
    137  NE       -15.0540   -5.5790   24.2360 N.pl3 238  ARG238     -0.0865
    138  CZ       -15.7070   -5.3560   25.3740 C.cat 238  ARG238      0.5346
    139  NH1      -15.0430   -5.0380   26.4770 N.pl3 238  ARG238      0.1354
    140  NH2      -17.0300   -5.4450   25.4080 N.pl3 238  ARG238      0.1354
    141  N         -8.0740   -3.9680   27.2590 N.3   254  GLU254     -0.1245
    142  CA        -7.2250   -2.8080   27.0310 C.3   254  GLU254      0.1567
    143  C         -5.7630   -3.0740   27.3820 C.2   254  GLU254      0.2260
    144  O         -4.9710   -2.1290   27.4500 O.2   254  GLU254     -0.2867
    145  CB        -7.7550   -1.6120   27.8250 C.3   254  GLU254      0.0388
    146  CG        -9.2150   -1.2820   27.5280 C.3   254  GLU254      0.1160
    147  CD        -9.4120   -0.6850   26.1450 C.2   254  GLU254      0.3649
    148  OE1       -8.6460    0.2300   25.7760 O.co2 254  GLU254     -0.2457
    149  OE2      -10.3270   -1.1400   25.4260 O.co2 254  GLU254     -0.2457
    150  N         -9.4190    5.0950   27.9520 N.3   272  ARG272     -0.1245
    151  CA       -10.7570    5.0850   27.3650 C.3   272  ARG272      0.1563
    152  C        -11.2160    6.5190   27.1310 C.2   272  ARG272      0.2260
    153  O        -11.6970    7.1920   28.0450 O.2   272  ARG272     -0.2867
    154  CB       -11.7270    4.3400   28.2750 C.3   272  ARG272      0.0307
    155  CG       -12.5800    3.3070   27.5650 C.3   272  ARG272      0.0489
    156  CD       -11.7480    2.1010   27.1670 C.3   272  ARG272      0.2205
    157  NE       -12.4610    1.2140   26.2530 N.pl3 272  ARG272     -0.0865
    158  CZ       -12.6510    1.4670   24.9620 C.cat 272  ARG272      0.5346
    159  NH1      -12.1820    2.5860   24.4240 N.pl3 272  ARG272      0.1354
    160  NH2      -13.3110    0.6020   24.2050 N.pl3 272  ARG272      0.1354
@<TRIPOS>BOND
     1    92    91    2
     2    91    90    1
     3    89    90    1
     4    90    93    1
     5    81    80    2
     6    80    79    1
     7    70    69    2
     8    93    94    1
     9    69    68    1
    10    78    79    1
    11    79    82    1
    12    94    95    1
    13    82    83    1
    14    67    68    1
    15    68    71    1
    16    95    96    1
    17    83    84    1
    18    71    72    1
    19     1     2    1
    20    74    72   ar
    21    74    76   ar
    22     5     2    1
    23     5     6    1
    24    72    73   ar
    25    76    77   ar
    26     4     3    2
    27    96    97    2
    28   104   105    1
    29   104   101    1
    30    84    85    1
    31     2     3    1
    32    73    75   ar
    33     8     6   ar
    34     8    10   ar
    35   100   101    1
    36    77    75   ar
    37     6     7   ar
    38   105   106   ar
    39   105   107   ar
    40    87    86    1
    41    98    97    1
    42    97    99    1
    43   106   108   ar
    44   101   102    1
    45   107   109   ar
    46   103   102    2
    47    10    11   ar
    48    85    86    2
    49   108   110   ar
    50    86    88    1
    51   109   110   ar
    52   110   111    1
    53     7     9   ar
    54    11     9   ar
    55    11    12    1
    56    57    58    2
    57    57    56    1
    58    51    50    2
    59    18    17    1
    60    49    50    1
    61    49    48    1
    62    49    52    1
    63    50    55   am
    64    56    55    1
    65    56    59    1
    66    13    14    1
    67    19    17    1
    68   120   119    1
    69    54    52    1
    70    52    53    1
    71    17    14    1
    72    16    15    2
    73    14    15    1
    74   119   118    1
    75    40    39    2
    76    59    60    1
    77   112   113    1
    78    39    38    1
    79   116   113    1
    80   116   117    1
    81   115   114    2
    82   118   117    1
    83    60    62   ar
    84    60    61   ar
    85   113   114    1
    86    62    64   ar
    87   128   127   ar
    88    61    63   ar
    89   135   136    1
    90   135   134    1
    91    38    37    1
    92    38    41    1
    93   132   131    1
    94   132   133    2
    95    46    45    1
    96    64    65   ar
    97   131   134    1
    98   131   130    1
    99   136   137    1
   100   160   158    1
   101    63    65   ar
   102   137   138    2
   103    42    41    1
   104    42    43    1
   105   127   129   ar
   106   127   126    1
   107   159   158    1
   108    65    66    1
   109    45    47    1
   110    45    44    2
   111   124   123    2
   112    20    21    1
   113   125   126    1
   114   125   122    1
   115   158   157    2
   116   130   123   am
   117   123   122    1
   118    43    44    1
   119   138   140    1
   120   138   139    1
   121    24    21    1
   122    24    25    1
   123   149   147   ar
   124   148   147   ar
   125    23    22    2
   126    21    22    1
   127   122   121    1
   128   147   146    1
   129   157   156    1
   130    25    26    1
   131   142   141    1
   132   142   143    1
   133   142   145    1
   134   152   151    1
   135   152   153    2
   136   156   155    1
   137    35    34    2
   138   151   150    1
   139   151   154    1
   140   143   144    2
   141   146   145    1
   142   155   154    1
   143    27    26    1
   144    34    36   am
   145    34    33    1
   146    32    33    1
   147    32    29    1
   148    28    29    1
   149    31    30    2
   150    29    30    1
