@<TRIPOS>MOLECULE
tmp/5b3wB00.pdb
 108 104 0 0 0
SMALL
GASTEIGER

@<TRIPOS>ATOM
      1  N         83.6830   84.2200    8.8680 N.3   132  TYR132     -0.1241
      2  CA        84.9790   84.3030    8.1940 C.3   132  TYR132      0.1605
      3  C         85.0700   85.3960    7.1330 C.2   132  TYR132      0.2264
      4  O         84.0630   85.8200    6.5550 O.2   132  TYR132     -0.2867
      5  CB        85.3780   82.9440    7.6000 C.3   132  TYR132      0.0534
      6  CG        84.5610   82.4930    6.3940 C.ar  132  TYR132     -0.0201
      7  CD1       83.3110   81.8910    6.5540 C.ar  132  TYR132     -0.0009
      8  CD2       85.0550   82.6400    5.1010 C.ar  132  TYR132     -0.0009
      9  CE1       82.5660   81.4720    5.4560 C.ar  132  TYR132      0.0417
     10  CE2       84.3190   82.2240    3.9930 C.ar  132  TYR132      0.0417
     11  CZ        83.0770   81.6390    4.1750 C.ar  132  TYR132      0.1957
     12  OH        82.3460   81.2240    3.0810 O.3   132  TYR132     -0.2866
     13  N         85.8380   86.2370    3.5720 N.3   134  LYS134     -0.1245
     14  CA        85.8760   85.4990    2.3150 C.3   134  LYS134      0.1561
     15  C         87.0890   85.8890    1.4580 C.2   134  LYS134      0.2260
     16  O         87.5970   85.0820    0.6660 O.2   134  LYS134     -0.2867
     17  CB        84.5790   85.7240    1.5290 C.3   134  LYS134      0.0271
     18  CG        83.3060   85.2180    2.2070 C.3   134  LYS134      0.0035
     19  CD        82.0820   86.0130    1.7260 C.3   134  LYS134      0.0206
     20  CE        81.0270   85.1140    1.0790 C.3   134  LYS134      0.1093
     21  NZ        79.7420   85.8210    0.7440 N.3   134  LYS134     -0.1314
     22  N         88.7080   82.1670    1.5040 N.3   138  PRO138     -0.2102
     23  CA        87.5010   81.8130    0.7500 C.3   138  PRO138      0.1504
     24  C         87.0210   80.4040    1.0860 C.2   138  PRO138      0.2575
     25  O         85.8190   80.1160    0.9660 O.2   138  PRO138     -0.2718
     26  CB        87.9630   81.8910   -0.7090 C.3   138  PRO138      0.0282
     27  CG        89.4370   81.6190   -0.6470 C.3   138  PRO138      0.0208
     28  CD        89.8990   82.2550    0.6390 C.3   138  PRO138      0.0893
     29  N         87.9430   79.5370    1.5000 N.am  139  ASN139     -0.1975
     30  CA        87.5470   78.2090    1.9430 C.3   139  ASN139      0.1688
     31  C         88.0170   77.9060    3.3760 C.2   139  ASN139      0.2292
     32  O         89.1250   77.4040    3.6030 O.2   139  ASN139     -0.2864
     33  CB        87.9480   77.1490    0.9120 C.3   139  ASN139      0.1181
     34  CG        87.2590   77.3740   -0.4340 C.2   139  ASN139      0.2629
     35  OD1       87.8370   77.9620   -1.3530 O.2   139  ASN139     -0.2716
     36  ND2       86.0030   76.9430   -0.5380 N.am  139  ASN139     -0.0877
     37  N         87.5040   73.2080    7.8720 N.3   142  LYS142     -0.1245
     38  CA        86.3760   72.4150    8.3420 C.3   142  LYS142      0.1561
     39  C         86.7240   71.7680    9.6830 C.2   142  LYS142      0.2260
     40  O         85.9290   71.0340   10.2820 O.2   142  LYS142     -0.2867
     41  CB        85.9980   71.3560    7.3050 C.3   142  LYS142      0.0271
     42  CG        85.6820   71.9380    5.9240 C.3   142  LYS142      0.0035
     43  CD        84.3540   71.4280    5.3460 C.3   142  LYS142      0.0206
     44  CE        83.1280   72.1000    5.9840 C.3   142  LYS142      0.1093
     45  NZ        82.5790   73.2390    5.1790 N.3   142  LYS142     -0.1314
     46  N         81.9150   88.9920    4.4660 N.3   257  TYR257     -0.1227
     47  CA        81.9040   87.8620    5.3910 C.3   257  TYR257      0.1736
     48  C         80.9700   86.7300    5.0100 C.2   257  TYR257      0.2596
     49  O         80.0150   86.9150    4.2500 O.2   257  TYR257     -0.2718
     50  CB        81.6170   88.3210    6.8210 C.3   257  TYR257      0.0548
     51  CG        80.2020   88.7960    7.0840 C.ar  257  TYR257     -0.0200
     52  CD1       79.8050   90.0800    6.7330 C.ar  257  TYR257     -0.0009
     53  CD2       79.2770   87.9700    7.7340 C.ar  257  TYR257     -0.0009
     54  CE1       78.5220   90.5280    7.0010 C.ar  257  TYR257      0.0417
     55  CE2       77.9810   88.4080    8.0070 C.ar  257  TYR257      0.0417
     56  CZ        77.6150   89.6870    7.6360 C.ar  257  TYR257      0.1957
     57  OH        76.3460   90.1320    7.8990 O.3   257  TYR257     -0.2866
     58  N         81.2870   85.5500    5.5330 N.am  258  GLY258     -0.1942
     59  CA        80.4430   84.3860    5.3940 C.3   258  GLY258      0.2014
     60  C         80.1040   83.8840    6.7850 C.2   258  GLY258      0.2639
     61  O         80.8860   84.0760    7.7290 O.2   258  GLY258     -0.2714
     62  N         78.9340   83.2670    6.9190 N.am  259  VAL259     -0.1963
     63  CA        78.5700   82.6050    8.1540 C.3   259  VAL259      0.1727
     64  C         78.4490   81.1160    7.8320 C.2   259  VAL259      0.2617
     65  O         77.7310   80.7340    6.8970 O.2   259  VAL259     -0.2715
     66  CB        77.2580   83.1690    8.7190 C.3   259  VAL259      0.0290
     67  CG1       76.9290   82.5260   10.0830 C.3   259  VAL259      0.0023
     68  CG2       77.3530   84.6920    8.8480 C.3   259  VAL259      0.0023
     69  N         79.1530   80.2730    8.5830 N.am  260  THR260     -0.1937
     70  CA        79.2260   78.8690    8.1980 C.3   260  THR260      0.2028
     71  C         79.2560   77.9350    9.3930 C.2   260  THR260      0.2642
     72  O         79.3660   78.3870   10.5380 O.2   260  THR260     -0.2714
     73  CB        80.4680   78.5950    7.3290 C.3   260  THR260      0.1808
     74  OG1       80.3380   77.3160    6.7010 O.3   260  THR260     -0.2208
     75  CG2       81.7570   78.6430    8.1870 C.3   260  THR260      0.0379
     76  N         79.1520   76.6350    9.1100 N.am  261  VAL261     -0.1977
     77  CA        79.2190   75.5950   10.1370 C.3   261  VAL261      0.1596
     78  C         80.5360   75.6890   10.9210 C.2   261  VAL261      0.2287
     79  O         81.5890   75.9520   10.3420 O.2   261  VAL261     -0.2864
     80  CB        79.0670   74.1730    9.5160 C.3   261  VAL261      0.0276
     81  CG1       80.2600   73.8300    8.6140 C.3   261  VAL261      0.0022
     82  CG2       78.9160   73.1130   10.6070 C.3   261  VAL261      0.0022
     83  N         71.2200   82.6880    3.8540 N.3   330  PRO330     -0.2116
     84  CA        72.2250   81.6740    4.1940 C.3   330  PRO330      0.1372
     85  C         72.7700   81.8310    5.6140 C.2   330  PRO330      0.2244
     86  O         73.0690   80.8090    6.2460 O.2   330  PRO330     -0.2868
     87  CB        73.3450   81.9260    3.1710 C.3   330  PRO330      0.0268
     88  CG        73.0400   83.2760    2.5560 C.3   330  PRO330      0.0207
     89  CD        71.5540   83.3840    2.5960 C.3   330  PRO330      0.0892
     90  N         70.3120   80.0630    7.8380 N.3   333  ALA333     -0.1231
     91  CA        70.4590   78.6270    7.6070 C.3   333  ALA333      0.1694
     92  C         71.6720   78.0650    8.3500 C.2   333  ALA333      0.2591
     93  O         71.5940   77.0070    8.9800 O.2   333  ALA333     -0.2718
     94  CB        70.5960   78.3550    6.1260 C.3   333  ALA333      0.0304
     95  N         72.8000   78.7620    8.2450 N.am  334  ALA334     -0.1980
     96  CA        74.0230   78.3670    8.9480 C.3   334  ALA334      0.1597
     97  C         73.8360   78.3860   10.4730 C.2   334  ALA334      0.2287
     98  O         74.2790   77.4670   11.1700 O.2   334  ALA334     -0.2864
     99  CB        75.1860   79.2600    8.5390 C.3   334  ALA334      0.0319
    100  N         72.0520   75.3170   11.3110 N.3   337  GLU337     -0.1245
    101  CA        72.9060   74.1470   11.1380 C.3   337  GLU337      0.1567
    102  C         73.7330   73.9330   12.4050 C.2   337  GLU337      0.2260
    103  O         73.8210   72.8170   12.9290 O.2   337  GLU337     -0.2867
    104  CB        73.8440   74.3650    9.9530 C.3   337  GLU337      0.0388
    105  CG        74.6220   73.1410    9.5540 C.3   337  GLU337      0.1160
    106  CD        75.4910   73.3750    8.3240 C.2   337  GLU337      0.3649
    107  OE1       75.3210   74.4250    7.6570 O.co2 337  GLU337     -0.2457
    108  OE2       76.3440   72.5060    8.0280 O.co2 337  GLU337     -0.2457
@<TRIPOS>BOND
     1    35    34    2
     2    26    27    1
     3    26    23    1
     4    27    28    1
     5    36    34   am
     6    34    33    1
     7    28    22    1
     8    16    15    2
     9    21    20    1
    10    23    24    1
    11    23    22    1
    12    33    30    1
    13    25    24    2
    14    20    19    1
    15    24    29   am
    16    15    14    1
    17    29    30    1
    18    17    18    1
    19    17    14    1
    20    19    18    1
    21    30    31    1
    22    14    13    1
    23    88    89    1
    24    88    87    1
    25    89    83    1
    26    12    11    1
    27    87    84    1
    28    31    32    2
    29    83    84    1
    30    10    11   ar
    31    10     8   ar
    32    11     9   ar
    33    84    85    1
    34    49    48    2
    35    46    47    1
    36    48    47    1
    37    48    58   am
    38     8     6   ar
    39    45    44    1
    40    43    42    1
    41    43    44    1
    42    47    50    1
    43    59    58    1
    44    59    60    1
    45     9     7   ar
    46    85    86    2
    47    42    41    1
    48    94    91    1
    49     6     7   ar
    50     6     5    1
    51     4     3    2
    52    74    73    1
    53    52    54   ar
    54    52    51   ar
    55    60    62   am
    56    60    61    2
    57    50    51    1
    58    65    64    2
    59    62    63    1
    60    54    56   ar
    61    51    53   ar
    62     3     2    1
    63    41    38    1
    64    73    75    1
    65    73    70    1
    66     5     2    1
    67    91    90    1
    68    91    92    1
    69    56    57    1
    70    56    55   ar
    71   107   106   ar
    72    53    55   ar
    73    64    63    1
    74    64    69   am
    75    37    38    1
    76   108   106   ar
    77    63    66    1
    78     2     1    1
    79    70    69    1
    80    70    71    1
    81    95    92   am
    82    95    96    1
    83   106   105    1
    84    38    39    1
    85    92    93    2
    86    99    96    1
    87    81    80    1
    88    66    68    1
    89    66    67    1
    90    96    97    1
    91    76    71   am
    92    76    77    1
    93    71    72    2
    94    80    77    1
    95    80    82    1
    96   105   104    1
    97    39    40    2
    98   104   101    1
    99    77    78    1
   100    79    78    2
   101    97    98    2
   102   101   100    1
   103   101   102    1
   104   102   103    2
