@<TRIPOS>MOLECULE
tmp/5b46B00.pdb
 150 143 0 0 0
SMALL
GASTEIGER

@<TRIPOS>ATOM
      1  N         15.4310  -13.3660   11.5350 N.3    14  ASP14      -0.1239
      2  CA        16.2210  -14.1320   12.5400 C.3    14  ASP14       0.1674
      3  C         17.7470  -14.0580   12.3150 C.2    14  ASP14       0.2266
      4  O         18.4970  -14.0730   13.2850 O.2    14  ASP14      -0.2867
      5  CB        15.7440  -15.5870   12.7520 C.3    14  ASP14       0.1410
      6  CG        14.4060  -15.6840   13.5440 C.2    14  ASP14       0.3668
      7  OD1       14.1030  -14.7880   14.4140 O.co2  14  ASP14      -0.2456
      8  OD2       13.6620  -16.6910   13.3110 O.co2  14  ASP14      -0.2456
      9  N         10.1980  -23.0870   21.3060 N.3    41  ILE41      -0.1231
     10  CA         9.8900  -23.8250   20.1130 C.3    41  ILE41       0.1692
     11  C          9.3050  -22.8880   19.0520 C.2    41  ILE41       0.2593
     12  O          8.3010  -22.2050   19.2750 O.2    41  ILE41      -0.2718
     13  CB         8.8990  -25.0150   20.3200 C.3    41  ILE41       0.0266
     14  CG1        9.1780  -25.7810   21.6290 C.3    41  ILE41       0.0019
     15  CG2        8.9710  -25.9470   19.0820 C.3    41  ILE41       0.0020
     16  CD1       10.4250  -26.6400   21.5610 C.3    41  ILE41       0.0001
     17  N          9.8600  -23.0140   17.8620 N.am   42  GLY42      -0.1942
     18  CA         9.4670  -22.2510   16.6670 C.3    42  GLY42       0.2014
     19  C         10.7660  -22.0200   15.8640 C.2    42  GLY42       0.2639
     20  O         11.8530  -22.5220   16.2520 O.2    42  GLY42      -0.2714
     21  N         10.6630  -21.2690   14.7490 N.am   43  CYS43      -0.1953
     22  CA        11.8640  -20.8200   13.9880 C.3    43  CYS43       0.1843
     23  C         12.8630  -20.1120   14.9370 C.2    43  CYS43       0.2626
     24  O         14.0480  -20.5000   14.9980 O.2    43  CYS43      -0.2714
     25  CB        11.4640  -19.9290   12.7580 C.3    43  CYS43       0.0997
     26  SG        10.2950  -20.8240   11.6480 S.3    43  CYS43      -0.0797
     27  N         12.3430  -19.1340   15.6870 N.am   44  SER44      -0.1950
     28  CA        13.0550  -18.4250   16.7780 C.3    44  SER44       0.1924
     29  C         13.8990  -19.3490   17.6610 C.2    44  SER44       0.2314
     30  O         15.1130  -19.1050   17.8600 O.2    44  SER44      -0.2863
     31  CB        12.0130  -17.7130   17.6740 C.3    44  SER44       0.2116
     32  OG        10.9310  -18.5780   18.0000 O.3    44  SER44      -0.2180
     33  N          7.6620  -25.7430   24.4750 N.3    62  HIS62      -0.1241
     34  CA         6.9110  -24.5950   23.9450 C.3    62  HIS62       0.1621
     35  C          6.3520  -23.7570   25.0980 C.2    62  HIS62       0.2264
     36  O          5.5000  -24.1990   25.8640 O.2    62  HIS62      -0.2867
     37  CB         5.7850  -25.0570   22.9930 C.3    62  HIS62       0.0745
     38  CG         5.1790  -23.9610   22.1640 C.ar   62  HIS62       0.0817
     39  ND1        5.8900  -22.8560   21.7220 N.ar   62  HIS62      -0.2268
     40  CD2        3.9200  -23.8260   21.6680 C.ar   62  HIS62       0.1154
     41  CE1        5.0770  -22.0820   21.0050 C.ar   62  HIS62       0.1986
     42  NE2        3.8870  -22.6650   20.9270 N.ar   62  HIS62      -0.2212
     43  N          8.1430  -22.6930   27.7230 N.3    64  ARG64      -0.1245
     44  CA         8.6830  -23.0480   29.0120 C.3    64  ARG64       0.1563
     45  C         10.1660  -22.5440   29.2210 C.2    64  ARG64       0.2260
     46  O         10.7330  -22.8020   30.2670 O.2    64  ARG64      -0.2867
     47  CB         8.5900  -24.5550   29.1950 C.3    64  ARG64       0.0307
     48  CG         7.1700  -25.1980   29.0600 C.3    64  ARG64       0.0489
     49  CD         6.0090  -24.6960   29.9690 C.3    64  ARG64       0.2205
     50  NE         4.7040  -25.0590   29.3690 N.pl3  64  ARG64      -0.0865
     51  CZ         3.5250  -24.4490   29.5670 C.cat  64  ARG64       0.5346
     52  NH1        3.3700  -23.4640   30.4760 N.pl3  64  ARG64       0.1354
     53  NH2        2.4530  -24.8350   28.8560 N.pl3  64  ARG64       0.1354
     54  N         10.0910  -17.1040   20.6930 N.3    86  GLY86      -0.1210
     55  CA         9.1570  -16.6190   19.6880 C.3    86  GLY86       0.1956
     56  C          8.0540  -15.8150   20.3680 C.2    86  GLY86       0.2612
     57  O          7.8890  -15.9180   21.5610 O.2    86  GLY86      -0.2717
     58  N          7.3220  -14.9810   19.6370 N.am   87  ASP87      -0.1959
     59  CA         6.1480  -14.3010   20.2150 C.3    87  ASP87       0.1840
     60  C          4.9920  -15.2790   20.5930 C.2    87  ASP87       0.2623
     61  O          4.3450  -15.0940   21.6220 O.2    87  ASP87      -0.2715
     62  CB         5.6450  -13.0770   19.3690 C.3    87  ASP87       0.1450
     63  CG         5.4600  -13.3970   17.8350 C.2    87  ASP87       0.3671
     64  OD1        5.7050  -14.5230   17.4180 O.co2  87  ASP87      -0.2456
     65  OD2        5.0630  -12.5080   17.0420 O.co2  87  ASP87      -0.2456
     66  N          4.6950  -16.2840   19.7810 N.am   88  GLY88      -0.1940
     67  CA         3.6520  -17.2850   20.1950 C.3    88  GLY88       0.2014
     68  C          4.0630  -18.0410   21.4770 C.2    88  GLY88       0.2638
     69  O          3.3310  -18.0950   22.4930 O.2    88  GLY88      -0.2714
     70  N          5.2730  -18.5760   21.4350 N.am   89  ASP89      -0.1971
     71  CA         5.9200  -19.2630   22.5610 C.3    89  ASP89       0.1709
     72  C          5.9390  -18.3860   23.8200 C.2    89  ASP89       0.2293
     73  O          5.4400  -18.7640   24.9010 O.2    89  ASP89      -0.2864
     74  CB         7.3790  -19.6360   22.1190 C.3    89  ASP89       0.1436
     75  CG         8.1260  -20.4740   23.1340 C.2    89  ASP89       0.3671
     76  OD1        8.6500  -19.9890   24.2110 O.co2  89  ASP89      -0.2456
     77  OD2        8.1300  -21.6670   22.8660 O.co2  89  ASP89      -0.2456
     78  N          1.4670  -19.3710   24.7580 N.3    93  ILE93      -0.1245
     79  CA         1.5470  -20.4370   25.7490 C.3    93  ILE93       0.1561
     80  C          2.3940  -20.1190   26.9960 C.2    93  ILE93       0.2260
     81  O          2.0990  -20.5970   28.0850 O.2    93  ILE93      -0.2867
     82  CB         2.0000  -21.7350   25.0510 C.3    93  ILE93       0.0252
     83  CG1        2.1420  -22.9150   26.0560 C.3    93  ILE93       0.0019
     84  CG2        3.2630  -21.5360   24.2420 C.3    93  ILE93       0.0019
     85  CD1        1.9330  -24.2580   25.3810 C.3    93  ILE93       0.0001
     86  N         11.3350  -12.7950   19.7510 N.3   113  HIS113     -0.1241
     87  CA        11.2850  -12.6930   18.2890 C.3   113  HIS113      0.1621
     88  C          9.8440  -12.3850   17.8050 C.2   113  HIS113      0.2264
     89  O          8.9930  -13.2720   17.6060 O.2   113  HIS113     -0.2867
     90  CB        11.7360  -13.9620   17.6400 C.3   113  HIS113      0.0745
     91  CG        13.1460  -14.3480   17.9640 C.ar  113  HIS113      0.0817
     92  ND1       13.9880  -14.8660   17.0130 N.ar  113  HIS113     -0.2268
     93  CD2       13.8230  -14.4040   19.1350 C.ar  113  HIS113      0.1154
     94  CE1       15.1420  -15.1820   17.5700 C.ar  113  HIS113      0.1986
     95  NE2       15.0630  -14.9210   18.8560 N.ar  113  HIS113     -0.2212
     96  N          7.6330  -11.5920   15.1480 N.3   115  ASN115     -0.1240
     97  CA         7.3170  -11.6570   13.6860 C.3   115  ASN115      0.1653
     98  C          5.8140  -11.5720   13.3670 C.2   115  ASN115      0.2266
     99  O          5.4180  -11.5030   12.1880 O.2   115  ASN115     -0.2867
    100  CB         7.9480  -12.8990   13.0240 C.3   115  ASN115      0.1155
    101  CG         7.5760  -14.2080   13.7260 C.2   115  ASN115      0.2627
    102  OD1        6.6630  -14.2350   14.5810 O.2   115  ASN115     -0.2716
    103  ND2        8.2700  -15.2890   13.3870 N.am  115  ASN115     -0.0877
    104  N          3.5450  -13.8940   13.8910 N.3   117  VAL117     -0.1231
    105  CA         3.0480  -15.1860   13.4480 C.3   117  VAL117      0.1692
    106  C          3.7830  -16.3550   14.1960 C.2   117  VAL117      0.2592
    107  O          4.8080  -16.1470   14.9270 O.2   117  VAL117     -0.2718
    108  CB         3.1710  -15.4200   11.8810 C.3   117  VAL117      0.0266
    109  CG1        2.4260  -14.3490   11.0990 C.3   117  VAL117      0.0020
    110  CG2        4.6360  -15.5250   11.4200 C.3   117  VAL117      0.0020
    111  N          3.2020  -17.5550   14.0170 N.am  118  TYR118     -0.1962
    112  CA         3.8220  -18.8550   14.3160 C.3   118  TYR118      0.1771
    113  C          4.4760  -19.3630   12.9970 C.2   118  TYR118      0.2620
    114  O          3.8180  -20.0930   12.2250 O.2   118  TYR118     -0.2715
    115  CB         2.7820  -19.8900   14.7930 C.3   118  TYR118      0.0574
    116  CG         1.8890  -19.5340   15.9710 C.ar  118  TYR118     -0.0198
    117  CD1        2.1610  -18.4470   16.8370 C.ar  118  TYR118     -0.0009
    118  CD2        0.7530  -20.3270   16.2500 C.ar  118  TYR118     -0.0009
    119  CE1        1.2940  -18.1380   17.9060 C.ar  118  TYR118      0.0417
    120  CE2       -0.0920  -20.0370   17.3380 C.ar  118  TYR118      0.0417
    121  CZ         0.1870  -18.9420   18.1560 C.ar  118  TYR118      0.1957
    122  OH        -0.6270  -18.6600   19.2050 O.3   118  TYR118     -0.2866
    123  N          5.7220  -18.9090   12.7310 N.am  119  GLY119     -0.1940
    124  CA         6.5210  -19.2910   11.5230 C.3   119  GLY119      0.2014
    125  C          6.5660  -20.7870   11.3180 C.2   119  GLY119      0.2639
    126  O          6.1420  -21.3140   10.2670 O.2   119  GLY119     -0.2714
    127  N          7.0130  -21.4860   12.3650 N.am  120  LEU120     -0.1963
    128  CA         7.3020  -22.9100   12.2420 C.3   120  LEU120      0.1728
    129  C          6.0620  -23.7910   11.9680 C.2   120  LEU120      0.2616
    130  O          6.1960  -24.7970   11.2800 O.2   120  LEU120     -0.2715
    131  CB         8.0880  -23.4430   13.4690 C.3   120  LEU120      0.0311
    132  CG         8.7270  -24.8380   13.2930 C.3   120  LEU120      0.0022
    133  CD1        9.5670  -24.9550   12.0090 C.3   120  LEU120      0.0001
    134  CD2        9.5100  -25.1460   14.5700 C.3   120  LEU120      0.0001
    135  N          4.8720  -23.4000   12.4400 N.am  121  THR121     -0.1951
    136  CA         3.6120  -24.1900   12.1550 C.3   121  THR121      0.1897
    137  C          2.7740  -23.6440   10.9490 C.2   121  THR121      0.2313
    138  O          1.5620  -23.9870   10.7830 O.2   121  THR121     -0.2863
    139  CB         2.7280  -24.3480   13.4700 C.3   121  THR121      0.1794
    140  OG1        2.4320  -23.0670   14.0530 O.3   121  THR121     -0.2208
    141  CG2        3.4420  -25.3130   14.5780 C.3   121  THR121      0.0378
    142  N         10.6780   -8.2520   14.0280 N.3   192  GLN192     -0.1245
    143  CA        11.3910   -9.1540   13.1900 C.3   192  GLN192      0.1566
    144  C         10.5860   -9.6860   12.0100 C.2   192  GLN192      0.2260
    145  O          9.7450  -10.5540   12.1610 O.2   192  GLN192     -0.2867
    146  CB        12.0770  -10.2000   14.0570 C.3   192  GLN192      0.0367
    147  CG        11.3190  -11.3960   14.4860 C.3   192  GLN192      0.0905
    148  CD        11.6810  -12.5940   13.6600 C.2   192  GLN192      0.2608
    149  OE1       12.5620  -12.5070   12.7970 O.2   192  GLN192     -0.2717
    150  NE2       10.9970  -13.7150   13.9140 N.am  192  GLN192     -0.0878
@<TRIPOS>BOND
     1   126   125    2
     2   138   137    2
     3   137   136    1
     4   109   108    1
     5   130   129    2
     6   125   124    1
     7   125   127   am
     8   110   108    1
     9   124   123    1
    10     1     2    1
    11    26    25    1
    12   108   105    1
    13   129   128    1
    14   129   135   am
    15   133   132    1
    16   144   145    2
    17   144   143    1
    18   136   135    1
    19   136   139    1
    20    99    98    2
    21   114   113    2
    22   128   127    1
    23   128   131    1
    24     3     2    1
    25     3     4    2
    26     2     5    1
    27   123   113   am
    28     5     6    1
    29    25    22    1
    30   149   148    2
    31   113   112    1
    32   100    97    1
    33   100   101    1
    34   143   142    1
    35   143   146    1
    36   132   131    1
    37   132   134    1
    38     8     6   ar
    39    98    97    1
    40   103   101   am
    41   105   104    1
    42   105   106    1
    43   139   140    1
    44   139   141    1
    45     6     7   ar
    46   148   150   am
    47   148   147    1
    48    97    96    1
    49   101   102    2
    50    22    21    1
    51    22    23    1
    52   111   106   am
    53   111   112    1
    54   146   147    1
    55   106   107    2
    56   112   115    1
    57    21    19   am
    58   115   116    1
    59    23    24    2
    60    23    27   am
    61    27    28    1
    62    19    20    2
    63    19    18    1
    64   116   118   ar
    65   116   117   ar
    66   118   120   ar
    67    18    17    1
    68    28    29    1
    69    28    31    1
    70   117   119   ar
    71    92    94   ar
    72    92    91   ar
    73    65    63   ar
    74   120   121   ar
    75    64    63   ar
    76    94    95   ar
    77    89    88    2
    78    90    91    1
    79    90    87    1
    80    29    30    2
    81    31    32    1
    82    88    87    1
    83    63    62    1
    84    17    11   am
    85   119   121   ar
    86    91    93   ar
    87   121   122    1
    88    87    86    1
    89    95    93   ar
    90    11    12    2
    91    11    10    1
    92    15    13    1
    93    62    59    1
    94    58    59    1
    95    58    56   am
    96    55    56    1
    97    55    54    1
    98    66    67    1
    99    66    60   am
   100    10    13    1
   101    10     9    1
   102    67    68    1
   103    59    60    1
   104    13    14    1
   105    56    57    2
   106    60    61    2
   107    42    41   ar
   108    42    40   ar
   109    41    39   ar
   110    70    68   am
   111    70    71    1
   112    68    69    2
   113    16    14    1
   114    40    38   ar
   115    39    38   ar
   116    74    71    1
   117    74    75    1
   118    38    37    1
   119    71    72    1
   120    77    75   ar
   121    37    34    1
   122    75    76   ar
   123    72    73    2
   124    34    33    1
   125    34    35    1
   126    84    82    1
   127    78    79    1
   128    82    79    1
   129    82    83    1
   130    35    36    2
   131    85    83    1
   132    79    80    1
   133    80    81    2
   134    43    44    1
   135    53    51    1
   136    44    47    1
   137    44    45    1
   138    48    47    1
   139    48    49    1
   140    45    46    2
   141    50    51    2
   142    50    49    1
   143    51    52    1
