@<TRIPOS>MOLECULE
tmp/5b47A00.pdb
 83 80 0 0 0
SMALL
GASTEIGER

@<TRIPOS>ATOM
      1  N         -4.6990  -25.6820   19.3280 N.3   253  TYR253     -0.1228
      2  CA        -3.5210  -24.8840   19.2840 C.3   253  TYR253      0.1721
      3  C         -2.6810  -25.3500   18.0860 C.2   253  TYR253      0.2437
      4  O         -2.5530  -26.5460   17.8490 O.2   253  TYR253     -0.2733
      5  CB        -2.7770  -25.0830   20.5920 C.3   253  TYR253      0.0547
      6  CG        -1.5760  -24.2120   20.7000 C.ar  253  TYR253     -0.0200
      7  CD1       -1.7120  -22.8770   20.9920 C.ar  253  TYR253     -0.0009
      8  CD2       -0.3010  -24.7030   20.4170 C.ar  253  TYR253     -0.0009
      9  CE1       -0.6290  -22.0340   21.0390 C.ar  253  TYR253      0.0417
     10  CE2        0.8000  -23.8750   20.5080 C.ar  253  TYR253      0.0417
     11  CZ         0.6320  -22.5500   20.8080 C.ar  253  TYR253      0.1957
     12  OH         1.7080  -21.7100   20.8690 O.3   253  TYR253     -0.2866
     13  N         -2.0940  -24.4230   17.3320 N.am  254  PRO254     -0.2718
     14  CA        -1.3510  -24.9280   16.1300 C.3   254  PRO254      0.1535
     15  C         -0.2360  -25.9100   16.4370 C.2   254  PRO254      0.2598
     16  O          0.5530  -25.6910   17.3200 O.2   254  PRO254     -0.2715
     17  CB        -0.7790  -23.6680   15.4950 C.3   254  PRO254      0.0310
     18  CG        -1.7510  -22.5710   15.9340 C.3   254  PRO254      0.0237
     19  CD        -2.1550  -22.9510   17.3570 C.3   254  PRO254      0.0939
     20  N         -0.2270  -27.0370   15.7660 N.am  255  ILE255     -0.1964
     21  CA         0.8650  -27.9760   15.9130 C.3   255  ILE255      0.1727
     22  C          0.7920  -28.8090   14.6440 C.2   255  ILE255      0.2616
     23  O         -0.3270  -29.1410   14.1810 O.2   255  ILE255     -0.2715
     24  CB         0.7560  -28.7670   17.2510 C.3   255  ILE255      0.0290
     25  CG1        1.9780  -29.6890   17.4640 C.3   255  ILE255      0.0022
     26  CG2       -0.5580  -29.5420   17.3680 C.3   255  ILE255      0.0023
     27  CD1        2.1500  -30.0640   18.9510 C.3   255  ILE255      0.0001
     28  N          1.9570  -29.0830   14.0730 N.am  256  THR256     -0.1951
     29  CA         2.0570  -29.3700   12.6200 C.3   256  THR256      0.1897
     30  C          0.9950  -30.3850   12.2380 C.2   256  THR256      0.2313
     31  O          0.0730  -30.0340   11.4450 O.2   256  THR256     -0.2863
     32  CB         3.4860  -29.8010   12.0730 C.3   256  THR256      0.1794
     33  OG1        4.2710  -30.4480   13.0840 O.3   256  THR256     -0.2208
     34  CG2        4.2970  -28.5790   11.5100 C.3   256  THR256      0.0378
     35  N         -2.6700  -25.2960   24.8960 N.3   293  GLU293     -0.1245
     36  CA        -3.4370  -26.5210   24.9050 C.3   293  GLU293      0.1567
     37  C         -4.2770  -26.7450   26.1060 C.2   293  GLU293      0.2260
     38  O         -5.2350  -27.5230   26.0080 O.2   293  GLU293     -0.2867
     39  CB        -2.5130  -27.7570   24.7760 C.3   293  GLU293      0.0388
     40  CG        -2.0890  -27.9660   23.3620 C.3   293  GLU293      0.1160
     41  CD        -0.7810  -27.3330   23.0730 C.2   293  GLU293      0.3649
     42  OE1       -0.3190  -26.5150   23.9260 O.co2 293  GLU293     -0.2457
     43  OE2       -0.2720  -27.6340   21.9580 O.co2 293  GLU293     -0.2457
     44  N          3.2830  -33.2490   22.5840 N.3   317  PRO317     -0.2116
     45  CA         3.5060  -32.1910   23.5280 C.3   317  PRO317      0.1372
     46  C          2.2080  -31.5600   23.9810 C.2   317  PRO317      0.2244
     47  O          2.0110  -31.2530   25.1440 O.2   317  PRO317     -0.2868
     48  CB         4.3340  -31.1560   22.7010 C.3   317  PRO317      0.0268
     49  CG         4.9190  -31.9480   21.5890 C.3   317  PRO317      0.0207
     50  CD         3.8520  -32.9350   21.2640 C.3   317  PRO317      0.0892
     51  N          0.1490  -31.6200   27.9480 N.3   321  LEU321     -0.1245
     52  CA        -0.5230  -30.4610   28.5450 C.3   321  LEU321      0.1561
     53  C         -2.0110  -30.6370   28.8210 C.2   321  LEU321      0.2260
     54  O         -2.5230  -30.0160   29.7200 O.2   321  LEU321     -0.2867
     55  CB        -0.3070  -29.1740   27.7550 C.3   321  LEU321      0.0270
     56  CG         1.1080  -28.6770   27.4990 C.3   321  LEU321      0.0019
     57  CD1        1.1980  -27.4900   26.5240 C.3   321  LEU321      0.0001
     58  CD2        1.7730  -28.2980   28.8190 C.3   321  LEU321      0.0001
     59  N          2.8080  -38.2370   16.9230 N.3   343  ARG343     -0.1245
     60  CA         4.0190  -37.9600   16.1240 C.3   343  ARG343      0.1563
     61  C          5.2840  -38.4840   16.7950 C.2   343  ARG343      0.2260
     62  O          5.2220  -39.0430   17.8690 O.2   343  ARG343     -0.2867
     63  CB         4.1060  -36.4680   15.8400 C.3   343  ARG343      0.0307
     64  CG         4.6070  -35.6400   16.9710 C.3   343  ARG343      0.0489
     65  CD         4.5460  -34.1600   16.6080 C.3   343  ARG343      0.2205
     66  NE         5.5110  -33.4840   17.4240 N.pl3 343  ARG343     -0.0865
     67  CZ         5.6380  -32.1710   17.5400 C.cat 343  ARG343      0.5346
     68  NH1        4.8630  -31.3320   16.8300 N.pl3 343  ARG343      0.1354
     69  NH2        6.6150  -31.6950   18.3200 N.pl3 343  ARG343      0.1354
     70  N          9.7430  -32.3540   21.9530 N.3   348  THR348     -0.1218
     71  CA         9.4120  -31.8290   20.5950 C.3   348  THR348      0.1862
     72  C          9.5620  -32.9630   19.5570 C.2   348  THR348      0.2287
     73  O          8.8080  -33.0430   18.5740 O.2   348  THR348     -0.2866
     74  CB        10.4290  -30.7400   20.1590 C.3   348  THR348      0.1770
     75  OG1       10.7810  -29.9230   21.2690 O.3   348  THR348     -0.2211
     76  CG2        9.9080  -29.9150   18.9570 C.3   348  THR348      0.0375
     77  N          8.8980  -33.3510   14.9500 N.3   351  PRO351     -0.2116
     78  CA         7.6120  -32.7010   14.7560 C.3   351  PRO351      0.1372
     79  C          6.8760  -33.0840   13.4480 C.2   351  PRO351      0.2244
     80  O          5.6290  -33.0090   13.4090 O.2   351  PRO351     -0.2868
     81  CB         7.9670  -31.1870   14.7670 C.3   351  PRO351      0.0268
     82  CG         9.3750  -31.0450   15.2570 C.3   351  PRO351      0.0207
     83  CD         9.9170  -32.4200   15.4860 C.3   351  PRO351      0.0892
@<TRIPOS>BOND
     1    31    30    2
     2    34    32    1
     3    32    29    1
     4    32    33    1
     5    30    29    1
     6    29    28    1
     7    80    79    2
     8    79    78    1
     9    28    22   am
    10    23    22    2
    11    22    21    1
    12    78    81    1
    13    78    77    1
    14    81    82    1
    15    77    83    1
    16    82    83    1
    17    17    18    1
    18    17    14    1
    19    20    21    1
    20    20    15   am
    21    63    60    1
    22    63    64    1
    23    21    24    1
    24    18    19    1
    25    60    61    1
    26    60    59    1
    27    14    15    1
    28    14    13    1
    29    15    16    2
    30    65    64    1
    31    65    66    1
    32    61    62    2
    33    68    67    1
    34    24    26    1
    35    24    25    1
    36    13    19    1
    37    13     3   am
    38    66    67    2
    39    25    27    1
    40    67    69    1
    41     4     3    2
    42     3     2    1
    43    73    72    2
    44    76    74    1
    45     2     1    1
    46     2     5    1
    47    72    71    1
    48    74    71    1
    49    74    75    1
    50     8    10   ar
    51     8     6   ar
    52    10    11   ar
    53     5     6    1
    54    71    70    1
    55     6     7   ar
    56    11    12    1
    57    11     9   ar
    58     7     9   ar
    59    50    49    1
    60    50    44    1
    61    49    48    1
    62    43    41   ar
    63    44    45    1
    64    48    45    1
    65    41    40    1
    66    41    42   ar
    67    40    39    1
    68    45    46    1
    69    46    47    2
    70    39    36    1
    71    35    36    1
    72    36    37    1
    73    38    37    2
    74    57    56    1
    75    56    55    1
    76    56    58    1
    77    55    52    1
    78    51    52    1
    79    52    53    1
    80    53    54    2
