@<TRIPOS>MOLECULE
tmp/5b47B00.pdb
 160 152 0 0 0
SMALL
GASTEIGER

@<TRIPOS>ATOM
      1  N         15.8100  -13.0700   11.5290 N.3    10  ASP10      -0.1239
      2  CA        16.5110  -13.8410   12.5890 C.3    10  ASP10       0.1674
      3  C         18.0530  -13.7750   12.4650 C.2    10  ASP10       0.2266
      4  O         18.7320  -13.7960   13.4890 O.2    10  ASP10      -0.2867
      5  CB        16.0260  -15.3270   12.6780 C.3    10  ASP10       0.1410
      6  CG        14.6700  -15.5030   13.4340 C.2    10  ASP10       0.3668
      7  OD1       14.3250  -14.6650   14.3040 O.co2  10  ASP10      -0.2456
      8  OD2       13.9480  -16.5070   13.1640 O.co2  10  ASP10      -0.2456
      9  N         10.3350  -22.8140   21.1910 N.3    37  ILE37      -0.1231
     10  CA        10.0200  -23.6020   19.9920 C.3    37  ILE37       0.1692
     11  C          9.5410  -22.6330   18.8980 C.2    37  ILE37       0.2593
     12  O          8.9010  -21.6010   19.1700 O.2    37  ILE37      -0.2718
     13  CB         8.9840  -24.7460   20.2720 C.3    37  ILE37       0.0266
     14  CG1        9.4560  -25.6940   21.3900 C.3    37  ILE37       0.0019
     15  CG2        8.7520  -25.5920   19.0330 C.3    37  ILE37       0.0020
     16  CD1       10.6970  -26.5330   21.0720 C.3    37  ILE37       0.0001
     17  N          9.8660  -22.9930   17.6620 N.am   38  GLY38      -0.1942
     18  CA         9.7020  -22.1340   16.5030 C.3    38  GLY38       0.2014
     19  C         11.0370  -21.9800   15.7990 C.2    38  GLY38       0.2639
     20  O         12.0880  -22.4410   16.3030 O.2    38  GLY38      -0.2714
     21  N         10.9890  -21.3340   14.6320 N.am   39  CYS39      -0.1953
     22  CA        12.1870  -20.9640   13.8600 C.3    39  CYS39       0.1843
     23  C         13.1330  -20.0930   14.6930 C.2    39  CYS39       0.2626
     24  O         14.3490  -20.3230   14.6550 O.2    39  CYS39      -0.2714
     25  CB        11.8050  -20.2400   12.5550 C.3    39  CYS39       0.0997
     26  SG        10.4420  -21.0240   11.6370 S.3    39  CYS39      -0.0797
     27  N         12.5680  -19.1140   15.4270 N.am   40  SER40      -0.1950
     28  CA        13.2830  -18.3670   16.5090 C.3    40  SER40       0.1924
     29  C         14.0800  -19.2960   17.4610 C.2    40  SER40       0.2314
     30  O         15.2350  -19.0130   17.7980 O.2    40  SER40      -0.2863
     31  CB        12.2960  -17.5500   17.3560 C.3    40  SER40       0.2116
     32  OG        11.4630  -18.3980   18.1320 O.3    40  SER40      -0.2180
     33  N         11.0420  -26.4720   25.4340 N.3    57  LEU57      -0.1231
     34  CA         9.6180  -26.4480   25.2160 C.3    57  LEU57       0.1693
     35  C          9.0460  -25.0690   24.9050 C.2    57  LEU57       0.2592
     36  O          9.5490  -23.9900   25.3100 O.2    57  LEU57      -0.2718
     37  CB         8.9090  -26.9780   26.4750 C.3    57  LEU57       0.0284
     38  CG         9.3370  -28.3770   26.9260 C.3    57  LEU57       0.0019
     39  CD1        9.0000  -28.6680   28.4000 C.3    57  LEU57       0.0001
     40  CD2        8.8210  -29.3840   25.8720 C.3    57  LEU57       0.0001
     41  N          7.9320  -25.1590   24.2160 N.am   58  HIS58      -0.1976
     42  CA         7.2350  -24.0330   23.6890 C.3    58  HIS58       0.1656
     43  C          6.5910  -23.2350   24.8500 C.2    58  HIS58       0.2291
     44  O          5.8050  -23.7990   25.6290 O.2    58  HIS58      -0.2864
     45  CB         6.1960  -24.5870   22.7100 C.3    58  HIS58       0.0771
     46  CG         5.5170  -23.5540   21.8790 C.ar   58  HIS58       0.0820
     47  ND1        6.1690  -22.4390   21.3940 N.ar   58  HIS58      -0.2267
     48  CD2        4.2430  -23.4860   21.4160 C.ar   58  HIS58       0.1154
     49  CE1        5.3170  -21.7210   20.6800 C.ar   58  HIS58       0.1986
     50  NE2        4.1450  -22.3340   20.6720 N.ar   58  HIS58      -0.2212
     51  N          8.2200  -22.2290   27.5560 N.3    60  ARG60      -0.1245
     52  CA         8.7210  -22.6000   28.8720 C.3    60  ARG60       0.1563
     53  C         10.1660  -22.1430   29.1480 C.2    60  ARG60       0.2260
     54  O         10.7540  -22.4780   30.2100 O.2    60  ARG60      -0.2867
     55  CB         8.6340  -24.1070   29.0810 C.3    60  ARG60       0.0307
     56  CG         7.2930  -24.7330   28.7290 C.3    60  ARG60       0.0489
     57  CD         6.1440  -24.2830   29.6530 C.3    60  ARG60       0.2205
     58  NE         4.8930  -24.5040   28.9520 N.pl3  60  ARG60      -0.0865
     59  CZ         3.7030  -24.0040   29.2850 C.cat  60  ARG60       0.5346
     60  NH1        3.5170  -23.2160   30.3670 N.pl3  60  ARG60       0.1354
     61  NH2        2.6700  -24.2900   28.4980 N.pl3  60  ARG60       0.1354
     62  N         10.3940  -16.7320   20.4770 N.3    82  GLY82      -0.1210
     63  CA         9.3890  -16.2380   19.5060 C.3    82  GLY82       0.1956
     64  C          8.1850  -15.5560   20.1840 C.2    82  GLY82       0.2612
     65  O          8.0560  -15.6040   21.4170 O.2    82  GLY82      -0.2717
     66  N          7.3490  -14.8830   19.3880 N.am   83  ASP83      -0.1959
     67  CA         6.1000  -14.2310   19.8690 C.3    83  ASP83       0.1840
     68  C          4.9180  -15.1560   20.1500 C.2    83  ASP83       0.2623
     69  O          4.1320  -14.8670   21.0350 O.2    83  ASP83      -0.2715
     70  CB         5.6270  -13.1050   18.9120 C.3    83  ASP83       0.1450
     71  CG         5.4720  -13.5590   17.4290 C.2    83  ASP83       0.3671
     72  OD1        5.5810  -14.7630   17.0840 O.co2  83  ASP83      -0.2456
     73  OD2        5.2510  -12.6740   16.5810 O.co2  83  ASP83      -0.2456
     74  N          4.7370  -16.2110   19.3540 N.am   84  GLY84      -0.1940
     75  CA         3.7920  -17.2930   19.6980 C.3    84  GLY84       0.2014
     76  C          4.1980  -17.9780   21.0240 C.2    84  GLY84       0.2638
     77  O          3.3430  -18.2340   21.8930 O.2    84  GLY84      -0.2714
     78  N          5.5110  -18.2380   21.1500 N.am   85  ASP85      -0.1971
     79  CA         6.1770  -18.9030   22.2800 C.3    85  ASP85       0.1709
     80  C          5.9670  -18.1060   23.6170 C.2    85  ASP85       0.2293
     81  O          5.0650  -18.4370   24.4070 O.2    85  ASP85      -0.2864
     82  CB         7.6780  -19.1490   21.9020 C.3    85  ASP85       0.1436
     83  CG         8.3930  -20.1730   22.8140 C.2    85  ASP85       0.3671
     84  OD1        8.9640  -19.8380   23.9100 O.co2  85  ASP85      -0.2456
     85  OD2        8.3850  -21.3640   22.4130 O.co2  85  ASP85      -0.2456
     86  N          1.8050  -19.0310   24.5690 N.3    89  ILE89      -0.1245
     87  CA         1.7960  -20.1880   25.4670 C.3    89  ILE89       0.1561
     88  C          2.5020  -19.8580   26.7810 C.2    89  ILE89       0.2260
     89  O          2.1560  -20.4460   27.8210 O.2    89  ILE89      -0.2867
     90  CB         2.2380  -21.5480   24.7660 C.3    89  ILE89       0.0252
     91  CG1        2.2890  -22.7440   25.7560 C.3    89  ILE89       0.0019
     92  CG2        3.5570  -21.4360   24.0220 C.3    89  ILE89       0.0019
     93  CD1        1.9600  -24.0830   25.0860 C.3    89  ILE89       0.0001
     94  N         11.2790  -12.2240   19.6360 N.3   109  HIS109     -0.1241
     95  CA        11.3870  -12.1700   18.1880 C.3   109  HIS109      0.1621
     96  C          9.9600  -11.9460   17.6780 C.2   109  HIS109      0.2264
     97  O          9.2070  -12.9080   17.3790 O.2   109  HIS109     -0.2867
     98  CB        11.9050  -13.5010   17.6130 C.3   109  HIS109      0.0745
     99  CG        13.2940  -13.8780   18.0230 C.ar  109  HIS109      0.0817
    100  ND1       14.0750  -14.7180   17.2570 N.ar  109  HIS109     -0.2268
    101  CD2       14.0440  -13.5480   19.0990 C.ar  109  HIS109      0.1154
    102  CE1       15.2510  -14.8790   17.8390 C.ar  109  HIS109      0.1986
    103  NE2       15.2580  -14.1780   18.9590 N.ar  109  HIS109     -0.2212
    104  N          7.9070  -11.5090   15.0160 N.3   111  ASN111     -0.1240
    105  CA         7.6510  -11.6300   13.5420 C.3   111  ASN111      0.1653
    106  C          6.1770  -11.5300   13.1320 C.2   111  ASN111      0.2266
    107  O          5.8960  -11.4680   11.9460 O.2   111  ASN111     -0.2867
    108  CB         8.3340  -12.8880   12.8920 C.3   111  ASN111      0.1155
    109  CG         7.7030  -14.2440   13.2960 C.2   111  ASN111      0.2627
    110  OD1        6.9520  -14.3510   14.2550 O.2   111  ASN111     -0.2716
    111  ND2        8.0310  -15.2830   12.5470 N.am  111  ASN111     -0.0877
    112  N          3.7720  -13.9690   13.4150 N.3   113  VAL113     -0.1231
    113  CA         3.1590  -15.2750   13.0480 C.3   113  VAL113      0.1692
    114  C          3.7590  -16.4650   13.8370 C.2   113  VAL113      0.2592
    115  O          4.7840  -16.3310   14.5370 O.2   113  VAL113     -0.2718
    116  CB         3.2570  -15.6150   11.5030 C.3   113  VAL113      0.0266
    117  CG1        2.4320  -14.6550   10.6450 C.3   113  VAL113      0.0020
    118  CG2        4.7170  -15.6960   11.0270 C.3   113  VAL113      0.0020
    119  N          3.0680  -17.6090   13.7210 N.am  114  TYR114     -0.1962
    120  CA         3.5900  -18.9660   14.0250 C.3   114  TYR114      0.1771
    121  C          4.2840  -19.5380   12.7450 C.2   114  TYR114      0.2620
    122  O          3.6590  -20.3170   11.9910 O.2   114  TYR114     -0.2715
    123  CB         2.4380  -19.9050   14.4910 C.3   114  TYR114      0.0574
    124  CG         1.8800  -19.6130   15.8740 C.ar  114  TYR114     -0.0198
    125  CD1        2.4410  -20.2080   16.9950 C.ar  114  TYR114     -0.0009
    126  CD2        0.7760  -18.7590   16.0680 C.ar  114  TYR114     -0.0009
    127  CE1        1.9560  -19.9660   18.2650 C.ar  114  TYR114      0.0417
    128  CE2        0.2740  -18.5150   17.3520 C.ar  114  TYR114      0.0417
    129  CZ         0.8790  -19.1250   18.4490 C.ar  114  TYR114      0.1957
    130  OH         0.4630  -18.9170   19.7390 O.3   114  TYR114     -0.2866
    131  N          5.5490  -19.1270   12.5100 N.am  115  GLY115     -0.1940
    132  CA         6.3230  -19.4520   11.2820 C.3   115  GLY115      0.2014
    133  C          6.4760  -20.9520   11.0340 C.2   115  GLY115      0.2638
    134  O          5.9760  -21.4890   10.0410 O.2   115  GLY115     -0.2714
    135  N          7.1500  -21.6240   11.9650 N.am  116  LEU116     -0.1977
    136  CA         7.3090  -23.0830   11.9380 C.3   116  LEU116      0.1596
    137  C          5.9610  -23.7750   12.2020 C.2   116  LEU116      0.2287
    138  O          5.7060  -24.8590   11.6800 O.2   116  LEU116     -0.2864
    139  CB         8.3720  -23.5520   12.9650 C.3   116  LEU116      0.0297
    140  CG         9.1420  -24.8540   12.6560 C.3   116  LEU116      0.0022
    141  CD1        9.9190  -24.8400   11.3300 C.3   116  LEU116      0.0001
    142  CD2       10.0650  -25.1440   13.8260 C.3   116  LEU116      0.0001
    143  N          0.0620  -19.4400   11.0990 N.3   117  GLN117     -0.1245
    144  CA        -1.1200  -18.9240   11.7900 C.3   117  GLN117      0.1566
    145  C         -0.8000  -17.5900   12.4660 C.2   117  GLN117      0.2260
    146  O          0.3680  -17.2520   12.6660 O.2   117  GLN117     -0.2867
    147  CB        -1.6390  -19.9060   12.8570 C.3   117  GLN117      0.0367
    148  CG        -2.0080  -21.3020   12.3560 C.3   117  GLN117      0.0905
    149  CD        -0.8000  -22.2080   12.1070 C.2   117  GLN117      0.2608
    150  OE1        0.3340  -21.9630   12.6000 O.2   117  GLN117     -0.2717
    151  NE2       -1.0390  -23.2820   11.3510 N.am  117  GLN117     -0.0878
    152  N         10.7660   -7.6230   13.7550 N.3   177  GLN177     -0.1245
    153  CA        11.4750   -8.5150   12.8010 C.3   177  GLN177      0.1566
    154  C         10.6250   -9.2790   11.7070 C.2   177  GLN177      0.2260
    155  O         10.2390  -10.4380   11.9030 O.2   177  GLN177     -0.2867
    156  CB        12.4360   -9.4670   13.5700 C.3   177  GLN177      0.0367
    157  CG        11.8690  -10.7080   14.2730 C.3   177  GLN177      0.0905
    158  CD        12.2270  -12.0320   13.5880 C.2   177  GLN177      0.2608
    159  OE1       13.0630  -12.0690   12.6810 O.2   177  GLN177     -0.2717
    160  NE2       11.5930  -13.1330   14.0260 N.am  177  GLN177     -0.0878
@<TRIPOS>BOND
     1   134   133    2
     2   117   116    1
     3   118   116    1
     4   133   132    1
     5   133   135   am
     6   143   144    1
     7   132   131    1
     8   141   140    1
     9   151   149   am
    10   116   113    1
    11     1     2    1
    12    26    25    1
    13   138   137    2
    14   154   155    2
    15   154   153    1
    16   144   145    1
    17   144   147    1
    18   136   135    1
    19   136   137    1
    20   136   139    1
    21   107   106    2
    22   122   121    2
    23   149   148    1
    24   149   150    2
    25   148   147    1
    26     3     2    1
    27     3     4    2
    28   145   146    2
    29   131   121   am
    30   111   109   am
    31    25    22    1
    32     2     5    1
    33   140   139    1
    34   140   142    1
    35     5     6    1
    36   159   158    2
    37   121   120    1
    38   153   156    1
    39   153   152    1
    40   108   109    1
    41   108   105    1
    42   113   112    1
    43   113   114    1
    44   106   105    1
    45     8     6   ar
    46   109   110    2
    47     6     7   ar
    48   105   104    1
    49   156   157    1
    50   158   160   am
    51   158   157    1
    52   119   114   am
    53   119   120    1
    54   114   115    2
    55    22    21    1
    56    22    23    1
    57   120   123    1
    58   123   124    1
    59    21    19   am
    60    24    23    2
    61    23    27   am
    62    27    28    1
    63    19    20    2
    64    19    18    1
    65   124   126   ar
    66   124   125   ar
    67   126   128   ar
    68    18    17    1
    69    28    31    1
    70    28    29    1
    71    73    71   ar
    72   125   127   ar
    73    72    71   ar
    74   100   102   ar
    75   100    99   ar
    76   128   129   ar
    77    31    32    1
    78    97    96    2
    79    71    70    1
    80    29    30    2
    81    98    99    1
    82    98    95    1
    83    17    11   am
    84    96    95    1
    85   102   103   ar
    86    99   101   ar
    87    95    94    1
    88   127   129   ar
    89   129   130    1
    90    11    12    2
    91    11    10    1
    92    70    67    1
    93   103   101   ar
    94    15    13    1
    95    74    75    1
    96    74    68   am
    97    66    67    1
    98    66    64   am
    99    63    64    1
   100    63    62    1
   101    75    76    1
   102    67    68    1
   103    10    13    1
   104    10     9    1
   105    68    69    2
   106    64    65    2
   107    13    14    1
   108    50    49   ar
   109    50    48   ar
   110    49    47   ar
   111    76    78   am
   112    76    77    2
   113    16    14    1
   114    78    79    1
   115    47    46   ar
   116    48    46   ar
   117    46    45    1
   118    82    79    1
   119    82    83    1
   120    79    80    1
   121    85    83   ar
   122    45    42    1
   123    83    84   ar
   124    80    81    2
   125    42    41    1
   126    42    43    1
   127    92    90    1
   128    41    35   am
   129    86    87    1
   130    90    87    1
   131    90    91    1
   132    43    44    2
   133    35    34    1
   134    35    36    2
   135    93    91    1
   136    34    33    1
   137    34    37    1
   138    87    88    1
   139    40    38    1
   140    37    38    1
   141    88    89    2
   142    38    39    1
   143    51    52    1
   144    61    59    1
   145    56    55    1
   146    56    57    1
   147    52    55    1
   148    52    53    1
   149    58    59    2
   150    58    57    1
   151    53    54    2
   152    59    60    1
