@<TRIPOS>MOLECULE
tmp/5b48B00.pdb
 132 126 0 0 0
SMALL
GASTEIGER

@<TRIPOS>ATOM
      1  N          9.6480   43.8310  211.4480 N.3    40  ILE40      -0.1231
      2  CA         9.3960   43.5460  212.8530 C.3    40  ILE40       0.1692
      3  C         10.0890   44.6180  213.6910 C.2    40  ILE40       0.2593
      4  O         11.1440   45.1490  213.3000 O.2    40  ILE40      -0.2718
      5  CB         9.8400   42.0990  213.1930 C.3    40  ILE40       0.0266
      6  CG1        8.8770   41.0730  212.5760 C.3    40  ILE40       0.0019
      7  CG2        9.9360   41.8620  214.6870 C.3    40  ILE40       0.0020
      8  CD1        7.4490   41.0950  213.0960 C.3    40  ILE40       0.0001
      9  N          9.4740   44.9330  214.8310 N.am   41  GLY41      -0.1942
     10  CA        10.0210   45.8760  215.8080 C.3    41  GLY41       0.2014
     11  C          8.9580   46.8460  216.2920 C.2    41  GLY41       0.2639
     12  O          7.7660   46.6910  216.0260 O.2    41  GLY41      -0.2714
     13  N          9.4110   47.8350  217.0390 N.am   42  CYS42      -0.1953
     14  CA         8.6290   49.0260  217.3480 C.3    42  CYS42       0.1843
     15  C          8.1630   49.6510  216.0320 C.2    42  CYS42       0.2626
     16  O          6.9860   49.5840  215.7200 O.2    42  CYS42      -0.2714
     17  CB         9.4480   49.9820  218.2190 C.3    42  CYS42       0.0997
     18  SG         9.8630   49.2550  219.8460 S.3    42  CYS42      -0.0797
     19  N          9.0890   50.1290  215.2080 N.am   43  SER43      -0.1950
     20  CA         8.7510   50.6440  213.8600 C.3    43  SER43       0.1924
     21  C          7.7640   49.7740  213.0580 C.2    43  SER43       0.2314
     22  O          6.9720   50.2920  212.2850 O.2    43  SER43      -0.2863
     23  CB        10.0270   50.8450  213.0310 C.3    43  SER43       0.2116
     24  OG        10.8140   49.6670  212.9560 O.3    43  SER43      -0.2180
     25  N         10.9590   39.5960  210.2850 N.3    59  HIS59      -0.1241
     26  CA        12.1090   40.4260  210.5430 C.3    59  HIS59       0.1621
     27  C         13.0970   40.3710  209.3790 C.2    59  HIS59       0.2264
     28  O         13.5250   39.3070  208.9830 O.2    59  HIS59      -0.2867
     29  CB        12.7430   39.9750  211.8510 C.3    59  HIS59       0.0745
     30  CG        13.7460   40.9330  212.3980 C.ar   59  HIS59       0.0817
     31  ND1       13.5800   42.2970  212.3530 N.ar   59  HIS59      -0.2268
     32  CD2       14.9010   40.7190  213.0550 C.ar   59  HIS59       0.1154
     33  CE1       14.6190   42.8830  212.9050 C.ar   59  HIS59       0.1986
     34  NE2       15.4410   41.9470  213.3350 N.ar   59  HIS59      -0.2212
     35  N         12.4200   41.0420  206.1520 N.3    61  ARG61      -0.1245
     36  CA        11.8640   40.5100  204.9010 C.3    61  ARG61       0.1563
     37  C         10.9110   41.3990  204.1520 C.2    61  ARG61       0.2260
     38  O         10.4900   41.0060  203.0710 O.2    61  ARG61      -0.2867
     39  CB        11.1560   39.1590  205.1330 C.3    61  ARG61       0.0307
     40  CG        11.9390   38.1150  205.8790 C.3    61  ARG61       0.0489
     41  CD        13.3240   37.8810  205.3270 C.3    61  ARG61       0.2205
     42  NE        14.0720   37.0000  206.2000 N.pl3  61  ARG61      -0.0865
     43  CZ        15.4060   36.9850  206.3380 C.cat  61  ARG61       0.5346
     44  NH1       16.1900   37.8000  205.6270 N.pl3  61  ARG61       0.1354
     45  NH2       15.9760   36.1420  207.2200 N.pl3  61  ARG61       0.1354
     46  N         12.7840   48.9830  210.6490 N.3    83  GLY83      -0.1210
     47  CA        13.8450   49.3570  211.5570 C.3    83  GLY83       0.1956
     48  C         15.2540   49.2280  210.9760 C.2    83  GLY83       0.2612
     49  O         15.4570   48.6430  209.9110 O.2    83  GLY83      -0.2717
     50  N         16.2180   49.7940  211.6940 N.am   84  ASP84      -0.1959
     51  CA        17.6300   49.7600  211.2950 C.3    84  ASP84       0.1840
     52  C         18.1880   48.3290  211.3840 C.2    84  ASP84       0.2623
     53  O         18.7800   47.8240  210.4240 O.2    84  ASP84      -0.2715
     54  CB        18.4820   50.8250  212.0350 C.3    84  ASP84       0.1450
     55  CG        18.1770   50.9480  213.5580 C.2    84  ASP84       0.3671
     56  OD1       17.3810   50.2080  214.1350 O.co2  84  ASP84      -0.2456
     57  OD2       18.7470   51.8210  214.2100 O.co2  84  ASP84      -0.2456
     58  N         17.9160   47.6550  212.4970 N.am   85  GLY85      -0.1940
     59  CA        18.2580   46.2270  212.6360 C.3    85  GLY85       0.2014
     60  C         17.6710   45.3760  211.5170 C.2    85  GLY85       0.2638
     61  O         18.3750   44.5990  210.8840 O.2    85  GLY85      -0.2714
     62  N         16.3700   45.5650  211.3020 N.am   86  ASP86      -0.1971
     63  CA        15.5780   45.0380  210.1660 C.3    86  ASP86       0.1709
     64  C         16.2000   45.1840  208.7770 C.2    86  ASP86       0.2293
     65  O         16.5230   44.1920  208.1390 O.2    86  ASP86      -0.2864
     66  CB        14.1890   45.7110  210.1220 C.3    86  ASP86       0.1436
     67  CG        13.1310   44.8230  209.5450 C.2    86  ASP86       0.3671
     68  OD1       12.5860   44.0150  210.3540 O.co2  86  ASP86      -0.2456
     69  OD2       12.8350   44.9160  208.3130 O.co2  86  ASP86      -0.2456
     70  N         19.8100   41.9910  209.5480 N.3    90  ILE90      -0.1245
     71  CA        19.2040   40.7800  209.0510 C.3    90  ILE90       0.1561
     72  C         18.6190   40.8780  207.6260 C.2    90  ILE90       0.2260
     73  O         18.6430   39.8850  206.8880 O.2    90  ILE90      -0.2867
     74  CB        18.1640   40.2210  210.0540 C.3    90  ILE90       0.0252
     75  CG1       17.6570   38.8380  209.5890 C.3    90  ILE90       0.0019
     76  CG2       17.0120   41.1980  210.2860 C.3    90  ILE90       0.0019
     77  CD1       17.0690   37.9750  210.6940 C.3    90  ILE90       0.0001
     78  N         16.9810   54.2490  214.4600 N.3   112  ASN112     -0.1240
     79  CA        16.7830   54.2080  215.9040 C.3   112  ASN112      0.1653
     80  C         18.0590   54.1920  216.7720 C.2   112  ASN112      0.2266
     81  O         18.0210   54.5270  217.9670 O.2   112  ASN112     -0.2867
     82  CB        16.0600   52.8620  216.1900 C.3   112  ASN112      0.1155
     83  CG        15.1900   52.9200  217.3800 C.2   112  ASN112      0.2627
     84  OD1       15.0690   53.9690  218.0040 O.2   112  ASN112     -0.2716
     85  ND2       14.5200   51.8370  217.6780 N.am  112  ASN112     -0.0877
     86  N         19.1030   51.4060  217.9210 N.3   114  VAL114     -0.1231
     87  CA        18.8840   50.2500  218.8200 C.3   114  VAL114      0.1692
     88  C         17.9440   49.1710  218.2930 C.2   114  VAL114      0.2592
     89  O         17.2480   49.3820  217.2970 O.2   114  VAL114     -0.2718
     90  CB        18.3340   50.7010  220.2000 C.3   114  VAL114      0.0266
     91  CG1       19.4580   51.3370  221.0440 C.3   114  VAL114      0.0020
     92  CG2       17.1180   51.6220  220.0350 C.3   114  VAL114      0.0020
     93  N         17.9560   48.0030  218.9540 N.am  115  TYR115     -0.1962
     94  CA        16.8630   47.0160  218.8190 C.3   115  TYR115      0.1771
     95  C         15.8500   47.3540  219.9080 C.2   115  TYR115      0.2620
     96  O         15.8860   46.8160  220.9990 O.2   115  TYR115     -0.2715
     97  CB        17.3400   45.5620  218.9270 C.3   115  TYR115      0.0574
     98  CG        18.2440   45.0930  217.8110 C.ar  115  TYR115     -0.0198
     99  CD1       19.5640   45.5180  217.7300 C.ar  115  TYR115     -0.0009
    100  CD2       17.7970   44.2140  216.8480 C.ar  115  TYR115     -0.0009
    101  CE1       20.3920   45.0800  216.7210 C.ar  115  TYR115      0.0417
    102  CE2       18.6260   43.7870  215.8290 C.ar  115  TYR115      0.0417
    103  CZ        19.9260   44.2340  215.7800 C.ar  115  TYR115      0.1957
    104  OH        20.7680   43.8460  214.7910 O.3   115  TYR115     -0.2866
    105  N         14.9730   48.2950  219.6070 N.am  116  GLY116     -0.1940
    106  CA        14.0230   48.8200  220.5880 C.3   116  GLY116      0.2014
    107  C         13.1270   47.8030  221.2680 C.2   116  GLY116      0.2639
    108  O         13.1450   47.6850  222.4840 O.2   116  GLY116     -0.2714
    109  N         12.3550   47.0580  220.4790 N.am  117  LEU117     -0.1963
    110  CA        11.3270   46.1510  221.0220 C.3   117  LEU117      0.1728
    111  C         11.9320   44.9350  221.7230 C.2   117  LEU117      0.2616
    112  O         11.2650   44.2520  222.5000 O.2   117  LEU117     -0.2715
    113  CB        10.3670   45.6810  219.9130 C.3   117  LEU117      0.0311
    114  CG         9.1460   44.8380  220.2900 C.3   117  LEU117      0.0022
    115  CD1        8.3470   45.5120  221.4090 C.3   117  LEU117      0.0001
    116  CD2        8.2650   44.6120  219.0640 C.3   117  LEU117      0.0001
    117  N         13.2040   44.6820  221.4700 N.am  118  THR118     -0.1951
    118  CA        13.8900   43.5550  222.0840 C.3   118  THR118      0.1897
    119  C         14.7690   43.9510  223.3370 C.2   118  THR118      0.2313
    120  O         15.4550   43.0960  223.9450 O.2   118  THR118     -0.2863
    121  CB        14.6020   42.8120  220.9450 C.3   118  THR118      0.1794
    122  OG1       14.5040   41.3970  221.1360 O.3   118  THR118     -0.2208
    123  CG2       15.9640   43.2550  220.7930 C.3   118  THR118      0.0378
    124  N         15.2890   58.7210  214.0910 N.3   181  GLN181     -0.1245
    125  CA        14.2120   58.6900  215.1180 C.3   181  GLN181      0.1566
    126  C         14.8030   58.4360  216.5070 C.2   181  GLN181      0.2260
    127  O         15.3670   57.3750  216.7530 O.2   181  GLN181     -0.2867
    128  CB        13.0670   57.6590  214.8420 C.3   181  GLN181      0.0367
    129  CG        13.4420   56.1580  214.8030 C.3   181  GLN181      0.0905
    130  CD        12.6230   55.1890  215.6980 C.2   181  GLN181      0.2608
    131  OE1       11.9680   55.5550  216.6830 O.2   181  GLN181     -0.2717
    132  NE2       12.7100   53.9170  215.3590 N.am  181  GLN181     -0.0878
@<TRIPOS>BOND
     1    38    37    2
     2    37    36    1
     3    36    39    1
     4    36    35    1
     5    39    40    1
     6    41    40    1
     7    41    42    1
     8    44    43    1
     9    42    43    2
    10    43    45    1
    11    73    72    2
    12    72    71    1
    13    65    64    2
    14    69    67   ar
    15    64    63    1
    16    28    27    2
    17    71    70    1
    18    71    74    1
    19    27    26    1
    20    67    66    1
    21    67    68   ar
    22    75    74    1
    23    75    77    1
    24    49    48    2
    25    74    76    1
    26    66    63    1
    27    63    62    1
    28    25    26    1
    29    53    52    2
    30    26    29    1
    31    46    47    1
    32    61    60    2
    33    48    47    1
    34    48    50   am
    35    51    52    1
    36    51    50    1
    37    51    54    1
    38    62    60   am
    39    52    58   am
    40     1     2    1
    41    60    59    1
    42    29    30    1
    43    54    55    1
    44    22    21    2
    45    31    30   ar
    46    31    33   ar
    47    30    32   ar
    48    58    59    1
    49     6     8    1
    50     6     5    1
    51     2     5    1
    52     2     3    1
    53    33    34   ar
    54    24    23    1
    55    23    20    1
    56    32    34   ar
    57    21    20    1
    58     5     7    1
    59     4     3    2
    60    55    56   ar
    61    55    57   ar
    62     3     9   am
    63    20    19    1
    64   124   125    1
    65    78    79    1
    66   104   103    1
    67   129   128    1
    68   129   130    1
    69     9    10    1
    70   128   125    1
    71   125   126    1
    72    19    15   am
    73   132   130   am
    74   130   131    2
    75    16    15    2
    76   103   102   ar
    77   103   101   ar
    78    10    11    1
    79   102   100   ar
    80    79    82    1
    81    79    80    1
    82    12    11    2
    83    15    14    1
    84    82    83    1
    85    11    13   am
    86   126   127    2
    87   101    99   ar
    88    80    81    2
    89   100    98   ar
    90    13    14    1
    91    89    88    2
    92    14    17    1
    93    83    85   am
    94    83    84    2
    95    99    98   ar
    96    98    97    1
    97    86    87    1
    98    17    18    1
    99    88    87    1
   100    88    93   am
   101    94    97    1
   102    94    93    1
   103    94    95    1
   104    87    90    1
   105   116   114    1
   106   105    95   am
   107   105   106    1
   108    95    96    2
   109   113   114    1
   110   113   110    1
   111    92    90    1
   112    90    91    1
   113   114   115    1
   114   109   110    1
   115   109   107   am
   116   106   107    1
   117   123   121    1
   118   121   122    1
   119   121   118    1
   120   110   111    1
   121   107   108    2
   122   117   111   am
   123   117   118    1
   124   111   112    2
   125   118   119    1
   126   119   120    2
