@<TRIPOS>MOLECULE
tmp/5b48A00.pdb
 89 85 0 0 0
SMALL
GASTEIGER

@<TRIPOS>ATOM
      1  N          4.1010   42.2110  224.6150 N.3    41  SER41      -0.1217
      2  CA         5.1410   42.6220  223.6190 C.3    41  SER41       0.1889
      3  C          5.1250   44.1430  223.3830 C.2    41  SER41       0.2288
      4  O          4.6730   44.6410  222.3530 O.2    41  SER41      -0.2866
      5  CB         5.0390   41.8760  222.2870 C.3    41  SER41       0.2089
      6  OG         6.1690   42.2270  221.4890 O.3    41  SER41      -0.2183
      7  N         21.5010   36.2130  218.2330 N.3   221  TYR221     -0.1227
      8  CA        20.7910   37.3300  217.6970 C.3   221  TYR221      0.1725
      9  C         19.7630   37.7120  218.7450 C.2   221  TYR221      0.2475
     10  O         19.1210   36.8380  219.2930 O.2   221  TYR221     -0.2730
     11  CB        20.0960   36.9030  216.4010 C.3   221  TYR221      0.0547
     12  CG        19.5300   38.0690  215.6690 C.ar  221  TYR221     -0.0200
     13  CD1       20.3690   38.9400  214.9820 C.ar  221  TYR221     -0.0009
     14  CD2       18.1700   38.3690  215.7280 C.ar  221  TYR221     -0.0009
     15  CE1       19.8680   40.0570  214.3360 C.ar  221  TYR221      0.0417
     16  CE2       17.6540   39.4830  215.0810 C.ar  221  TYR221      0.0417
     17  CZ        18.5090   40.3280  214.3850 C.ar  221  TYR221      0.1957
     18  OH        18.0330   41.4430  213.7060 O.3   221  TYR221     -0.2866
     19  N         19.6180   39.0030  219.0580 N.am  222  PRO222     -0.2492
     20  CA        18.6230   39.3880  220.0650 C.3   222  PRO222      0.1619
     21  C         17.2140   38.8640  219.7560 C.2   222  PRO222      0.2605
     22  O         16.6910   39.0960  218.6800 O.2   222  PRO222     -0.2715
     23  CB        18.6130   40.9240  220.0260 C.3   222  PRO222      0.0570
     24  CG        19.7930   41.3420  219.1960 C.2   222  PRO222     -0.0077
     25  CD        20.3990   40.1440  218.5460 C.2   222  PRO222      0.0634
     26  N         16.6530   38.1320  220.7030 N.am  223  ILE223     -0.1964
     27  CA        15.2770   37.6240  220.6420 C.3   223  ILE223      0.1727
     28  C         14.8500   37.4230  222.1060 C.2   223  ILE223      0.2616
     29  O         15.6690   37.0160  222.9510 O.2   223  ILE223     -0.2715
     30  CB        15.2100   36.3490  219.7760 C.3   223  ILE223      0.0290
     31  CG1       13.7630   35.9680  219.4720 C.3   223  ILE223      0.0022
     32  CG2       16.0010   35.1970  220.4030 C.3   223  ILE223      0.0023
     33  CD1       13.6430   35.0970  218.2170 C.3   223  ILE223      0.0001
     34  N         13.6030   37.7670  222.4010 N.am  224  THR224     -0.1951
     35  CA        13.2200   38.2560  223.7400 C.3   224  THR224      0.1897
     36  C         13.6230   37.3170  224.8910 C.2   224  THR224      0.2313
     37  O         14.2880   37.7750  225.8880 O.2   224  THR224     -0.2863
     38  CB        11.7170   38.5870  223.8330 C.3   224  THR224      0.1794
     39  OG1       11.2710   39.1740  222.5970 O.3   224  THR224     -0.2208
     40  CG2       11.4560   39.5600  224.9710 C.3   224  THR224      0.0378
     41  N         20.2500   35.1260  212.5680 N.3   262  GLU262     -0.1245
     42  CA        20.3860   33.7930  213.1570 C.3   262  GLU262      0.1567
     43  C         21.1490   32.8120  212.3100 C.2   262  GLU262      0.2260
     44  O         21.7460   31.8790  212.8720 O.2   262  GLU262     -0.2867
     45  CB        19.0290   33.1830  213.5250 C.3   262  GLU262      0.0388
     46  CG        18.4220   33.7520  214.8100 C.3   262  GLU262      0.1160
     47  CD        17.5290   34.9590  214.5550 C.2   262  GLU262      0.3649
     48  OE1       17.4200   35.3980  213.3720 O.co2 262  GLU262     -0.2457
     49  OE2       16.9420   35.4530  215.5540 O.co2 262  GLU262     -0.2457
     50  N         11.2550   31.7710  215.8630 N.3   286  PRO286     -0.2116
     51  CA        11.6430   32.4720  214.6470 C.3   286  PRO286      0.1372
     52  C         13.1130   32.2940  214.2970 C.2   286  PRO286      0.2244
     53  O         13.4260   32.0750  213.1420 O.2   286  PRO286     -0.2868
     54  CB        11.2990   33.9310  214.9340 C.3   286  PRO286      0.0268
     55  CG        10.2210   33.8910  215.9820 C.3   286  PRO286      0.0207
     56  CD        10.4150   32.6110  216.7480 C.3   286  PRO286      0.0892
     57  N         15.2560   29.7330  211.0780 N.3   290  LEU290     -0.1245
     58  CA        16.4120   30.1750  210.2890 C.3   290  LEU290      0.1561
     59  C         17.7040   29.3270  210.4440 C.2   290  LEU290      0.2260
     60  O         18.4900   29.2260  209.5340 O.2   290  LEU290     -0.2867
     61  CB        16.7150   31.6220  210.6490 C.3   290  LEU290      0.0270
     62  CG        16.1200   32.7960  209.8550 C.3   290  LEU290      0.0019
     63  CD1       14.7060   32.5690  209.4030 C.3   290  LEU290      0.0001
     64  CD2       16.1880   34.0610  210.6970 C.3   290  LEU290      0.0001
     65  N          8.4690   30.0000  222.7340 N.3   312  ARG312     -0.1245
     66  CA         7.5290   31.0740  222.9850 C.3   312  ARG312      0.1563
     67  C          6.2970   30.8140  222.1470 C.2   312  ARG312      0.2260
     68  O          6.2880   29.8810  221.3510 O.2   312  ARG312     -0.2867
     69  CB         8.1530   32.4510  222.6400 C.3   312  ARG312      0.0307
     70  CG         8.1340   32.8070  221.1660 C.3   312  ARG312      0.0489
     71  CD         9.0840   33.9380  220.8550 C.3   312  ARG312      0.2205
     72  NE         8.7580   34.5540  219.5840 N.pl3 312  ARG312     -0.0865
     73  CZ         9.1760   35.7430  219.1870 C.cat 312  ARG312      0.5346
     74  NH1        9.9780   36.4630  219.9550 N.pl3 312  ARG312      0.1354
     75  NH2        8.7860   36.2130  218.0040 N.pl3 312  ARG312      0.1354
     76  N          5.8610   35.2010  214.1670 N.3   317  THR317     -0.1218
     77  CA         6.1160   36.1200  215.2830 C.3   317  THR317      0.1862
     78  C          5.3660   35.7040  216.5560 C.2   317  THR317      0.2287
     79  O          5.9080   35.7820  217.6400 O.2   317  THR317     -0.2866
     80  CB         5.6690   37.5200  214.8860 C.3   317  THR317      0.1770
     81  OG1        5.9180   37.7000  213.4790 O.3   317  THR317     -0.2211
     82  CG2        6.3790   38.5970  215.7550 C.3   317  THR317      0.0375
     83  N          5.4700   36.8750  221.2290 N.3   320  PRO320     -0.2116
     84  CA         6.8630   37.0530  221.6390 C.3   320  PRO320      0.1372
     85  C          7.1580   36.9070  223.1360 C.2   320  PRO320      0.2244
     86  O          8.2560   36.4820  223.4890 O.2   320  PRO320     -0.2868
     87  CB         7.1720   38.4860  221.2200 C.3   320  PRO320      0.0268
     88  CG         6.2130   38.7760  220.1320 C.3   320  PRO320      0.0207
     89  CD         5.0210   37.8980  220.2820 C.3   320  PRO320      0.0892
@<TRIPOS>BOND
     1    63    62    1
     2    60    59    2
     3    62    61    1
     4    62    64    1
     5    58    59    1
     6    58    61    1
     7    58    57    1
     8    43    44    2
     9    43    42    1
    10    41    42    1
    11    53    52    2
    12    42    45    1
    13    48    47   ar
    14    81    80    1
    15    45    46    1
    16    18    17    1
    17    76    77    1
    18    52    51    1
    19    15    17   ar
    20    15    13   ar
    21    17    16   ar
    22    47    46    1
    23    47    49   ar
    24    51    54    1
    25    51    50    1
    26    80    77    1
    27    80    82    1
    28    54    55    1
    29    13    12   ar
    30    16    14   ar
    31    77    78    1
    32    12    14   ar
    33    12    11    1
    34    50    56    1
    35    55    56    1
    36    11     8    1
    37    78    79    2
    38     8     7    1
    39     8     9    1
    40    75    73    1
    41    33    31    1
    42    25    19    1
    43    25    24    2
    44    22    21    2
    45     9    19   am
    46     9    10    2
    47    19    20    1
    48    73    72    2
    49    73    74    1
    50    24    23    1
    51    31    30    1
    52    72    71    1
    53    21    20    1
    54    21    26   am
    55    30    32    1
    56    30    27    1
    57    23    20    1
    58    88    89    1
    59    88    87    1
    60    89    83    1
    61    27    26    1
    62    27    28    1
    63    71    70    1
    64    70    69    1
    65    87    84    1
    66    83    84    1
    67    68    67    2
    68     6     5    1
    69    84    85    1
    70    28    34   am
    71    28    29    2
    72    67    66    1
    73     5     2    1
    74     4     3    2
    75    34    35    1
    76    39    38    1
    77    69    66    1
    78    65    66    1
    79    85    86    2
    80     3     2    1
    81     2     1    1
    82    35    38    1
    83    35    36    1
    84    38    40    1
    85    36    37    2
