@<TRIPOS>MOLECULE
tmp/5b4eA00.pdb
 158 148 0 0 0
SMALL
GASTEIGER

@<TRIPOS>ATOM
      1  N         17.3580   36.8320    5.3300 N.3    52  ALA52      -0.1231
      2  CA        17.8920   37.6280    6.3870 C.3    52  ALA52       0.1694
      3  C         19.3700   37.8090    6.1610 C.2    52  ALA52       0.2592
      4  O         20.1230   36.8850    6.2820 O.2    52  ALA52      -0.2718
      5  CB        17.6160   36.9520    7.7060 C.3    52  ALA52       0.0304
      6  N         19.7750   39.0140    5.8180 N.am   53  VAL53      -0.1966
      7  CA        21.1590   39.3040    5.5130 C.3    53  VAL53       0.1727
      8  C         21.7800   40.3210    6.4450 C.2    53  VAL53       0.2616
      9  O         21.3160   41.4050    6.5500 O.2    53  VAL53      -0.2715
     10  CB        21.3180   39.8470    4.0940 C.3    53  VAL53       0.0290
     11  CG1       20.8970   38.8330    3.0830 C.3    53  VAL53       0.0023
     12  CG2       20.4870   41.0820    3.9260 C.3    53  VAL53       0.0023
     13  N         22.8760   39.9630    7.0790 N.am   54  SER54      -0.1950
     14  CA        23.5360   40.8150    8.0240 C.3    54  SER54       0.1924
     15  C         24.7320   41.5130    7.4730 C.2    54  SER54       0.2314
     16  O         25.2560   42.3850    8.1010 O.2    54  SER54      -0.2863
     17  CB        24.0330   39.9830    9.1580 C.3    54  SER54       0.2116
     18  OG        24.9640   39.0690    8.6830 O.3    54  SER54      -0.2180
     19  N         27.4030   39.7490    6.6250 N.3    56  GLY56      -0.1210
     20  CA        28.4760   38.8290    6.8620 C.3    56  GLY56       0.1956
     21  C         28.5500   37.8460    5.7400 C.2    56  GLY56       0.2612
     22  O         27.7310   37.8520    4.8630 O.2    56  GLY56      -0.2717
     23  N         29.5450   36.9900    5.7980 N.am   57  LYS57      -0.1965
     24  CA        29.8740   36.1100    4.7120 C.3    57  LYS57       0.1728
     25  C         28.8270   35.0790    4.3730 C.2    57  LYS57       0.2616
     26  O         28.6610   34.7610    3.2340 O.2    57  LYS57      -0.2715
     27  CB        31.2110   35.4460    4.9880 C.3    57  LYS57       0.0311
     28  CG        31.1160   34.2180    5.8460 C.3    57  LYS57       0.0038
     29  CD        32.4430   33.8300    6.4330 C.3    57  LYS57       0.0206
     30  CE        32.5020   34.0970    7.9150 C.3    57  LYS57       0.1093
     31  NZ        31.8180   33.0360    8.6760 N.3    57  LYS57      -0.1314
     32  N         28.1170   34.5690    5.3560 N.am   58  ASP58      -0.1957
     33  CA        27.1580   33.5220    5.1130 C.3    58  ASP58       0.1840
     34  C         25.8920   33.9770    4.4680 C.2    58  ASP58       0.2622
     35  O         25.4650   33.3930    3.5280 O.2    58  ASP58      -0.2715
     36  CB        26.8180   32.7850    6.3890 C.3    58  ASP58       0.1450
     37  CG        27.9990   32.2680    7.0800 C.2    58  ASP58       0.3671
     38  OD1       28.2090   31.0860    7.0810 O.co2  58  ASP58      -0.2456
     39  OD2       28.7400   33.0360    7.6430 O.co2  58  ASP58      -0.2456
     40  N         25.2680   35.0130    4.9810 N.am   59  SER59      -0.1950
     41  CA        23.9870   35.4540    4.4590 C.3    59  SER59       0.1924
     42  C         24.1290   36.2030    3.1640 C.2    59  SER59       0.2314
     43  O         23.2430   36.2260    2.3670 O.2    59  SER59      -0.2863
     44  CB        23.2870   36.3090    5.4760 C.3    59  SER59       0.2116
     45  OG        24.1550   37.2870    5.9430 O.3    59  SER59      -0.2180
     46  N         16.3590   41.2140    3.8510 N.3    76  LEU76      -0.1231
     47  CA        15.9850   42.0400    4.9560 C.3    76  LEU76       0.1693
     48  C         17.1680   42.2010    5.8530 C.2    76  LEU76       0.2592
     49  O         17.6600   41.2700    6.3910 O.2    76  LEU76      -0.2718
     50  CB        14.8530   41.4150    5.7330 C.3    76  LEU76       0.0284
     51  CG        14.5720   42.0240    7.0920 C.3    76  LEU76       0.0019
     52  CD1       14.1500   43.4640    6.9760 C.3    76  LEU76       0.0001
     53  CD2       13.5510   41.2270    7.8610 C.3    76  LEU76       0.0001
     54  N         17.6190   43.4160    6.0140 N.am   77  HIS77      -0.1962
     55  CA        18.7070   43.7320    6.9280 C.3    77  HIS77       0.1787
     56  C         18.1810   44.5080    8.1270 C.2    77  HIS77       0.2620
     57  O         17.3720   45.4250    7.9800 O.2    77  HIS77      -0.2715
     58  CB        19.8020   44.5340    6.2250 C.3    77  HIS77       0.0785
     59  CG        20.9140   44.9560    7.1350 C.ar   77  HIS77       0.0821
     60  ND1       21.8470   44.0710    7.6290 N.ar   77  HIS77      -0.2267
     61  CD2       21.2320   46.1660    7.6520 C.ar   77  HIS77       0.1154
     62  CE1       22.6990   44.7180    8.4060 C.ar   77  HIS77       0.1986
     63  NE2       22.3460   45.9910    8.4360 N.ar   77  HIS77      -0.2212
     64  N         18.6540   44.1720    9.3040 N.am   78  ILE78      -0.1977
     65  CA        18.2450   44.8650   10.4820 C.3    78  ILE78       0.1596
     66  C         19.3890   45.6120   11.0620 C.2    78  ILE78       0.2287
     67  O         20.3510   45.0380   11.4590 O.2    78  ILE78      -0.2864
     68  CB        17.7450   43.9000   11.5360 C.3    78  ILE78       0.0276
     69  CG1       16.5750   43.1300   11.0000 C.3    78  ILE78       0.0022
     70  CG2       17.3060   44.6490   12.7610 C.3    78  ILE78       0.0022
     71  CD1       16.0340   42.1660   11.9980 C.3    78  ILE78       0.0001
     72  N         21.0980   47.2570   13.9470 N.3    80  LEU80      -0.1245
     73  CA        20.9880   47.0260   15.3840 C.3    80  LEU80       0.1561
     74  C         21.5090   48.1970   16.2170 C.2    80  LEU80       0.2260
     75  O         21.4300   48.1770   17.4440 O.2    80  LEU80      -0.2867
     76  CB        21.7220   45.7400   15.7610 C.3    80  LEU80       0.0270
     77  CG        21.1120   44.4910   15.1170 C.3    80  LEU80       0.0019
     78  CD1       21.9950   43.2810   15.3440 C.3    80  LEU80       0.0001
     79  CD2       19.7080   44.2460   15.6530 C.3    80  LEU80       0.0001
     80  N         28.0880   47.5400    8.5880 N.3    89  SER89      -0.1217
     81  CA        27.2950   46.3590    8.2630 C.3    89  SER89       0.1889
     82  C         26.1580   46.6790    7.2910 C.2    89  SER89       0.2288
     83  O         25.8480   45.8880    6.3990 O.2    89  SER89      -0.2866
     84  CB        26.7320   45.7430    9.5460 C.3    89  SER89       0.2089
     85  OG        25.7870   44.7310    9.2580 O.3    89  SER89      -0.2183
     86  N         15.7100   40.3680   16.6140 N.3   136  LYS136     -0.1245
     87  CA        16.0110   39.9090   15.2610 C.3   136  LYS136      0.1561
     88  C         14.9870   38.8870   14.7610 C.2   136  LYS136      0.2260
     89  O         14.4430   39.0320   13.6690 O.2   136  LYS136     -0.2867
     90  CB        17.4260   39.3210   15.1930 C.3   136  LYS136      0.0271
     91  CG        18.5420   40.3670   15.2180 C.3   136  LYS136      0.0035
     92  CD        19.9270   39.7400   15.0740 C.3   136  LYS136      0.0206
     93  CE        20.2260   38.7580   16.2030 C.3   136  LYS136      0.1093
     94  NZ        21.6070   38.1980   16.1150 N.3   136  LYS136     -0.1314
     95  N         12.2120   39.8750   11.7900 N.3   140  ILE140     -0.1245
     96  CA        12.3390   39.1180   10.5480 C.3   140  ILE140      0.1561
     97  C         11.0490   38.3580   10.2490 C.2   140  ILE140      0.2260
     98  O         10.5810   38.3340    9.1100 O.2   140  ILE140     -0.2867
     99  CB        13.5260   38.1340   10.6000 C.3   140  ILE140      0.0252
    100  CG1       14.8480   38.8990   10.6010 C.3   140  ILE140      0.0019
    101  CG2       13.4950   37.1920    9.4100 C.3   140  ILE140      0.0019
    102  CD1       16.0470   38.0440   10.9520 C.3   140  ILE140      0.0001
    103  N         17.7890   31.8700    6.3740 N.3   154  THR154     -0.1203
    104  CA        18.8710   32.4220    7.1800 C.3   154  THR154      0.1994
    105  C         20.1650   31.7020    6.8300 C.2   154  THR154      0.2618
    106  O         20.1340   30.5860    6.3130 O.2   154  THR154     -0.2717
    107  CB        18.5850   32.2960    8.6870 C.3   154  THR154      0.1784
    108  OG1       18.7000   30.9250    9.0890 O.3   154  THR154     -0.2211
    109  CG2       17.1880   32.7970    9.0010 C.3   154  THR154      0.0376
    110  N         21.2800   32.3150    7.1470 N.am  155  GLY155     -0.1942
    111  CA        22.5590   31.8160    6.7190 C.3   155  GLY155      0.2014
    112  C         23.3060   30.9580    7.6900 C.2   155  GLY155      0.2638
    113  O         24.4950   30.9140    7.6550 O.2   155  GLY155     -0.2714
    114  N         22.6010   30.2510    8.5400 N.am  156  HIS156     -0.1973
    115  CA        23.2350   29.3840    9.5290 C.3   156  HIS156      0.1656
    116  C         23.9710   28.2310    8.8530 C.2   156  HIS156      0.2291
    117  O         23.3840   27.4880    8.0690 O.2   156  HIS156     -0.2864
    118  CB        22.2000   28.8360   10.5170 C.3   156  HIS156      0.0771
    119  CG        21.6060   29.8780   11.4130 C.ar  156  HIS156      0.0820
    120  ND1       20.5810   30.7080   11.0150 N.ar  156  HIS156     -0.2267
    121  CD2       21.8910   30.2220   12.6930 C.ar  156  HIS156      0.1154
    122  CE1       20.2600   31.5190   12.0070 C.ar  156  HIS156      0.1986
    123  NE2       21.0410   31.2450   13.0360 N.ar  156  HIS156     -0.2212
    124  N         27.5880   26.4870   12.9320 N.3   160  ASP160     -0.1239
    125  CA        26.5740   27.0970   13.7410 C.3   160  ASP160      0.1674
    126  C         25.5980   26.0890   14.2970 C.2   160  ASP160      0.2266
    127  O         25.2680   26.1250   15.4450 O.2   160  ASP160     -0.2867
    128  CB        25.8430   28.1340   12.9130 C.3   160  ASP160      0.1410
    129  CG        26.6690   29.3340   12.6510 C.2   160  ASP160      0.3668
    130  OD1       27.6100   29.5720   13.3920 O.co2 160  ASP160     -0.2456
    131  OD2       26.3930   30.0420   11.6990 O.co2 160  ASP160     -0.2456
    132  N         31.7130   26.3410    8.0190 N.3   197  GLU197     -0.1245
    133  CA        31.9280   27.7800    7.9460 C.3   197  GLU197      0.1567
    134  C         33.0720   28.0920    6.9850 C.2   197  GLU197      0.2260
    135  O         33.0160   29.0620    6.2300 O.2   197  GLU197     -0.2867
    136  CB        32.2150   28.3530    9.3360 C.3   197  GLU197      0.0388
    137  CG        32.2040   29.8710    9.3930 C.3   197  GLU197      0.1160
    138  CD        31.7840   30.3980   10.7510 C.2   197  GLU197      0.3649
    139  OE1       32.3760   29.9740   11.7650 O.co2 197  GLU197     -0.2457
    140  OE2       30.8530   31.2310   10.8030 O.co2 197  GLU197     -0.2457
    141  N         33.6300   41.4010   13.4770 N.3   215  GLU215     -0.1245
    142  CA        32.4620   40.8760   14.1790 C.3   215  GLU215      0.1567
    143  C         32.0420   41.8170   15.3010 C.2   215  GLU215      0.2260
    144  O         32.8820   42.5510   15.8380 O.2   215  GLU215     -0.2867
    145  CB        32.7600   39.4880   14.7490 C.3   215  GLU215      0.0388
    146  CG        31.5650   38.7710   15.3790 C.3   215  GLU215      0.1160
    147  CD        30.3390   38.7490   14.4740 C.2   215  GLU215      0.3649
    148  OE1       29.2280   39.0070   14.9840 O.co2 215  GLU215     -0.2457
    149  OE2       30.4740   38.4530   13.2640 O.co2 215  GLU215     -0.2457
    150  N         32.5040   26.2530   18.9950 N.3   228  LYS228     -0.1245
    151  CA        33.1190   26.0560   17.6880 C.3   228  LYS228      0.1561
    152  C         34.5810   25.6520   17.8240 C.2   228  LYS228      0.2260
    153  O         35.0620   24.7910   17.0880 O.2   228  LYS228     -0.2867
    154  CB        32.9990   27.3210   16.8370 C.3   228  LYS228      0.0271
    155  CG        31.5870   27.6210   16.3690 C.3   228  LYS228      0.0035
    156  CD        31.5410   28.8760   15.5180 C.3   228  LYS228      0.0206
    157  CE        30.1350   29.1380   15.0150 C.3   228  LYS228      0.1093
    158  NZ        30.1000   30.1950   13.9670 N.3   228  LYS228     -0.1314
@<TRIPOS>BOND
     1    43    42    2
     2    11    10    1
     3    42    41    1
     4    26    25    2
     5    35    34    2
     6    46    47    1
     7    12    10    1
     8    10     7    1
     9    25    24    1
    10    25    32   am
    11    41    40    1
    12    41    44    1
    13    34    40   am
    14    34    33    1
    15    24    27    1
    16    24    23    1
    17    22    21    2
    18    47    50    1
    19    47    48    1
    20    27    28    1
    21    33    32    1
    22    33    36    1
    23     1     2    1
    24    44    45    1
    25     7     6    1
    26     7     8    1
    27    50    51    1
    28    21    23   am
    29    21    20    1
    30     6     3   am
    31    28    29    1
    32    48    54   am
    33    48    49    2
    34    54    55    1
    35     3     4    2
    36     3     2    1
    37    58    55    1
    38    58    59    1
    39   135   134    2
    40   106   105    2
    41   103   104    1
    42     2     5    1
    43    36    37    1
    44    83    82    2
    45    29    30    1
    46     8     9    2
    47     8    13   am
    48    19    20    1
    49   111   110    1
    50   111   112    1
    51   105   110   am
    52   105   104    1
    53    55    56    1
    54    52    51    1
    55   134   133    1
    56    13    14    1
    57    37    38   ar
    58    37    39   ar
    59    51    53    1
    60    59    60   ar
    61    59    61   ar
    62   104   107    1
    63    82    81    1
    64    15    14    1
    65    15    16    2
    66    60    62   ar
    67    61    63   ar
    68   113   112    2
    69   112   114   am
    70    30    31    1
    71   133   132    1
    72   133   136    1
    73    57    56    2
    74    14    17    1
    75   117   116    2
    76    56    64   am
    77    81    80    1
    78    81    84    1
    79    62    63   ar
    80   114   115    1
    81    18    17    1
    82   107   109    1
    83   107   108    1
    84   116   115    1
    85    98    97    2
    86    85    84    1
    87    64    65    1
    88   136   137    1
    89   137   138    1
    90   101    99    1
    91   115   118    1
    92    97    96    1
    93    65    66    1
    94    65    68    1
    95   118   119    1
    96    96    99    1
    97    96    95    1
    98    99   100    1
    99   100   102    1
   100   138   140   ar
   101   138   139   ar
   102    69    68    1
   103    69    71    1
   104   120   119   ar
   105   120   122   ar
   106    66    67    2
   107   119   121   ar
   108    68    70    1
   109   131   129   ar
   110   122   123   ar
   111   129   128    1
   112   129   130   ar
   113   121   123   ar
   114   128   125    1
   115   124   125    1
   116   149   147   ar
   117   141   142    1
   118    89    88    2
   119   125   126    1
   120    72    73    1
   121   158   157    1
   122   142   145    1
   123   142   143    1
   124   126   127    2
   125   147   148   ar
   126   147   146    1
   127   145   146    1
   128    88    87    1
   129   157   156    1
   130    92    91    1
   131    92    93    1
   132    77    78    1
   133    77    79    1
   134    77    76    1
   135    90    91    1
   136    90    87    1
   137    87    86    1
   138   143   144    2
   139    73    76    1
   140    73    74    1
   141   156   155    1
   142    94    93    1
   143    74    75    2
   144   155   154    1
   145   154   151    1
   146   153   152    2
   147   151   152    1
   148   151   150    1
