@<TRIPOS>MOLECULE
tmp/5b4kB00.pdb
 199 195 0 0 0
SMALL
GASTEIGER

@<TRIPOS>ATOM
      1  N         14.4220  -24.5260  -30.4290 N.3    70  TYR70      -0.1227
      2  CA        13.2290  -25.2400  -29.9540 C.3    70  TYR70       0.1736
      3  C         13.4570  -26.6390  -29.3750 C.2    70  TYR70       0.2595
      4  O         13.0180  -26.9200  -28.2590 O.2    70  TYR70      -0.2718
      5  CB        12.1370  -25.2910  -31.0290 C.3    70  TYR70       0.0548
      6  CG        10.9090  -26.0690  -30.5950 C.ar   70  TYR70      -0.0200
      7  CD1       10.0710  -25.5880  -29.5860 C.ar   70  TYR70      -0.0009
      8  CD2       10.5870  -27.2920  -31.1890 C.ar   70  TYR70      -0.0009
      9  CE1        8.9500  -26.2980  -29.1860 C.ar   70  TYR70       0.0417
     10  CE2        9.4670  -28.0100  -30.7960 C.ar   70  TYR70       0.0417
     11  CZ         8.6530  -27.5110  -29.7940 C.ar   70  TYR70       0.1957
     12  OH         7.5390  -28.2180  -29.3960 O.3    70  TYR70      -0.2866
     13  N         14.1120  -27.5160  -30.1310 N.am   71  HIS71      -0.1975
     14  CA        14.2770  -28.9110  -29.7120 C.3    71  HIS71       0.1656
     15  C         15.4020  -29.0810  -28.6870 C.2    71  HIS71       0.2291
     16  O         16.3490  -29.8460  -28.8970 O.2    71  HIS71      -0.2864
     17  CB        14.4750  -29.8210  -30.9260 C.3    71  HIS71       0.0771
     18  CG        13.2380  -29.9960  -31.7530 C.ar   71  HIS71       0.0820
     19  ND1       12.9600  -29.2110  -32.8520 N.ar   71  HIS71      -0.2267
     20  CD2       12.2010  -30.8580  -31.6340 C.ar   71  HIS71       0.1154
     21  CE1       11.8090  -29.5880  -33.3790 C.ar   71  HIS71       0.1986
     22  NE2       11.3260  -30.5830  -32.6560 N.ar   71  HIS71      -0.2212
     23  N          6.1000  -36.9930  -36.3280 N.3   181  LEU181     -0.1245
     24  CA         4.8020  -36.4100  -36.6620 C.3   181  LEU181      0.1561
     25  C          4.2110  -36.9880  -37.9490 C.2   181  LEU181      0.2260
     26  O          2.9910  -37.0000  -38.1310 O.2   181  LEU181     -0.2867
     27  CB         4.9190  -34.8850  -36.7450 C.3   181  LEU181      0.0270
     28  CG         3.6520  -34.0340  -36.5930 C.3   181  LEU181      0.0019
     29  CD1        2.8600  -34.3970  -35.3420 C.3   181  LEU181      0.0001
     30  CD2        4.0070  -32.5530  -36.5900 C.3   181  LEU181      0.0001
     31  N          4.0390  -33.8970  -27.0760 N.3   220  ASP220     -0.1225
     32  CA         5.0190  -33.2730  -27.9650 C.3   220  ASP220      0.1805
     33  C          4.5630  -31.9030  -28.4840 C.2   220  ASP220      0.2597
     34  O          5.3920  -31.0420  -28.7690 O.2   220  ASP220     -0.2718
     35  CB         5.3420  -34.2080  -29.1370 C.3   220  ASP220      0.1424
     36  CG         6.6920  -33.9120  -29.7780 C.2   220  ASP220      0.3668
     37  OD1        7.5140  -33.1890  -29.1750 O.co2 220  ASP220     -0.2456
     38  OD2        6.9330  -34.4170  -30.8960 O.co2 220  ASP220     -0.2456
     39  N          3.2510  -31.7050  -28.5870 N.am  221  LEU221     -0.1979
     40  CA         2.6930  -30.4570  -29.1110 C.3   221  LEU221      0.1596
     41  C          2.0610  -29.5570  -28.0430 C.2   221  LEU221      0.2287
     42  O          1.4680  -28.5290  -28.3720 O.2   221  LEU221     -0.2864
     43  CB         1.6560  -30.7550  -30.2010 C.3   221  LEU221      0.0297
     44  CG         2.0410  -31.6080  -31.4150 C.3   221  LEU221      0.0022
     45  CD1        0.8220  -31.8170  -32.3010 C.3   221  LEU221      0.0001
     46  CD2        3.1850  -30.9920  -32.2100 C.3   221  LEU221      0.0001
     47  N          2.6380  -27.2110  -26.1940 N.3   223  SER223     -0.1202
     48  CA         2.8690  -25.7620  -26.1520 C.3   223  SER223      0.2020
     49  C          1.6470  -24.9960  -26.6450 C.2   223  SER223      0.2618
     50  O          1.4320  -23.8440  -26.2670 O.2   223  SER223     -0.2717
     51  CB         4.0870  -25.3790  -26.9940 C.3   223  SER223      0.2103
     52  OG         5.2460  -26.0650  -26.5570 O.3   223  SER223     -0.2182
     53  N          0.8520  -25.6530  -27.4880 N.am  224  VAL224     -0.1979
     54  CA        -0.3930  -25.0900  -28.0140 C.3   224  VAL224      0.1595
     55  C         -1.5070  -25.1060  -26.9620 C.2   224  VAL224      0.2287
     56  O         -2.5900  -24.5620  -27.1860 O.2   224  VAL224     -0.2864
     57  CB        -0.8600  -25.8220  -29.3010 C.3   224  VAL224      0.0276
     58  CG1        0.2850  -25.9450  -30.3020 C.3   224  VAL224      0.0022
     59  CG2       -1.4450  -27.1930  -28.9810 C.3   224  VAL224      0.0022
     60  N          2.3700  -19.5900  -25.6360 N.3   231  THR231     -0.1218
     61  CA         2.1920  -20.2350  -26.9320 C.3   231  THR231      0.1862
     62  C          2.8650  -19.4620  -28.0700 C.2   231  THR231      0.2287
     63  O          3.5480  -20.0610  -28.9040 O.2   231  THR231     -0.2866
     64  CB         0.6960  -20.4740  -27.2290 C.3   231  THR231      0.1770
     65  OG1        0.1120  -21.2020  -26.1420 O.3   231  THR231     -0.2211
     66  CG2        0.5060  -21.2710  -28.5170 C.3   231  THR231      0.0375
     67  N          6.7550  -19.5330  -27.8210 N.3   234  THR234     -0.1203
     68  CA         7.2510  -20.8230  -28.2930 C.3   234  THR234      0.1994
     69  C          7.2300  -20.8690  -29.8190 C.2   234  THR234      0.2617
     70  O          8.1600  -21.3800  -30.4390 O.2   234  THR234     -0.2717
     71  CB         6.4270  -21.9970  -27.7260 C.3   234  THR234      0.1784
     72  OG1        6.3010  -21.8590  -26.3050 O.3   234  THR234     -0.2211
     73  CG2        7.0960  -23.3270  -28.0350 C.3   234  THR234      0.0376
     74  N          6.1730  -20.3170  -30.4140 N.am  235  ALA235     -0.1979
     75  CA         6.0350  -20.2510  -31.8680 C.3   235  ALA235      0.1597
     76  C          7.2410  -19.5740  -32.5060 C.2   235  ALA235      0.2287
     77  O          7.6710  -19.9610  -33.5910 O.2   235  ALA235     -0.2864
     78  CB         4.7520  -19.5320  -32.2510 C.3   235  ALA235      0.0319
     79  N         10.3020  -22.2310  -32.5830 N.3   238  ILE238     -0.1231
     80  CA        10.2030  -23.2380  -33.6360 C.3   238  ILE238      0.1692
     81  C         10.5270  -22.6180  -34.9900 C.2   238  ILE238      0.2592
     82  O         11.3470  -23.1540  -35.7360 O.2   238  ILE238     -0.2718
     83  CB         8.8090  -23.8980  -33.6790 C.3   238  ILE238      0.0266
     84  CG1        8.3370  -24.2240  -32.2670 C.3   238  ILE238      0.0019
     85  CG2        8.8480  -25.1800  -34.5010 C.3   238  ILE238      0.0020
     86  CD1        6.8630  -24.0000  -32.0510 C.3   238  ILE238      0.0001
     87  N          9.8920  -21.4850  -35.2930 N.am  239  TYR239     -0.1976
     88  CA        10.1050  -20.8010  -36.5680 C.3   239  TYR239      0.1639
     89  C         11.5570  -20.3910  -36.7620 C.2   239  TYR239      0.2290
     90  O         12.0870  -20.5090  -37.8640 O.2   239  TYR239     -0.2864
     91  CB         9.1560  -19.6110  -36.7380 C.3   239  TYR239      0.0560
     92  CG         7.7680  -20.0170  -37.1910 C.ar  239  TYR239     -0.0198
     93  CD1        6.6480  -19.7440  -36.4060 C.ar  239  TYR239     -0.0009
     94  CD2        7.5730  -20.6890  -38.4020 C.ar  239  TYR239     -0.0009
     95  CE1        5.3770  -20.1220  -36.8110 C.ar  239  TYR239      0.0417
     96  CE2        6.3050  -21.0700  -38.8160 C.ar  239  TYR239      0.0417
     97  CZ         5.2100  -20.7830  -38.0180 C.ar  239  TYR239      0.1957
     98  OH         3.9450  -21.1540  -38.4220 O.3   239  TYR239     -0.2866
     99  N         13.1610  -23.5230  -37.8050 N.3   242  PHE242     -0.1227
    100  CA        12.7160  -23.8140  -39.1720 C.3   242  PHE242      0.1736
    101  C         13.4110  -22.9300  -40.2050 C.2   242  PHE242      0.2595
    102  O         13.9670  -23.4300  -41.1820 O.2   242  PHE242     -0.2718
    103  CB        11.1960  -23.6530  -39.3140 C.3   242  PHE242      0.0547
    104  CG        10.3950  -24.8080  -38.7730 C.ar  242  PHE242     -0.0202
    105  CD1       10.9840  -26.0460  -38.5290 C.ar  242  PHE242     -0.0042
    106  CD2        9.0280  -24.6630  -38.5380 C.ar  242  PHE242     -0.0042
    107  CE1       10.2310  -27.1040  -38.0370 C.ar  242  PHE242     -0.0003
    108  CE2        8.2700  -25.7180  -38.0520 C.ar  242  PHE242     -0.0003
    109  CZ         8.8720  -26.9410  -37.8010 C.ar  242  PHE242     -0.0000
    110  N         13.3740  -21.6180  -39.9800 N.am  243  TRP243     -0.1976
    111  CA        13.9870  -20.6570  -40.8950 C.3   243  TRP243      0.1640
    112  C         15.4900  -20.8720  -41.0360 C.2   243  TRP243      0.2290
    113  O         16.0490  -20.6460  -42.1100 O.2   243  TRP243     -0.2864
    114  CB        13.6820  -19.2220  -40.4660 C.3   243  TRP243      0.0576
    115  CG        12.2190  -18.8870  -40.4770 C.ar  243  TRP243      0.0006
    116  CD1       11.2600  -19.4220  -41.2920 C.ar  243  TRP243      0.0946
    117  CD2       11.5500  -17.9230  -39.6510 C.ar  243  TRP243      0.0152
    118  NE1       10.0360  -18.8630  -41.0160 N.ar  243  TRP243     -0.2442
    119  CE2       10.1820  -17.9390  -40.0150 C.ar  243  TRP243      0.0810
    120  CE3       11.9700  -17.0510  -38.6350 C.ar  243  TRP243      0.0012
    121  CZ2        9.2290  -17.1140  -39.4000 C.ar  243  TRP243      0.0191
    122  CZ3       11.0210  -16.2310  -38.0200 C.ar  243  TRP243      0.0001
    123  CH2        9.6660  -16.2710  -38.4080 C.ar  243  TRP243      0.0015
    124  N          7.2210  -23.0200  -47.6650 N.3   258  PRO258     -0.2102
    125  CA         6.8900  -21.7430  -47.0170 C.3   258  PRO258      0.1504
    126  C          7.0980  -21.7710  -45.5090 C.2   258  PRO258      0.2575
    127  O          7.5160  -20.7720  -44.9230 O.2   258  PRO258     -0.2718
    128  CB         5.4080  -21.5590  -47.3430 C.3   258  PRO258      0.0282
    129  CG         5.2230  -22.2820  -48.6290 C.3   258  PRO258      0.0208
    130  CD         6.1240  -23.4810  -48.5380 C.3   258  PRO258      0.0893
    131  N          6.8220  -22.9280  -44.9110 N.am  259  MET259     -0.1980
    132  CA         6.9910  -23.1770  -43.4810 C.3   259  MET259      0.1605
    133  C          8.3850  -22.8220  -42.9650 C.2   259  MET259      0.2287
    134  O          8.5410  -22.3950  -41.8230 O.2   259  MET259     -0.2864
    135  CB         6.6870  -24.6490  -43.1950 C.3   259  MET259      0.0413
    136  CG         6.4630  -24.9980  -41.7350 C.3   259  MET259      0.0598
    137  SD         5.7870  -26.6580  -41.5550 S.3   259  MET259     -0.1393
    138  CE         7.2510  -27.6560  -41.8170 C.3   259  MET259      0.0692
    139  N          8.6060  -15.5600  -45.9330 N.3   264  LYS264     -0.1245
    140  CA         7.1620  -15.7920  -45.9440 C.3   264  LYS264      0.1561
    141  C          6.5340  -15.7200  -44.5460 C.2   264  LYS264      0.2260
    142  O          5.6370  -16.4990  -44.2220 O.2   264  LYS264     -0.2867
    143  CB         6.8450  -17.1260  -46.6290 C.3   264  LYS264      0.0271
    144  CG         6.9400  -17.0590  -48.1430 C.3   264  LYS264      0.0035
    145  CD         7.1730  -18.4210  -48.7720 C.3   264  LYS264      0.0206
    146  CE         7.3210  -18.3040  -50.2810 C.3   264  LYS264      0.1093
    147  NZ         7.4910  -19.6320  -50.9300 N.3   264  LYS264     -0.1314
    148  N          2.5380  -15.3420  -43.8550 N.3   267  GLU267     -0.1231
    149  CA         1.6400  -16.4900  -43.9100 C.3   267  GLU267      0.1699
    150  C          1.7560  -17.4010  -42.6820 C.2   267  GLU267      0.2592
    151  O          1.2270  -18.5150  -42.6770 O.2   267  GLU267     -0.2718
    152  CB         1.8770  -17.2710  -45.2070 C.3   267  GLU267      0.0402
    153  CG         1.6660  -16.4400  -46.4660 C.3   267  GLU267      0.1161
    154  CD         2.1470  -17.1310  -47.7280 C.2   267  GLU267      0.3649
    155  OE1        1.9360  -18.3570  -47.8670 O.co2 267  GLU267     -0.2457
    156  OE2        2.7300  -16.4400  -48.5900 O.co2 267  GLU267     -0.2457
    157  N          2.4430  -16.9120  -41.6480 N.am  268  VAL268     -0.1980
    158  CA         2.5800  -17.6300  -40.3740 C.3   268  VAL268      0.1595
    159  C          1.2260  -17.8380  -39.6780 C.2   268  VAL268      0.2287
    160  O          0.9100  -18.9680  -39.2940 O.2   268  VAL268     -0.2864
    161  CB         3.6130  -16.9560  -39.4280 C.3   268  VAL268      0.0276
    162  CG1        3.3850  -17.3450  -37.9740 C.3   268  VAL268      0.0022
    163  CG2        5.0310  -17.3060  -39.8480 C.3   268  VAL268      0.0022
    164  N         -0.6870  -20.3200  -41.5540 N.3   271  GLY271     -0.1210
    165  CA         0.0030  -21.6000  -41.4040 C.3   271  GLY271      0.1956
    166  C         -0.2700  -22.2510  -40.0600 C.2   271  GLY271      0.2611
    167  O         -0.4060  -23.4740  -39.9680 O.2   271  GLY271     -0.2717
    168  N         -0.3430  -21.4250  -39.0180 N.am  272  GLN272     -0.1979
    169  CA        -0.7510  -21.8720  -37.6890 C.3   272  GLN272      0.1601
    170  C         -2.2140  -22.3070  -37.6790 C.2   272  GLN272      0.2287
    171  O         -2.5650  -23.3100  -37.0560 O.2   272  GLN272     -0.2864
    172  CB        -0.5260  -20.7640  -36.6640 C.3   272  GLN272      0.0394
    173  CG         0.9250  -20.5960  -36.2520 C.3   272  GLN272      0.0908
    174  CD         1.4740  -21.8170  -35.5380 C.2   272  GLN272      0.2608
    175  OE1        0.8380  -22.3620  -34.6300 O.2   272  GLN272     -0.2717
    176  NE2        2.6610  -22.2550  -35.9470 N.am  272  GLN272     -0.0878
    177  N         -2.4450  -25.6070  -39.1270 N.3   275  PHE275     -0.1227
    178  CA        -1.8030  -26.5350  -38.1990 C.3   275  PHE275      0.1736
    179  C         -2.7560  -26.9910  -37.0900 C.2   275  PHE275      0.2595
    180  O         -2.8440  -28.1860  -36.8010 O.2   275  PHE275     -0.2718
    181  CB        -0.5270  -25.9050  -37.6210 C.3   275  PHE275      0.0547
    182  CG         0.1050  -26.6980  -36.5140 C.ar  275  PHE275     -0.0202
    183  CD1        0.5070  -28.0170  -36.7140 C.ar  275  PHE275     -0.0042
    184  CD2        0.3180  -26.1170  -35.2670 C.ar  275  PHE275     -0.0042
    185  CE1        1.0970  -28.7410  -35.6900 C.ar  275  PHE275     -0.0003
    186  CE2        0.9090  -26.8360  -34.2370 C.ar  275  PHE275     -0.0003
    187  CZ         1.3000  -28.1490  -34.4500 C.ar  275  PHE275     -0.0000
    188  N         -3.4690  -26.0430  -36.4830 N.am  276  TYR276     -0.1976
    189  CA        -4.4400  -26.3530  -35.4310 C.3   276  TYR276      0.1639
    190  C         -5.5950  -27.2020  -35.9610 C.2   276  TYR276      0.2290
    191  O         -5.9500  -28.2150  -35.3560 O.2   276  TYR276     -0.2864
    192  CB        -4.9710  -25.0700  -34.7780 C.3   276  TYR276      0.0560
    193  CG        -4.0720  -24.4840  -33.7020 C.ar  276  TYR276     -0.0198
    194  CD1       -2.9190  -23.7710  -34.0340 C.ar  276  TYR276     -0.0009
    195  CD2       -4.3830  -24.6300  -32.3500 C.ar  276  TYR276     -0.0009
    196  CE1       -2.1000  -23.2330  -33.0520 C.ar  276  TYR276      0.0417
    197  CE2       -3.5690  -24.0930  -31.3620 C.ar  276  TYR276      0.0417
    198  CZ        -2.4320  -23.3970  -31.7190 C.ar  276  TYR276      0.1957
    199  OH        -1.6240  -22.8630  -30.7450 O.3   276  TYR276     -0.2866
@<TRIPOS>BOND
     1   147   146    1
     2   146   145    1
     3   145   144    1
     4   129   130    1
     5   129   128    1
     6   156   154   ar
     7   130   124    1
     8   144   143    1
     9   155   154   ar
    10   154   153    1
    11   124   125    1
    12   128   125    1
    13   125   126    1
    14   143   140    1
    15   153   152    1
    16   140   139    1
    17   140   141    1
    18   126   127    2
    19   126   131   am
    20   152   149    1
    21   131   132    1
    22   141   142    2
    23   149   148    1
    24   149   150    1
    25   132   135    1
    26   132   133    1
    27   135   136    1
    28   133   134    2
    29   150   151    2
    30   150   157   am
    31   113   112    2
    32   138   137    1
    33   136   137    1
    34   157   158    1
    35   164   165    1
    36   165   166    1
    37   116   118   ar
    38   116   115   ar
    39   102   101    2
    40   112   111    1
    41   118   119   ar
    42   111   114    1
    43   111   110    1
    44   115   114    1
    45   115   117   ar
    46   158   159    1
    47   158   161    1
    48   101   110   am
    49   101   100    1
    50   166   167    2
    51   166   168   am
    52   119   117   ar
    53   119   121   ar
    54   163   161    1
    55   159   160    2
    56   117   120   ar
    57   161   162    1
    58   121   123   ar
    59   103   100    1
    60   103   104    1
    61   100    99    1
    62   177   178    1
    63   168   169    1
    64    96    94   ar
    65    96    97   ar
    66   104   106   ar
    67   104   105   ar
    68   120   122   ar
    69   106   108   ar
    70   105   107   ar
    71    98    97    1
    72   123   122   ar
    73    94    92   ar
    74   178   181    1
    75   178   179    1
    76    26    25    2
    77   108   109   ar
    78   107   109   ar
    79    97    95   ar
    80    25    24    1
    81    90    89    2
    82   169   170    1
    83   169   172    1
    84   170   171    2
    85   181   182    1
    86    92    91    1
    87    92    93   ar
    88   179   180    2
    89   179   188   am
    90    95    93   ar
    91    89    88    1
    92    27    24    1
    93    27    28    1
    94    91    88    1
    95   183   182   ar
    96   183   185   ar
    97   172   173    1
    98    24    23    1
    99    28    30    1
   100    28    29    1
   101    88    87    1
   102   182   184   ar
   103   188   189    1
   104   173   174    1
   105   190   189    1
   106   190   191    2
   107   176   174   am
   108    82    81    2
   109   185   187   ar
   110   174   175    2
   111   189   192    1
   112    87    81   am
   113   184   186   ar
   114    81    80    1
   115   192   193    1
   116    85    83    1
   117   187   186   ar
   118   194   193   ar
   119   194   196   ar
   120   193   195   ar
   121    83    80    1
   122    83    84    1
   123    80    79    1
   124    77    76    2
   125    21    19   ar
   126    21    22   ar
   127   196   198   ar
   128    19    18   ar
   129    22    20   ar
   130    76    75    1
   131   195   197   ar
   132    45    44    1
   133    84    86    1
   134    78    75    1
   135    46    44    1
   136    75    74    1
   137    18    20   ar
   138    18    17    1
   139   198   197   ar
   140   198   199    1
   141    44    43    1
   142     8    10   ar
   143     8     6   ar
   144     5     6    1
   145     5     2    1
   146    17    14    1
   147    38    36   ar
   148    10    11   ar
   149     6     7   ar
   150    70    69    2
   151     1     2    1
   152    74    69   am
   153    58    57    1
   154    43    40    1
   155    13    14    1
   156    13     3   am
   157     2     3    1
   158    69    68    1
   159    11    12    1
   160    11     9   ar
   161    36    37   ar
   162    36    35    1
   163    14    15    1
   164     7     9   ar
   165     3     4    2
   166    57    59    1
   167    57    54    1
   168    35    32    1
   169    40    39    1
   170    40    41    1
   171    63    62    2
   172    16    15    2
   173    34    33    2
   174    39    33   am
   175    66    64    1
   176    33    32    1
   177    42    41    2
   178    68    67    1
   179    68    71    1
   180    62    61    1
   181    73    71    1
   182    54    53    1
   183    54    55    1
   184    32    31    1
   185    71    72    1
   186    53    49   am
   187    64    61    1
   188    64    65    1
   189    56    55    2
   190    51    52    1
   191    51    48    1
   192    61    60    1
   193    49    50    2
   194    49    48    1
   195    47    48    1
