@<TRIPOS>MOLECULE
tmp/5b4lB00.pdb
 213 209 0 0 0
SMALL
GASTEIGER

@<TRIPOS>ATOM
      1  N         14.3290  -24.5220  -30.2810 N.3    70  TYR70      -0.1227
      2  CA        13.1330  -25.1600  -29.7170 C.3    70  TYR70       0.1736
      3  C         13.3500  -26.5650  -29.1560 C.2    70  TYR70       0.2595
      4  O         12.9370  -26.8510  -28.0300 O.2    70  TYR70      -0.2718
      5  CB        11.9730  -25.1500  -30.7260 C.3    70  TYR70       0.0548
      6  CG        10.7620  -25.9410  -30.2760 C.ar   70  TYR70      -0.0200
      7  CD1       10.0080  -25.5310  -29.1810 C.ar   70  TYR70      -0.0009
      8  CD2       10.3770  -27.1090  -30.9410 C.ar   70  TYR70      -0.0009
      9  CE1        8.9090  -26.2550  -28.7620 C.ar   70  TYR70       0.0417
     10  CE2        9.2720  -27.8360  -30.5280 C.ar   70  TYR70       0.0417
     11  CZ         8.5440  -27.4000  -29.4390 C.ar   70  TYR70       0.1957
     12  OH         7.4490  -28.1040  -29.0090 O.3    70  TYR70      -0.2866
     13  N         13.9820  -27.4390  -29.9350 N.am   71  HIS71      -0.1975
     14  CA        14.1610  -28.8460  -29.5410 C.3    71  HIS71       0.1656
     15  C         15.2380  -29.0330  -28.4730 C.2    71  HIS71       0.2291
     16  O         16.2640  -29.6790  -28.6970 O.2    71  HIS71      -0.2864
     17  CB        14.4320  -29.7130  -30.7670 C.3    71  HIS71       0.0771
     18  CG        13.1950  -30.0590  -31.5330 C.ar   71  HIS71       0.0820
     19  ND1       12.8410  -29.4230  -32.7030 N.ar   71  HIS71      -0.2267
     20  CD2       12.2190  -30.9630  -31.2850 C.ar   71  HIS71       0.1154
     21  CE1       11.7010  -29.9250  -33.1470 C.ar   71  HIS71       0.1986
     22  NE2       11.3040  -30.8620  -32.3040 N.ar   71  HIS71      -0.2212
     23  N         12.0610  -28.0990  -23.7830 N.3    75  HIS75      -0.1241
     24  CA        11.0570  -28.8870  -24.4890 C.3    75  HIS75       0.1621
     25  C         10.8860  -30.2780  -23.8710 C.2    75  HIS75       0.2264
     26  O          9.7590  -30.7430  -23.6740 O.2    75  HIS75      -0.2867
     27  CB        11.4270  -28.9610  -25.9750 C.3    75  HIS75       0.0745
     28  CG        10.6070  -29.9270  -26.7660 C.ar   75  HIS75       0.0817
     29  ND1        9.2320  -29.8660  -26.8260 N.ar   75  HIS75      -0.2268
     30  CD2       10.9720  -30.9690  -27.5500 C.ar   75  HIS75       0.1154
     31  CE1        8.7850  -30.8360  -27.6060 C.ar   75  HIS75       0.1986
     32  NE2        9.8200  -31.5220  -28.0540 N.ar   75  HIS75      -0.2212
     33  N          5.6780  -37.3120  -36.2140 N.3   181  LEU181     -0.1245
     34  CA         4.3710  -36.7770  -36.5810 C.3   181  LEU181      0.1561
     35  C          3.8210  -37.3990  -37.8640 C.2   181  LEU181      0.2260
     36  O          2.6090  -37.3870  -38.0960 O.2   181  LEU181     -0.2867
     37  CB         4.4450  -35.2540  -36.7070 C.3   181  LEU181      0.0270
     38  CG         3.1750  -34.4750  -36.3660 C.3   181  LEU181      0.0019
     39  CD1        2.8690  -34.5440  -34.8750 C.3   181  LEU181      0.0001
     40  CD2        3.3210  -33.0310  -36.8110 C.3   181  LEU181      0.0001
     41  N          3.9730  -33.9860  -26.9270 N.3   220  ASP220     -0.1225
     42  CA         4.9140  -33.3450  -27.8430 C.3   220  ASP220      0.1805
     43  C          4.4470  -31.9490  -28.2470 C.2   220  ASP220      0.2597
     44  O          5.2570  -31.0240  -28.3690 O.2   220  ASP220     -0.2718
     45  CB         5.1170  -34.2150  -29.0900 C.3   220  ASP220      0.1424
     46  CG         6.5160  -34.0800  -29.6940 C.2   220  ASP220      0.3668
     47  OD1        7.3470  -33.2960  -29.1810 O.co2 220  ASP220     -0.2456
     48  OD2        6.7780  -34.7790  -30.6960 O.co2 220  ASP220     -0.2456
     49  N          3.1400  -31.7980  -28.4260 N.am  221  LEU221     -0.1979
     50  CA         2.5580  -30.5590  -28.9350 C.3   221  LEU221      0.1596
     51  C          1.9770  -29.6380  -27.8580 C.2   221  LEU221      0.2287
     52  O          1.3510  -28.6250  -28.1840 O.2   221  LEU221     -0.2864
     53  CB         1.4730  -30.8840  -29.9660 C.3   221  LEU221      0.0297
     54  CG         1.8110  -31.7700  -31.1700 C.3   221  LEU221      0.0022
     55  CD1        0.5280  -32.1530  -31.8920 C.3   221  LEU221      0.0001
     56  CD2        2.7940  -31.0960  -32.1200 C.3   221  LEU221      0.0001
     57  N          2.6870  -27.2250  -26.1480 N.3   223  SER223     -0.1202
     58  CA         2.9210  -25.7820  -26.1350 C.3   223  SER223      0.2020
     59  C          1.6830  -25.0350  -26.5990 C.2   223  SER223      0.2618
     60  O          1.5000  -23.8610  -26.2740 O.2   223  SER223     -0.2717
     61  CB         4.1060  -25.4100  -27.0150 C.3   223  SER223      0.2103
     62  OG         5.3090  -25.9030  -26.4560 O.3   223  SER223     -0.2182
     63  N          0.8360  -25.7320  -27.3510 N.am  224  VAL224     -0.1979
     64  CA        -0.4070  -25.1690  -27.8710 C.3   224  VAL224      0.1595
     65  C         -1.5330  -25.2210  -26.8340 C.2   224  VAL224      0.2287
     66  O         -2.6390  -24.7350  -27.0850 O.2   224  VAL224     -0.2864
     67  CB        -0.8440  -25.8500  -29.1950 C.3   224  VAL224      0.0276
     68  CG1        0.3060  -25.8560  -30.2000 C.3   224  VAL224      0.0022
     69  CG2       -1.3830  -27.2560  -28.9480 C.3   224  VAL224      0.0022
     70  N          9.8500  -22.2870  -32.3530 N.3   238  ILE238     -0.1231
     71  CA         9.5710  -23.2960  -33.3680 C.3   238  ILE238      0.1692
     72  C          9.9730  -22.7860  -34.7550 C.2   238  ILE238      0.2592
     73  O         10.7470  -23.4380  -35.4640 O.2   238  ILE238     -0.2718
     74  CB         8.0900  -23.7430  -33.3320 C.3   238  ILE238      0.0266
     75  CG1        7.7850  -24.4820  -32.0220 C.3   238  ILE238      0.0019
     76  CG2        7.7690  -24.6330  -34.5200 C.3   238  ILE238      0.0020
     77  CD1        6.3220  -24.8050  -31.7950 C.3   238  ILE238      0.0001
     78  N          9.4670  -21.6080  -35.1200 N.am  239  TYR239     -0.1976
     79  CA         9.7460  -21.0200  -36.4300 C.3   239  TYR239      0.1639
     80  C         11.2050  -20.6180  -36.5840 C.2   239  TYR239      0.2290
     81  O         11.7670  -20.7300  -37.6740 O.2   239  TYR239     -0.2864
     82  CB         8.8110  -19.8430  -36.7240 C.3   239  TYR239      0.0560
     83  CG         7.4300  -20.2730  -37.1770 C.ar  239  TYR239     -0.0198
     84  CD1        6.3510  -20.2480  -36.3000 C.ar  239  TYR239     -0.0009
     85  CD2        7.2060  -20.7160  -38.4810 C.ar  239  TYR239     -0.0009
     86  CE1        5.0860  -20.6450  -36.7040 C.ar  239  TYR239      0.0417
     87  CE2        5.9440  -21.1210  -38.8930 C.ar  239  TYR239      0.0417
     88  CZ         4.8880  -21.0810  -38.0010 C.ar  239  TYR239      0.1957
     89  OH         3.6320  -21.4780  -38.3960 O.3   239  TYR239     -0.2866
     90  N         12.5680  -23.7540  -37.7160 N.3   242  PHE242     -0.1227
     91  CA        12.1050  -24.0090  -39.0840 C.3   242  PHE242      0.1736
     92  C         12.8860  -23.1950  -40.1150 C.2   242  PHE242      0.2595
     93  O         13.4150  -23.7490  -41.0850 O.2   242  PHE242     -0.2718
     94  CB        10.6110  -23.7060  -39.2290 C.3   242  PHE242      0.0547
     95  CG         9.7060  -24.7360  -38.6070 C.ar  242  PHE242     -0.0202
     96  CD1       10.1660  -26.0180  -38.3140 C.ar  242  PHE242     -0.0042
     97  CD2        8.3710  -24.4280  -38.3490 C.ar  242  PHE242     -0.0042
     98  CE1        9.3190  -26.9620  -37.7520 C.ar  242  PHE242     -0.0003
     99  CE2        7.5180  -25.3720  -37.7930 C.ar  242  PHE242     -0.0003
    100  CZ         7.9940  -26.6390  -37.4920 C.ar  242  PHE242     -0.0000
    101  N         12.9620  -21.8830  -39.8950 N.am  243  TRP243     -0.1976
    102  CA        13.6510  -20.9820  -40.8210 C.3   243  TRP243      0.1640
    103  C         15.1470  -21.2530  -40.8780 C.2   243  TRP243      0.2290
    104  O         15.7680  -21.0980  -41.9300 O.2   243  TRP243     -0.2864
    105  CB        13.3870  -19.5210  -40.4640 C.3   243  TRP243      0.0576
    106  CG        11.9350  -19.1690  -40.4260 C.ar  243  TRP243      0.0006
    107  CD1       10.9350  -19.7090  -41.1870 C.ar  243  TRP243      0.0946
    108  CD2       11.3190  -18.1800  -39.5980 C.ar  243  TRP243      0.0152
    109  NE1        9.7330  -19.1230  -40.8770 N.ar  243  TRP243     -0.2442
    110  CE2        9.9390  -18.1800  -39.9040 C.ar  243  TRP243      0.0810
    111  CE3       11.7980  -17.2900  -38.6250 C.ar  243  TRP243      0.0012
    112  CZ2        9.0300  -17.3280  -39.2710 C.ar  243  TRP243      0.0191
    113  CZ3       10.8930  -16.4420  -37.9940 C.ar  243  TRP243      0.0001
    114  CH2        9.5230  -16.4700  -38.3220 C.ar  243  TRP243      0.0015
    115  N          9.9160  -25.2350  -48.2660 N.3   257  ILE257     -0.1231
    116  CA         8.4790  -25.0410  -48.1300 C.3   257  ILE257      0.1678
    117  C          8.2550  -23.7440  -47.3470 C.2   257  ILE257      0.2434
    118  O          9.0950  -23.3730  -46.5210 O.2   257  ILE257     -0.2733
    119  CB         7.7730  -26.2440  -47.4510 C.3   257  ILE257      0.0265
    120  CG1        8.3280  -26.4950  -46.0410 C.3   257  ILE257      0.0019
    121  CG2        7.8770  -27.4890  -48.3300 C.3   257  ILE257      0.0020
    122  CD1        7.4670  -27.3980  -45.1830 C.3   257  ILE257      0.0001
    123  N          7.1430  -23.0370  -47.6270 N.am  258  PRO258     -0.2718
    124  CA         6.8360  -21.7550  -46.9910 C.3   258  PRO258      0.1535
    125  C          7.0110  -21.7540  -45.4690 C.2   258  PRO258      0.2598
    126  O          7.5440  -20.7900  -44.9070 O.2   258  PRO258     -0.2715
    127  CB         5.3760  -21.5310  -47.3760 C.3   258  PRO258      0.0310
    128  CG         5.2790  -22.1430  -48.7290 C.3   258  PRO258      0.0237
    129  CD         6.1640  -23.3620  -48.6830 C.3   258  PRO258      0.0939
    130  N          6.5890  -22.8410  -44.8280 N.am  259  MET259     -0.1964
    131  CA         6.7120  -23.0200  -43.3820 C.3   259  MET259      0.1736
    132  C          8.1380  -22.8100  -42.8660 C.2   259  MET259      0.2616
    133  O          8.3340  -22.3460  -41.7430 O.2   259  MET259     -0.2715
    134  CB         6.2200  -24.4160  -43.0040 C.3   259  MET259      0.0427
    135  CG         6.0480  -24.6550  -41.5130 C.3   259  MET259      0.0599
    136  SD         5.6600  -26.3780  -41.1670 S.3   259  MET259     -0.1393
    137  CE         7.2760  -27.1130  -41.3730 C.3   259  MET259      0.0692
    138  N          9.1240  -23.1530  -43.6880 N.am  260  MET260     -0.1963
    139  CA        10.5280  -23.0100  -43.3090 C.3   260  MET260      0.1736
    140  C         11.2020  -21.8360  -44.0130 C.2   260  MET260      0.2616
    141  O         12.4200  -21.6800  -43.9450 O.2   260  MET260     -0.2715
    142  CB        11.2910  -24.3000  -43.5930 C.3   260  MET260      0.0427
    143  CG        10.8500  -25.4690  -42.7400 C.3   260  MET260      0.0599
    144  SD        11.6000  -26.9910  -43.3290 S.3   260  MET260     -0.1393
    145  CE        10.7590  -28.1880  -42.2920 C.3   260  MET260      0.0692
    146  N         10.4000  -21.0220  -44.6910 N.am  261  ASP261     -0.1971
    147  CA        10.8910  -19.8280  -45.3550 C.3   261  ASP261      0.1709
    148  C         10.5810  -18.6330  -44.4710 C.2   261  ASP261      0.2293
    149  O          9.4140  -18.3270  -44.2210 O.2   261  ASP261     -0.2864
    150  CB        10.2340  -19.6690  -46.7290 C.3   261  ASP261      0.1436
    151  CG        10.8680  -18.5640  -47.5690 C.2   261  ASP261      0.3671
    152  OD1       11.6430  -17.7450  -47.0300 O.co2 261  ASP261     -0.2456
    153  OD2       10.5850  -18.5180  -48.7860 O.co2 261  ASP261     -0.2456
    154  N          8.3640  -15.6840  -45.6140 N.3   264  LYS264     -0.1245
    155  CA         6.9170  -15.8770  -45.6810 C.3   264  LYS264      0.1561
    156  C          6.2520  -15.8200  -44.2960 C.2   264  LYS264      0.2260
    157  O          5.3240  -16.5790  -44.0070 O.2   264  LYS264     -0.2867
    158  CB         6.5830  -17.1720  -46.4380 C.3   264  LYS264      0.0271
    159  CG         7.1750  -17.2100  -47.8420 C.3   264  LYS264      0.0035
    160  CD         6.5580  -18.2820  -48.7210 C.3   264  LYS264      0.0206
    161  CE         7.0720  -18.1660  -50.1490 C.3   264  LYS264      0.1093
    162  NZ         6.6110  -19.2830  -51.0210 N.3   264  LYS264     -0.1314
    163  N          2.2560  -15.4540  -43.5300 N.3   267  GLU267     -0.1231
    164  CA         1.3850  -16.6230  -43.5170 C.3   267  GLU267      0.1699
    165  C          1.5280  -17.4610  -42.2370 C.2   267  GLU267      0.2592
    166  O          0.8660  -18.4890  -42.0950 O.2   267  GLU267     -0.2718
    167  CB         1.6230  -17.4790  -44.7670 C.3   267  GLU267      0.0402
    168  CG         1.1640  -16.8170  -46.0590 C.3   267  GLU267      0.1161
    169  CD         1.7190  -17.4880  -47.3020 C.2   267  GLU267      0.3649
    170  OE1        1.5350  -18.7150  -47.4630 O.co2 267  GLU267     -0.2457
    171  OE2        2.3330  -16.7780  -48.1280 O.co2 267  GLU267     -0.2457
    172  N          2.3810  -17.0120  -41.3120 N.am  268  VAL268     -0.1980
    173  CA         2.5660  -17.6860  -40.0140 C.3   268  VAL268      0.1595
    174  C          1.2520  -17.8190  -39.2290 C.2   268  VAL268      0.2287
    175  O          0.9580  -18.9020  -38.7240 O.2   268  VAL268     -0.2864
    176  CB         3.6950  -17.0410  -39.1580 C.3   268  VAL268      0.0276
    177  CG1        3.5260  -17.3460  -37.6740 C.3   268  VAL268      0.0022
    178  CG2        5.0660  -17.5020  -39.6370 C.3   268  VAL268      0.0022
    179  N         -0.7670  -20.4150  -41.1760 N.3   271  GLY271     -0.1210
    180  CA        -0.1650  -21.7360  -41.0290 C.3   271  GLY271      0.1956
    181  C         -0.4540  -22.3480  -39.6720 C.2   271  GLY271      0.2611
    182  O         -0.7940  -23.5280  -39.5830 O.2   271  GLY271     -0.2717
    183  N         -0.3190  -21.5430  -38.6180 N.am  272  GLN272     -0.1979
    184  CA        -0.6720  -21.9670  -37.2640 C.3   272  GLN272      0.1601
    185  C         -2.1410  -22.3670  -37.1880 C.2   272  GLN272      0.2287
    186  O         -2.4650  -23.4490  -36.6930 O.2   272  GLN272     -0.2864
    187  CB        -0.3550  -20.8730  -36.2410 C.3   272  GLN272      0.0394
    188  CG         1.1180  -20.7740  -35.8750 C.3   272  GLN272      0.0908
    189  CD         1.6200  -21.9810  -35.1000 C.2   272  GLN272      0.2608
    190  OE1        1.0960  -22.3120  -34.0380 O.2   272  GLN272     -0.2717
    191  NE2        2.6450  -22.6420  -35.6280 N.am  272  GLN272     -0.0878
    192  N         -4.1020  -23.3400  -39.6480 N.3   274  GLY274     -0.1210
    193  CA        -4.2000  -24.6000  -40.3820 C.3   274  GLY274      0.1956
    194  C         -3.6870  -25.7870  -39.5880 C.2   274  GLY274      0.2611
    195  O         -4.2970  -26.8560  -39.5950 O.2   274  GLY274     -0.2717
    196  N         -2.5710  -25.5850  -38.8930 N.am  275  PHE275     -0.1976
    197  CA        -1.9730  -26.6100  -38.0420 C.3   275  PHE275      0.1639
    198  C         -2.8640  -27.0110  -36.8590 C.2   275  PHE275      0.2290
    199  O         -2.9450  -28.1930  -36.5140 O.2   275  PHE275     -0.2864
    200  CB        -0.5900  -26.1610  -37.5490 C.3   275  PHE275      0.0560
    201  CG        -0.0720  -26.9590  -36.3870 C.ar  275  PHE275     -0.0200
    202  CD1        0.4280  -28.2450  -36.5760 C.ar  275  PHE275     -0.0042
    203  CD2       -0.0970  -26.4310  -35.0960 C.ar  275  PHE275     -0.0042
    204  CE1        0.8940  -28.9880  -35.5030 C.ar  275  PHE275     -0.0003
    205  CE2        0.3710  -27.1680  -34.0200 C.ar  275  PHE275     -0.0003
    206  CZ         0.8640  -28.4490  -34.2240 C.ar  275  PHE275     -0.0000
    207  N         -4.2180  -30.7020  -37.1350 N.3   279  VAL279     -0.1245
    208  CA        -3.3750  -31.5530  -36.2960 C.3   279  VAL279      0.1561
    209  C         -3.7470  -31.5000  -34.8190 C.2   279  VAL279      0.2260
    210  O         -4.1720  -32.5080  -34.2490 O.2   279  VAL279     -0.2867
    211  CB        -1.8720  -31.2190  -36.4510 C.3   279  VAL279      0.0252
    212  CG1       -1.0220  -32.2310  -35.6990 C.3   279  VAL279      0.0019
    213  CG2       -1.4680  -31.1680  -37.9180 C.3   279  VAL279      0.0019
@<TRIPOS>BOND
     1   162   161    1
     2   161   160    1
     3   153   151   ar
     4   128   129    1
     5   128   127    1
     6   160   159    1
     7   129   123    1
     8   121   119    1
     9   115   116    1
    10   116   119    1
    11   116   117    1
    12   171   169   ar
    13   159   158    1
    14   123   117   am
    15   123   124    1
    16   151   152   ar
    17   151   150    1
    18   170   169   ar
    19   119   120    1
    20   127   124    1
    21   117   118    2
    22   169   168    1
    23   124   125    1
    24   150   147    1
    25   158   155    1
    26   168   167    1
    27   120   122    1
    28   155   154    1
    29   155   156    1
    30   125   126    2
    31   125   130   am
    32   147   146    1
    33   147   148    1
    34   130   131    1
    35   167   164    1
    36   146   140   am
    37   148   149    2
    38   156   157    2
    39   140   141    2
    40   140   139    1
    41   138   139    1
    42   138   132   am
    43   142   139    1
    44   142   143    1
    45   163   164    1
    46   164   165    1
    47   131   134    1
    48   131   132    1
    49   144   143    1
    50   144   145    1
    51   134   135    1
    52   132   133    2
    53   165   166    2
    54   165   172   am
    55   104   103    2
    56   135   136    1
    57   137   136    1
    58   172   173    1
    59   107   109   ar
    60   107   106   ar
    61   179   180    1
    62    93    92    2
    63   180   181    1
    64   103   102    1
    65   109   110   ar
    66   102   105    1
    67   102   101    1
    68   105   106    1
    69   106   108   ar
    70   193   192    1
    71   193   194    1
    72    92   101   am
    73    92    91    1
    74   173   174    1
    75   173   176    1
    76   110   108   ar
    77   110   112   ar
    78   181   182    2
    79   181   183   am
    80   178   176    1
    81   108   111   ar
    82   195   194    2
    83   194   196   am
    84   112   114   ar
    85    94    91    1
    86    94    95    1
    87   174   175    2
    88   176   177    1
    89    91    90    1
    90    87    85   ar
    91    87    88   ar
    92   196   197    1
    93   111   113   ar
    94   183   184    1
    95    95    97   ar
    96    95    96   ar
    97    85    83   ar
    98    89    88    1
    99    97    99   ar
   100   114   113   ar
   101    96    98   ar
   102    36    35    2
   103   197   200    1
   104   197   198    1
   105    88    86   ar
   106   213   211    1
   107    35    34    1
   108    99   100   ar
   109    98   100   ar
   110    81    80    2
   111   200   201    1
   112   184   185    1
   113   184   187    1
   114   185   186    2
   115    83    82    1
   116    83    84   ar
   117   207   208    1
   118   198   199    2
   119    40    38    1
   120    82    79    1
   121    37    34    1
   122    37    38    1
   123    86    84   ar
   124    80    79    1
   125    34    33    1
   126   202   201   ar
   127   202   204   ar
   128   211   208    1
   129   211   212    1
   130    79    78    1
   131   201   203   ar
   132    38    39    1
   133   208   209    1
   134   187   188    1
   135   188   189    1
   136   191   189   am
   137   204   206   ar
   138    73    72    2
   139    78    72   am
   140   189   190    2
   141   203   205   ar
   142   209   210    2
   143    72    71    1
   144    76    74    1
   145   206   205   ar
   146    71    74    1
   147    71    70    1
   148    74    75    1
   149    21    19   ar
   150    21    22   ar
   151    19    18   ar
   152    22    20   ar
   153    56    54    1
   154    75    77    1
   155    55    54    1
   156    18    20   ar
   157    18    17    1
   158    54    53    1
   159     8    10   ar
   160     8     6   ar
   161    17    14    1
   162     5     6    1
   163     5     2    1
   164    48    46   ar
   165    10    11   ar
   166     1     2    1
   167     6     7   ar
   168    68    67    1
   169    53    50    1
   170    13    14    1
   171    13     3   am
   172     2     3    1
   173    46    47   ar
   174    46    45    1
   175    14    15    1
   176    11    12    1
   177    11     9   ar
   178    67    69    1
   179    67    64    1
   180     7     9   ar
   181     3     4    2
   182    45    42    1
   183    50    49    1
   184    50    51    1
   185    16    15    2
   186    49    43   am
   187    44    43    2
   188    43    42    1
   189    52    51    2
   190    32    31   ar
   191    32    30   ar
   192    64    63    1
   193    64    65    1
   194    42    41    1
   195    31    29   ar
   196    30    28   ar
   197    63    59   am
   198    66    65    2
   199    61    62    1
   200    61    58    1
   201    29    28   ar
   202    28    27    1
   203    59    60    2
   204    59    58    1
   205    57    58    1
   206    27    24    1
   207    24    25    1
   208    24    23    1
   209    25    26    2
