@<TRIPOS>MOLECULE
tmp/5b4oA00.pdb
 91 87 0 0 0
SMALL
GASTEIGER

@<TRIPOS>ATOM
      1  N         36.8800   40.7070    9.4570 N.3     1  PRO1       -0.2102
      2  CA        35.9350   40.7730   10.5770 C.3     1  PRO1        0.1504
      3  C         34.9440   39.6200   10.5720 C.2     1  PRO1        0.2575
      4  O         34.7280   38.9570    9.5660 O.2     1  PRO1       -0.2718
      5  CB        35.2070   42.0940   10.4730 C.3     1  PRO1        0.0282
      6  CG        36.2500   42.9750    9.7060 C.3     1  PRO1        0.0208
      7  CD        36.9620   42.0070    8.7600 C.3     1  PRO1        0.0893
      8  N         34.3270   39.4060   11.7210 N.am    2  MET2       -0.1980
      9  CA        33.4060   38.3110   11.8960 C.3     2  MET2        0.1605
     10  C         32.2160   38.8540   12.6650 C.2     2  MET2        0.2287
     11  O         32.3840   39.4410   13.7340 O.2     2  MET2       -0.2864
     12  CB        34.0960   37.2170   12.7100 C.3     2  MET2        0.0413
     13  CG        33.2700   36.0020   12.9690 C.3     2  MET2        0.0598
     14  SD        34.2130   34.9070   14.0830 S.3     2  MET2       -0.1393
     15  CE        35.8010   34.9080   13.3290 C.3     2  MET2        0.0692
     16  N         36.7150   47.6000    5.6690 N.3    32  LYS32      -0.1245
     17  CA        37.4330   46.4120    5.2220 C.3    32  LYS32       0.1561
     18  C         36.7270   45.8580    4.0020 C.2    32  LYS32       0.2260
     19  O         35.5050   45.8500    3.9490 O.2    32  LYS32      -0.2867
     20  CB        37.4330   45.3510    6.3150 C.3    32  LYS32       0.0271
     21  CG        38.0540   45.7920    7.6150 C.3    32  LYS32       0.0035
     22  CD        39.5580   45.9080    7.4750 C.3    32  LYS32       0.0206
     23  CE        40.1770   46.2830    8.8020 C.3    32  LYS32       0.1093
     24  NZ        39.3750   45.7290    9.9230 N.3    32  LYS32      -0.1314
     25  N         36.9430   39.9990    3.3490 N.3    36  TYR36      -0.1241
     26  CA        37.4580   39.6950    4.6880 C.3    36  TYR36       0.1605
     27  C         36.3580   39.4110    5.6980 C.2    36  TYR36       0.2264
     28  O         36.6380   38.9820    6.8180 O.2    36  TYR36      -0.2867
     29  CB        38.2820   40.8570    5.2390 C.3    36  TYR36       0.0534
     30  CG        39.4720   41.2490    4.4050 C.ar   36  TYR36      -0.0201
     31  CD1       40.1120   40.3260    3.5840 C.ar   36  TYR36      -0.0009
     32  CD2       39.9740   42.5300    4.4570 C.ar   36  TYR36      -0.0009
     33  CE1       41.2350   40.6880    2.8380 C.ar   36  TYR36       0.0417
     34  CE2       41.0800   42.8970    3.7220 C.ar   36  TYR36       0.0417
     35  CZ        41.7040   41.9760    2.9210 C.ar   36  TYR36       0.1957
     36  OH        42.8210   42.3630    2.2130 O.3    36  TYR36      -0.2866
     37  N         33.2160   37.7330    7.5090 N.3    38  ALA38      -0.1245
     38  CA        32.4590   36.5080    7.6820 C.3    38  ALA38       0.1562
     39  C         31.2500   36.8180    8.5370 C.2    38  ALA38       0.2260
     40  O         31.3370   37.5860    9.4760 O.2    38  ALA38      -0.2867
     41  CB        33.3230   35.4200    8.3610 C.3    38  ALA38       0.0290
     42  N         33.8000   40.8300   15.8100 N.3    62  HIS62      -0.1226
     43  CA        35.2360   40.7060   16.0720 C.3    62  HIS62       0.1752
     44  C         35.9530   41.3190   14.8880 C.2    62  HIS62       0.2597
     45  O         35.6260   41.0410   13.7310 O.2    62  HIS62      -0.2718
     46  CB        35.6510   39.2390   16.1400 C.3    62  HIS62       0.0759
     47  CG        35.0870   38.4860   17.2970 C.ar   62  HIS62       0.0818
     48  ND1       33.7910   38.0160   17.3380 N.ar   62  HIS62      -0.2268
     49  CD2       35.6820   38.0510   18.4310 C.ar   62  HIS62       0.1154
     50  CE1       33.6130   37.3220   18.4480 C.ar   62  HIS62       0.1986
     51  NE2       34.7470   37.3300   19.1270 N.ar   62  HIS62      -0.2212
     52  N         36.9770   42.1180   15.1600 N.am   63  SER63      -0.1938
     53  CA        37.7510   42.7040   14.0830 C.3    63  SER63       0.2055
     54  C         39.1460   42.9890   14.5910 C.2    63  SER63       0.2642
     55  O         39.3040   43.3070   15.7490 O.2    63  SER63      -0.2714
     56  CB        37.0800   44.0040   13.6070 C.3    63  SER63       0.2130
     57  OG        37.8190   44.5830   12.5450 O.3    63  SER63      -0.2179
     58  N         40.1340   42.8570   13.7150 N.am   64  ILE64      -0.1977
     59  CA        41.4740   43.3410   14.0330 C.3    64  ILE64       0.1596
     60  C         41.4540   44.8430   13.8010 C.2    64  ILE64       0.2287
     61  O         41.5430   45.3030   12.6670 O.2    64  ILE64      -0.2864
     62  CB        42.5220   42.6580   13.1470 C.3    64  ILE64       0.0276
     63  CG1       42.4860   41.1340   13.3580 C.3    64  ILE64       0.0022
     64  CG2       43.9000   43.1960   13.4950 C.3    64  ILE64       0.0022
     65  CD1       43.2530   40.3460   12.2960 C.3    64  ILE64       0.0001
     66  N         40.4110   42.3610   18.1500 N.3   101  MET101     -0.1245
     67  CA        41.3390   41.2240   18.1710 C.3   101  MET101      0.1570
     68  C         42.7380   41.6460   17.8030 C.2   101  MET101      0.2261
     69  O         42.9460   42.4020   16.8610 O.2   101  MET101     -0.2867
     70  CB        40.8900   40.1500   17.1820 C.3   101  MET101      0.0387
     71  CG        39.4940   39.6040   17.4760 C.3   101  MET101      0.0595
     72  SD        39.3420   38.7600   19.0460 S.3   101  MET101     -0.1393
     73  CE        40.4330   37.3870   18.8160 C.3   101  MET101      0.0692
     74  N         44.3440   35.9060   15.6740 N.3   106  VAL106     -0.1245
     75  CA        43.3890   35.5480   14.6380 C.3   106  VAL106      0.1561
     76  C         44.0630   34.6490   13.6270 C.2   106  VAL106      0.2260
     77  O         44.9700   35.0520   12.8800 O.2   106  VAL106     -0.2867
     78  CB        42.8000   36.8000   13.9300 C.3   106  VAL106      0.0252
     79  CG1       41.7900   36.3700   12.8740 C.3   106  VAL106      0.0019
     80  CG2       42.1240   37.7270   14.9670 C.3   106  VAL106      0.0019
     81  N         47.4520   36.4330   11.4340 N.3   113  PHE113     -0.1241
     82  CA        47.7020   37.6910   10.7510 C.3   113  PHE113      0.1605
     83  C         48.9040   38.4300   11.2820 C.2   113  PHE113      0.2264
     84  O         49.3250   39.4410   10.7020 O.2   113  PHE113     -0.2867
     85  CB        46.4470   38.5630   10.8070 C.3   113  PHE113      0.0534
     86  CG        45.3950   38.1070    9.8630 C.ar  113  PHE113     -0.0203
     87  CD1       45.5250   38.3180    8.4930 C.ar  113  PHE113     -0.0042
     88  CD2       44.3060   37.3800   10.3190 C.ar  113  PHE113     -0.0042
     89  CE1       44.5910   37.8050    7.6090 C.ar  113  PHE113     -0.0003
     90  CE2       43.3820   36.8760    9.4520 C.ar  113  PHE113     -0.0003
     91  CZ        43.5100   37.0770    8.0910 C.ar  113  PHE113     -0.0000
@<TRIPOS>BOND
     1    36    35    1
     2    33    35   ar
     3    33    31   ar
     4    35    34   ar
     5    25    26    1
     6    31    30   ar
     7    34    32   ar
     8    19    18    2
     9    18    17    1
    10    30    32   ar
    11    30    29    1
    12    26    29    1
    13    26    27    1
    14    17    16    1
    15    17    20    1
    16    27    28    2
    17    20    21    1
    18    22    21    1
    19    22    23    1
    20    37    38    1
    21    89    91   ar
    22    89    87   ar
    23    38    41    1
    24    38    39    1
    25    91    90   ar
    26    87    86   ar
    27    39    40    2
    28     7     1    1
    29     7     6    1
    30    23    24    1
    31    90    88   ar
    32     1     2    1
    33     4     3    2
    34     6     5    1
    35    86    88   ar
    36    86    85    1
    37     5     2    1
    38     3     2    1
    39     3     8   am
    40    84    83    2
    41    82    85    1
    42    82    83    1
    43    82    81    1
    44     8     9    1
    45     9    10    1
    46     9    12    1
    47    65    63    1
    48    57    56    1
    49    10    11    2
    50    61    60    2
    51    12    13    1
    52    79    78    1
    53    77    76    2
    54    13    14    1
    55    62    63    1
    56    62    64    1
    57    62    59    1
    58    15    14    1
    59    56    53    1
    60    76    75    1
    61    58    59    1
    62    58    54   am
    63    45    44    2
    64    60    59    1
    65    78    75    1
    66    78    80    1
    67    53    54    1
    68    53    52    1
    69    54    55    2
    70    75    74    1
    71    44    52   am
    72    44    43    1
    73    42    43    1
    74    43    46    1
    75    46    47    1
    76    69    68    2
    77    70    71    1
    78    70    67    1
    79    47    48   ar
    80    47    49   ar
    81    48    50   ar
    82    71    72    1
    83    68    67    1
    84    66    67    1
    85    49    51   ar
    86    50    51   ar
    87    73    72    1
