@<TRIPOS>MOLECULE
tmp/5b4uA01.pdb
 114 113 0 0 0
SMALL
GASTEIGER

@<TRIPOS>ATOM
      1  N          3.1440  -13.9510  -20.2050 N.3    94  GLN94      -0.1245
      2  CA         4.3370  -13.6080  -19.4440 C.3    94  GLN94       0.1566
      3  C          5.5570  -13.7100  -20.3580 C.2    94  GLN94       0.2260
      4  O          5.5800  -14.5140  -21.2890 O.2    94  GLN94      -0.2867
      5  CB         4.4860  -14.5600  -18.2480 C.3    94  GLN94       0.0367
      6  CG         5.7170  -14.3230  -17.3890 C.3    94  GLN94       0.0905
      7  CD         5.7440  -12.9410  -16.7720 C.2    94  GLN94       0.2608
      8  OE1        6.0020  -11.9530  -17.4570 O.2    94  GLN94      -0.2717
      9  NE2        5.4240  -12.8590  -15.4870 N.am   94  GLN94      -0.0878
     10  N         -2.3800   -9.9800   -9.9170 N.3   142  SER142     -0.1202
     11  CA        -1.2330  -10.7630   -9.4560 C.3   142  SER142      0.2020
     12  C         -0.7100  -10.1050   -8.1910 C.2   142  SER142      0.2619
     13  O         -0.9380   -8.9160   -7.9780 O.2   142  SER142     -0.2717
     14  CB        -0.1350  -10.7680  -10.5190 C.3   142  SER142      0.2103
     15  OG         1.0310  -11.4280  -10.0530 O.3   142  SER142     -0.2182
     16  N          0.0740  -10.8290   -7.4030 N.am  143  ALA143     -0.1965
     17  CA         0.9390  -10.1750   -6.4300 C.3   143  ALA143      0.1728
     18  C          1.8230   -9.1350   -7.1150 C.2   143  ALA143      0.2616
     19  O          2.1570   -8.1090   -6.5230 O.2   143  ALA143     -0.2715
     20  CB         1.7890  -11.2010   -5.7000 C.3   143  ALA143      0.0334
     21  N          2.0950   -9.3520   -8.3990 N.am  144  HIS144     -0.1973
     22  CA         2.9080   -8.4360   -9.1920 C.3   144  HIS144      0.1656
     23  C          2.1300   -7.2170   -9.6750 C.2   144  HIS144      0.2291
     24  O          2.6930   -6.3540  -10.3480 O.2   144  HIS144     -0.2864
     25  CB         3.4980   -9.1730  -10.3950 C.3   144  HIS144      0.0771
     26  CG         4.7070   -9.9840  -10.0610 C.ar  144  HIS144      0.0820
     27  ND1        4.8000  -11.3280  -10.3530 N.ar  144  HIS144     -0.2267
     28  CD2        5.7620   -9.7040   -9.2630 C.ar  144  HIS144      0.1154
     29  CE1        5.9470  -11.7930   -9.8920 C.ar  144  HIS144      0.1986
     30  NE2        6.5400  -10.8340   -9.2060 N.ar  144  HIS144     -0.2212
     31  N         10.6310   -8.7500  -14.9920 N.3   152  LYS152     -0.1245
     32  CA         9.2150   -8.7770  -15.3260 C.3   152  LYS152      0.1561
     33  C          8.6410   -7.3760  -15.4850 C.2   152  LYS152      0.2260
     34  O          7.4990   -7.1170  -15.1160 O.2   152  LYS152     -0.2867
     35  CB         8.4490   -9.5620  -14.2630 C.3   152  LYS152      0.0271
     36  CG         8.7530  -11.0490  -14.3150 C.3   152  LYS152      0.0035
     37  CD         8.0000  -11.8420  -13.2620 C.3   152  LYS152      0.0206
     38  CE         8.2580  -13.3300  -13.4400 C.3   152  LYS152      0.1093
     39  NZ         7.5180  -14.1590  -12.4520 N.3   152  LYS152     -0.1314
     40  N          5.1430   -7.1470  -17.3350 N.3   155  TYR155     -0.1241
     41  CA         4.1030   -7.8470  -16.6030 C.3   155  TYR155      0.1605
     42  C          3.7390   -7.1090  -15.3120 C.2   155  TYR155      0.2264
     43  O          2.5660   -6.8930  -15.0220 O.2   155  TYR155     -0.2867
     44  CB         4.5790   -9.2650  -16.2870 C.3   155  TYR155      0.0534
     45  CG         3.5330  -10.1430  -15.6460 C.ar  155  TYR155     -0.0201
     46  CD1        2.6970  -10.9260  -16.4220 C.ar  155  TYR155     -0.0009
     47  CD2        3.4820  -10.3010  -14.2700 C.ar  155  TYR155     -0.0009
     48  CE1        1.8570  -11.8590  -15.8510 C.ar  155  TYR155      0.0417
     49  CE2        2.5900  -11.1750  -13.6870 C.ar  155  TYR155      0.0417
     50  CZ         1.8200  -11.9890  -14.4840 C.ar  155  TYR155      0.1957
     51  OH         0.9810  -12.9130  -13.9140 O.3   155  TYR155     -0.2866
     52  N         -3.3810  -13.3610   -7.3080 N.3   185  PRO185     -0.2102
     53  CA        -2.7690  -14.6180   -6.8990 C.3   185  PRO185      0.1504
     54  C         -1.2570  -14.5150   -6.7700 C.2   185  PRO185      0.2576
     55  O         -0.6180  -13.7550   -7.4960 O.2   185  PRO185     -0.2718
     56  CB        -3.1380  -15.5890   -8.0320 C.3   185  PRO185      0.0282
     57  CG        -4.1600  -14.8860   -8.8660 C.3   185  PRO185      0.0208
     58  CD        -3.8970  -13.4220   -8.6830 C.3   185  PRO185      0.0893
     59  N         -0.6980  -15.2880   -5.8470 N.am  186  GLY186     -0.1943
     60  CA         0.6860  -15.7310   -5.9450 C.3   186  GLY186      0.2014
     61  C          0.8470  -16.8560   -6.9500 C.2   186  GLY186      0.2638
     62  O          0.0510  -16.9880   -7.8840 O.2   186  GLY186     -0.2714
     63  N          1.9060  -17.6460   -6.7960 N.am  187  TRP187     -0.1973
     64  CA         2.2000  -18.7030   -7.7570 C.3   187  TRP187      0.1640
     65  C          1.0510  -19.6970   -7.8240 C.2   187  TRP187      0.2290
     66  O          0.6510  -20.2650   -6.8060 O.2   187  TRP187     -0.2864
     67  CB         3.4780  -19.4600   -7.3890 C.3   187  TRP187      0.0576
     68  CG         4.7210  -18.6400   -7.3530 C.ar  187  TRP187      0.0006
     69  CD1        5.6150  -18.5970   -6.3250 C.ar  187  TRP187      0.0946
     70  CD2        5.3730  -18.0100   -8.4680 C.ar  187  TRP187      0.0152
     71  NE1        6.7750  -17.9850   -6.7230 N.ar  187  TRP187     -0.2442
     72  CE2        6.6560  -17.6200   -8.0360 C.ar  187  TRP187      0.0810
     73  CE3        5.0140  -17.7820   -9.7990 C.ar  187  TRP187      0.0012
     74  CZ2        7.5670  -16.9820   -8.8730 C.ar  187  TRP187      0.0191
     75  CZ3        5.9340  -17.1710  -10.6360 C.ar  187  TRP187      0.0001
     76  CH2        7.1950  -16.7810  -10.1690 C.ar  187  TRP187      0.0015
     77  N          1.9540  -21.1930  -17.5370 N.3   192  LEU192     -0.1231
     78  CA         2.6230  -19.8990  -17.4750 C.3   192  LEU192      0.1693
     79  C          3.7560  -19.9310  -16.4510 C.2   192  LEU192      0.2591
     80  O          4.8000  -19.3060  -16.6420 O.2   192  LEU192     -0.2718
     81  CB         1.6060  -18.8170  -17.1090 C.3   192  LEU192      0.0284
     82  CG         2.0990  -17.3700  -17.0650 C.3   192  LEU192      0.0019
     83  CD1        0.9850  -16.4290  -17.4970 C.3   192  LEU192      0.0001
     84  CD2        2.6020  -17.0160  -15.6740 C.3   192  LEU192      0.0001
     85  N          3.5730  -20.7350  -15.4090 N.am  193  VAL193     -0.1980
     86  CA         4.5660  -20.8720  -14.3530 C.3   193  VAL193      0.1595
     87  C          5.4770  -22.0720  -14.5860 C.2   193  VAL193      0.2287
     88  O          6.6600  -22.0270  -14.2630 O.2   193  VAL193     -0.2864
     89  CB         3.8790  -20.9770  -12.9790 C.3   193  VAL193      0.0276
     90  CG1        4.8210  -21.5540  -11.9360 C.3   193  VAL193      0.0022
     91  CG2        3.3840  -19.6040  -12.5520 C.3   193  VAL193      0.0022
     92  N          8.6270  -21.1770  -16.1390 N.3   196  GLN196     -0.1245
     93  CA         9.5720  -20.4950  -15.2730 C.3   196  GLN196      0.1566
     94  C         10.2640  -21.4770  -14.3320 C.2   196  GLN196      0.2260
     95  O         11.4420  -21.3320  -14.0210 O.2   196  GLN196     -0.2867
     96  CB         8.8490  -19.4190  -14.4670 C.3   196  GLN196      0.0367
     97  CG         8.2420  -18.3390  -15.3450 C.3   196  GLN196      0.0905
     98  CD         7.4810  -17.2970  -14.5540 C.2   196  GLN196      0.2608
     99  OE1        8.0490  -16.6110  -13.7040 O.2   196  GLN196     -0.2717
    100  NE2        6.1740  -17.2420  -14.7630 N.am  196  GLN196     -0.0878
    101  N          2.9500  -13.8730    0.2330 N.3   257  TRP257     -0.1241
    102  CA         3.8880  -13.1330   -0.6200 C.3   257  TRP257      0.1605
    103  C          3.9700  -11.6590   -0.2220 C.2   257  TRP257      0.2264
    104  O          5.0590  -11.1140   -0.0420 O.2   257  TRP257     -0.2867
    105  CB         3.4350  -13.2620   -2.0750 C.3   257  TRP257      0.0550
    106  CG         4.4320  -12.8380   -3.1270 C.ar  257  TRP257      0.0003
    107  CD1        5.1150  -11.6540   -3.1860 C.ar  257  TRP257      0.0946
    108  CD2        4.6060  -13.4620   -4.4040 C.ar  257  TRP257      0.0152
    109  NE1        5.7190  -11.5170   -4.4200 N.ar  257  TRP257     -0.2442
    110  CE2        5.4680  -12.6420   -5.1590 C.ar  257  TRP257      0.0810
    111  CE3        4.2050  -14.6890   -4.9430 C.ar  257  TRP257      0.0012
    112  CZ2        5.9200  -13.0030   -6.4270 C.ar  257  TRP257      0.0191
    113  CZ3        4.6670  -15.0480   -6.1960 C.ar  257  TRP257      0.0001
    114  CH2        5.4450  -14.1710   -6.9560 C.ar  257  TRP257      0.0015
@<TRIPOS>BOND
     1     4     3    2
     2     3     2    1
     3     1     2    1
     4     2     5    1
     5     5     6    1
     6    77    78    1
     7    83    82    1
     8    78    81    1
     9    78    79    1
    10     8     7    2
    11     6     7    1
    12    40    41    1
    13    81    82    1
    14    82    84    1
    15     7     9   am
    16    80    79    2
    17    41    44    1
    18    41    42    1
    19    79    85   am
    20    46    48   ar
    21    46    45   ar
    22    44    45    1
    23    92    93    1
    24    48    50   ar
    25    45    47   ar
    26    33    32    1
    27    33    34    2
    28    85    86    1
    29    97    98    1
    30    97    96    1
    31    32    31    1
    32    32    35    1
    33    42    43    2
    34    93    96    1
    35    93    94    1
    36   100    98   am
    37    87    86    1
    38    87    88    2
    39    98    99    2
    40    50    51    1
    41    50    49   ar
    42    86    89    1
    43    94    95    2
    44    36    35    1
    45    36    37    1
    46    47    49   ar
    47    38    37    1
    48    38    39    1
    49    89    91    1
    50    89    90    1
    51    75    76   ar
    52    75    73   ar
    53    14    15    1
    54    14    11    1
    55    25    26    1
    56    25    22    1
    57    27    26   ar
    58    27    29   ar
    59    24    23    2
    60    76    74   ar
    61    26    28   ar
    62    10    11    1
    63    29    30   ar
    64    73    70   ar
    65    23    22    1
    66    11    12    1
    67    28    30   ar
    68    22    21    1
    69    74    72   ar
    70    57    58    1
    71    57    56    1
    72    58    52    1
    73    70    72   ar
    74    70    68   ar
    75    21    18   am
    76    12    13    2
    77    12    16   am
    78    72    71   ar
    79    56    53    1
    80    62    61    2
    81    65    64    1
    82    65    66    2
    83    64    67    1
    84    64    63    1
    85    55    54    2
    86    16    17    1
    87    67    68    1
    88    68    69   ar
    89    52    53    1
    90    18    19    2
    91    18    17    1
    92   114   112   ar
    93   114   113   ar
    94    61    63   am
    95    61    60    1
    96    53    54    1
    97    54    59   am
    98    71    69   ar
    99    17    20    1
   100   112   110   ar
   101   113   111   ar
   102    60    59    1
   103   110   109   ar
   104   110   108   ar
   105   111   108   ar
   106   109   107   ar
   107   108   106   ar
   108   107   106   ar
   109   106   105    1
   110   105   102    1
   111   102   103    1
   112   102   101    1
   113   103   104    2
