@<TRIPOS>MOLECULE
tmp/5b4vA01.pdb
 114 113 0 0 0
SMALL
GASTEIGER

@<TRIPOS>ATOM
      1  N         -3.1250  -13.9410   20.0110 N.3    94  GLN94      -0.1245
      2  CA        -4.3320  -13.5960   19.2560 C.3    94  GLN94       0.1566
      3  C         -5.5570  -13.7280   20.1790 C.2    94  GLN94       0.2260
      4  O         -5.5650  -14.5430   21.0960 O.2    94  GLN94      -0.2867
      5  CB        -4.4820  -14.5550   18.0680 C.3    94  GLN94       0.0367
      6  CG        -5.7020  -14.3290   17.1930 C.3    94  GLN94       0.0905
      7  CD        -5.7440  -12.9530   16.5550 C.2    94  GLN94       0.2608
      8  OE1       -5.9860  -11.9550   17.2380 O.2    94  GLN94      -0.2717
      9  NE2       -5.3890  -12.8840   15.2790 N.am   94  GLN94      -0.0878
     10  N          2.3720   -9.9680    9.9720 N.3   142  SER142     -0.1202
     11  CA         1.2490  -10.7960    9.5010 C.3   142  SER142      0.2020
     12  C          0.7320  -10.1640    8.2100 C.2   142  SER142      0.2619
     13  O          0.9280   -8.9560    7.9720 O.2   142  SER142     -0.2717
     14  CB         0.1240  -10.8220   10.5340 C.3   142  SER142      0.2103
     15  OG        -1.0190  -11.5240   10.0620 O.3   142  SER142     -0.2182
     16  N         -0.0530  -10.9130    7.4500 N.am  143  ALA143     -0.1965
     17  CA        -0.9490  -10.2980    6.4800 C.3   143  ALA143      0.1728
     18  C         -1.8000   -9.2100    7.1330 C.2   143  ALA143      0.2616
     19  O         -2.1070   -8.1920    6.5100 O.2   143  ALA143     -0.2715
     20  CB        -1.8360  -11.3570    5.8500 C.3   143  ALA143      0.0334
     21  N         -2.1030   -9.4010    8.4170 N.am  144  HIS144     -0.1973
     22  CA        -2.8850   -8.4550    9.1970 C.3   144  HIS144      0.1656
     23  C         -2.0930   -7.2450    9.6760 C.2   144  HIS144      0.2291
     24  O         -2.6520   -6.3680   10.3260 O.2   144  HIS144     -0.2864
     25  CB        -3.5170   -9.1580   10.3810 C.3   144  HIS144      0.0771
     26  CG        -4.7150   -9.9670   10.0180 C.ar  144  HIS144      0.0820
     27  ND1       -4.7990  -11.3250   10.2550 N.ar  144  HIS144     -0.2267
     28  CD2       -5.7830   -9.6560    9.2500 C.ar  144  HIS144      0.1154
     29  CE1       -5.9620  -11.7660    9.8100 C.ar  144  HIS144      0.1986
     30  NE2       -6.5640  -10.7840    9.1680 N.ar  144  HIS144     -0.2212
     31  N        -10.6780   -8.7750   14.9200 N.3   152  LYS152     -0.1245
     32  CA        -9.2690   -8.8160   15.2460 C.3   152  LYS152      0.1561
     33  C         -8.6760   -7.4100   15.4220 C.2   152  LYS152      0.2260
     34  O         -7.5290   -7.1600   15.0670 O.2   152  LYS152     -0.2867
     35  CB        -8.5130   -9.6210   14.1830 C.3   152  LYS152      0.0271
     36  CG        -8.8660  -11.1040   14.2270 C.3   152  LYS152      0.0035
     37  CD        -8.2080  -11.9290   13.1400 C.3   152  LYS152      0.0206
     38  CE        -8.5400  -13.3950   13.3700 C.3   152  LYS152      0.1093
     39  NZ        -8.0440  -14.2750   12.2730 N.3   152  LYS152     -0.1314
     40  N         -5.1720   -7.1320   17.2890 N.3   155  TYR155     -0.1241
     41  CA        -4.1070   -7.8240   16.5760 C.3   155  TYR155      0.1605
     42  C         -3.7460   -7.0680   15.2830 C.2   155  TYR155      0.2264
     43  O         -2.5670   -6.8720   14.9830 O.2   155  TYR155     -0.2867
     44  CB        -4.5690   -9.2500   16.2530 C.3   155  TYR155      0.0534
     45  CG        -3.5120  -10.1220   15.6090 C.ar  155  TYR155     -0.0201
     46  CD1       -3.4070  -10.2190   14.2330 C.ar  155  TYR155     -0.0009
     47  CD2       -2.6250  -10.8460   16.3870 C.ar  155  TYR155     -0.0009
     48  CE1       -2.4610  -11.0370   13.6500 C.ar  155  TYR155      0.0417
     49  CE2       -1.7450  -11.7460   15.8160 C.ar  155  TYR155      0.0417
     50  CZ        -1.6400  -11.7980   14.4470 C.ar  155  TYR155      0.1957
     51  OH        -0.7250  -12.6480   13.8620 O.3   155  TYR155     -0.2866
     52  N          3.2870  -13.3870    7.3570 N.3   185  PRO185     -0.2102
     53  CA         2.6600  -14.6500    6.9570 C.3   185  PRO185      0.1504
     54  C          1.1470  -14.5630    6.8320 C.2   185  PRO185      0.2576
     55  O          0.4900  -13.7990    7.5470 O.2   185  PRO185     -0.2718
     56  CB         3.0360  -15.6230    8.0890 C.3   185  PRO185      0.0282
     57  CG         4.0900  -14.9300    8.8860 C.3   185  PRO185      0.0208
     58  CD         3.8560  -13.4570    8.7140 C.3   185  PRO185      0.0893
     59  N          0.6090  -15.3610    5.9180 N.am  186  GLY186     -0.1943
     60  CA        -0.7760  -15.8000    5.9820 C.3   186  GLY186      0.2014
     61  C         -0.9620  -16.9240    6.9860 C.2   186  GLY186      0.2638
     62  O         -0.1810  -17.0630    7.9270 O.2   186  GLY186     -0.2714
     63  N         -1.9880  -17.7420    6.7890 N.am  187  TRP187     -0.1973
     64  CA        -2.2710  -18.8220    7.7250 C.3   187  TRP187      0.1640
     65  C         -1.1390  -19.8340    7.7640 C.2   187  TRP187      0.2290
     66  O         -0.7190  -20.3560    6.7250 O.2   187  TRP187     -0.2864
     67  CB        -3.5490  -19.5680    7.3290 C.3   187  TRP187      0.0576
     68  CG        -4.8220  -18.7790    7.3680 C.ar  187  TRP187      0.0006
     69  CD1       -5.6670  -18.5780    6.3260 C.ar  187  TRP187      0.0946
     70  CD2       -5.5000  -18.2740    8.5320 C.ar  187  TRP187      0.0152
     71  NE1       -6.8350  -18.0020    6.7650 N.ar  187  TRP187     -0.2442
     72  CE2       -6.7210  -17.7310    8.0980 C.ar  187  TRP187      0.0810
     73  CE3       -5.2190  -18.2890    9.9020 C.ar  187  TRP187      0.0012
     74  CZ2       -7.6610  -17.1950    8.9860 C.ar  187  TRP187      0.0191
     75  CZ3       -6.1730  -17.7920   10.7830 C.ar  187  TRP187      0.0001
     76  CH2       -7.3520  -17.2110   10.3130 C.ar  187  TRP187      0.0015
     77  N         -1.8940  -21.2160   17.5200 N.3   192  LEU192     -0.1231
     78  CA        -2.5900  -19.9370   17.4490 C.3   192  LEU192      0.1693
     79  C         -3.7690  -19.9970   16.4680 C.2   192  LEU192      0.2591
     80  O         -4.7920  -19.3200   16.6490 O.2   192  LEU192     -0.2718
     81  CB        -1.5980  -18.8540   17.0250 C.3   192  LEU192      0.0284
     82  CG        -2.0880  -17.4080   16.9120 C.3   192  LEU192      0.0019
     83  CD1       -0.9260  -16.4770   17.1920 C.3   192  LEU192      0.0001
     84  CD2       -2.6770  -17.1230   15.5340 C.3   192  LEU192      0.0001
     85  N         -3.6000  -20.7870   15.4140 N.am  193  VAL193     -0.1980
     86  CA        -4.5840  -20.9480   14.3510 C.3   193  VAL193      0.1595
     87  C         -5.4980  -22.1400   14.6210 C.2   193  VAL193      0.2287
     88  O         -6.6720  -22.1190   14.2680 O.2   193  VAL193     -0.2864
     89  CB        -3.8540  -21.1030   13.0040 C.3   193  VAL193      0.0276
     90  CG1       -4.7570  -21.6840   11.9250 C.3   193  VAL193      0.0022
     91  CG2       -3.3000  -19.7480   12.5740 C.3   193  VAL193      0.0022
     92  N         -8.6380  -21.2030   16.2410 N.3   196  GLN196     -0.1245
     93  CA        -9.6160  -20.5870   15.3590 C.3   196  GLN196      0.1566
     94  C        -10.3020  -21.6070   14.4480 C.2   196  GLN196      0.2260
     95  O        -11.4740  -21.4690   14.1000 O.2   196  GLN196     -0.2867
     96  CB        -8.9300  -19.5110   14.5080 C.3   196  GLN196      0.0367
     97  CG        -8.3240  -18.3830   15.3300 C.3   196  GLN196      0.0905
     98  CD        -7.6690  -17.3110   14.4710 C.2   196  GLN196      0.2608
     99  OE1       -8.3360  -16.6800   13.6510 O.2   196  GLN196     -0.2717
    100  NE2       -6.3460  -17.2170   14.5490 N.am  196  GLN196     -0.0878
    101  N         -2.9530  -13.9550   -0.2430 N.3   257  TRP257     -0.1241
    102  CA        -3.9340  -13.2050    0.5820 C.3   257  TRP257      0.1605
    103  C         -3.9960  -11.7180    0.2200 C.2   257  TRP257      0.2264
    104  O         -5.0720  -11.1670   -0.0450 O.2   257  TRP257     -0.2867
    105  CB        -3.5390  -13.3720    2.0480 C.3   257  TRP257      0.0550
    106  CG        -4.5110  -12.8880    3.1030 C.ar  257  TRP257      0.0003
    107  CD1       -5.2010  -11.7180    3.1320 C.ar  257  TRP257      0.0946
    108  CD2       -4.7150  -13.5110    4.3700 C.ar  257  TRP257      0.0152
    109  NE1       -5.8630  -11.5900    4.3440 N.ar  257  TRP257     -0.2442
    110  CE2       -5.5420  -12.6640    5.1320 C.ar  257  TRP257      0.0810
    111  CE3       -4.2430  -14.6870    4.9490 C.ar  257  TRP257      0.0012
    112  CZ2       -5.9910  -13.0130    6.3960 C.ar  257  TRP257      0.0191
    113  CZ3       -4.6850  -15.0360    6.2020 C.ar  257  TRP257      0.0001
    114  CH2       -5.4800  -14.1600    6.9480 C.ar  257  TRP257      0.0015
@<TRIPOS>BOND
     1   101   102    1
     2   104   103    2
     3   103   102    1
     4   102   105    1
     5   105   106    1
     6   106   107   ar
     7   106   108   ar
     8   107   109   ar
     9   109   110   ar
    10   108   111   ar
    11   108   110   ar
    12   111   113   ar
    13   110   112   ar
    14    20    17    1
    15    59    60    1
    16    59    54   am
    17    60    61    1
    18   113   114   ar
    19    69    71   ar
    20    69    68   ar
    21   112   114   ar
    22    17    18    1
    23    17    16    1
    24    19    18    2
    25    66    65    2
    26    71    72   ar
    27    63    61   am
    28    63    64    1
    29    54    53    1
    30    54    55    2
    31    53    52    1
    32    53    56    1
    33    61    62    2
    34    18    21   am
    35    67    68    1
    36    67    64    1
    37    52    58    1
    38    68    70   ar
    39    16    12   am
    40    64    65    1
    41    13    12    2
    42    56    57    1
    43    72    70   ar
    44    72    74   ar
    45    12    11    1
    46    21    22    1
    47    70    73   ar
    48    58    57    1
    49    74    76   ar
    50    30    28   ar
    51    30    29   ar
    52    22    23    1
    53    22    25    1
    54    28    26   ar
    55    11    10    1
    56    11    14    1
    57    23    24    2
    58    29    27   ar
    59    73    75   ar
    60    26    27   ar
    61    26    25    1
    62    15    14    1
    63    76    75   ar
    64    90    89    1
    65    39    38    1
    66    91    89    1
    67    89    86    1
    68    37    38    1
    69    37    36    1
    70    48    46   ar
    71    48    50   ar
    72    99    98    2
    73    51    50    1
    74    95    94    2
    75    35    36    1
    76    35    32    1
    77    46    45   ar
    78    88    87    2
    79    86    87    1
    80    86    85    1
    81    50    49   ar
    82    94    93    1
    83    98   100   am
    84    98    97    1
    85    96    97    1
    86    96    93    1
    87    31    32    1
    88    43    42    2
    89    34    33    2
    90    32    33    1
    91     9     7   am
    92    42    41    1
    93    93    92    1
    94    85    79   am
    95    84    82    1
    96    45    44    1
    97    45    47   ar
    98    49    47   ar
    99    44    41    1
   100    79    80    2
   101    79    78    1
   102     7     6    1
   103     7     8    2
   104    41    40    1
   105    82    81    1
   106    82    83    1
   107    81    78    1
   108     6     5    1
   109    78    77    1
   110     5     2    1
   111     2     1    1
   112     2     3    1
   113     3     4    2
