@<TRIPOS>MOLECULE
tmp/5b4xA01.pdb
 77 71 0 0 0
SMALL
GASTEIGER

@<TRIPOS>ATOM
      1  N        -88.4400   55.1830  -37.3160 N.3   545  PRO545     -0.2116
      2  CA       -87.0790   55.1340  -37.8410 C.3   545  PRO545      0.1372
      3  C        -86.5920   56.5300  -38.2400 C.2   545  PRO545      0.2244
      4  O        -87.3550   57.3150  -38.8110 O.2   545  PRO545     -0.2868
      5  CB       -87.2050   54.2130  -39.0590 C.3   545  PRO545      0.0268
      6  CG       -88.6430   54.2740  -39.4590 C.3   545  PRO545      0.0207
      7  CD       -89.4470   54.9040  -38.3550 C.3   545  PRO545      0.0892
      8  N        -83.4740   57.4220  -40.0240 N.3   547  THR547     -0.1203
      9  CA       -82.8780   57.4930  -41.3650 C.3   547  THR547      0.1994
     10  C        -83.6600   56.6020  -42.3330 C.2   547  THR547      0.2619
     11  O        -84.5400   55.8590  -41.9090 O.2   547  THR547     -0.2717
     12  CB       -81.3920   57.0690  -41.3500 C.3   547  THR547      0.1784
     13  OG1      -81.2810   55.7090  -40.9160 O.3   547  THR547     -0.2211
     14  CG2      -80.5890   57.9450  -40.4020 C.3   547  THR547      0.0376
     15  N        -83.3520   56.6860  -43.6260 N.am  548  SER548     -0.1937
     16  CA       -83.9550   55.7900  -44.6210 C.3   548  SER548      0.2055
     17  C        -83.2450   54.4320  -44.6490 C.2   548  SER548      0.2642
     18  O        -82.0120   54.3730  -44.6950 O.2   548  SER548     -0.2714
     19  CB       -83.9220   56.4210  -46.0180 C.3   548  SER548      0.2130
     20  OG       -84.9760   57.3520  -46.1970 O.3   548  SER548     -0.2179
     21  N        -84.0240   53.3490  -44.6180 N.am  549  LEU549     -0.1977
     22  CA       -83.4870   51.9870  -44.7370 C.3   549  LEU549      0.1596
     23  C        -83.4800   51.5390  -46.2030 C.2   549  LEU549      0.2287
     24  O        -84.3380   51.9630  -46.9760 O.2   549  LEU549     -0.2864
     25  CB       -84.3030   51.0130  -43.8890 C.3   549  LEU549      0.0297
     26  CG       -84.4140   51.3310  -42.4050 C.3   549  LEU549      0.0022
     27  CD1      -85.6160   50.6320  -41.8250 C.3   549  LEU549      0.0001
     28  CD2      -83.1650   50.9030  -41.6650 C.3   549  LEU549      0.0001
     29  N        -84.0340   49.7530  -49.7470 N.3   551  THR551     -0.1218
     30  CA       -85.2810   49.1960  -50.2720 C.3   551  THR551      0.1862
     31  C        -85.0330   47.9770  -51.1810 C.2   551  THR551      0.2287
     32  O        -85.9550   47.4030  -51.7740 O.2   551  THR551     -0.2866
     33  CB       -86.1050   50.2750  -51.0030 C.3   551  THR551      0.1770
     34  OG1      -85.2950   50.9140  -51.9960 O.3   551  THR551     -0.2211
     35  CG2      -86.6110   51.3150  -50.0200 C.3   551  THR551      0.0375
     36  N        -86.3880   48.3140  -45.8490 N.3   603  ASN603     -0.1240
     37  CA       -87.7000   48.8890  -46.1200 C.3   603  ASN603      0.1653
     38  C        -88.3120   48.1450  -47.2940 C.2   603  ASN603      0.2266
     39  O        -87.9200   48.3520  -48.4400 O.2   603  ASN603     -0.2867
     40  CB       -87.5690   50.3760  -46.4420 C.3   603  ASN603      0.1155
     41  CG       -88.9100   51.0860  -46.5600 C.2   603  ASN603      0.2627
     42  OD1      -89.9700   50.5010  -46.3230 O.2   603  ASN603     -0.2716
     43  ND2      -88.8570   52.3780  -46.9300 N.am  603  ASN603     -0.0877
     44  N        -91.6770   47.8750  -48.0400 N.3   605  THR605     -0.1203
     45  CA       -93.0530   48.3230  -48.2970 C.3   605  THR605      0.1994
     46  C        -93.4940   48.2890  -49.7680 C.2   605  THR605      0.2617
     47  O        -94.6810   48.1380  -50.0510 O.2   605  THR605     -0.2717
     48  CB       -93.2900   49.7330  -47.7330 C.3   605  THR605      0.1784
     49  OG1      -92.2000   50.5760  -48.1130 O.3   605  THR605     -0.2211
     50  CG2      -93.3870   49.6930  -46.2110 C.3   605  THR605      0.0376
     51  N        -92.5410   48.4210  -50.6900 N.am  606  ASN606     -0.1974
     52  CA       -92.8280   48.4240  -52.1240 C.3   606  ASN606      0.1688
     53  C        -91.9720   47.4500  -52.9250 C.2   606  ASN606      0.2292
     54  O        -91.8970   47.5370  -54.1550 O.2   606  ASN606     -0.2864
     55  CB       -92.6820   49.8350  -52.6880 C.3   606  ASN606      0.1181
     56  CG       -93.7290   50.7830  -52.1500 C.2   606  ASN606      0.2629
     57  OD1      -94.7520   51.0150  -52.7940 O.2   606  ASN606     -0.2716
     58  ND2      -93.4950   51.3200  -50.9560 N.am  606  ASN606     -0.0877
     59  N        -91.8380   48.3760  -42.9380 N.3   667  ILE667     -0.1245
     60  CA       -90.7400   49.3590  -43.0390 C.3   667  ILE667      0.1561
     61  C        -89.3880   48.8980  -42.4850 C.2   667  ILE667      0.2260
     62  O        -88.3520   49.4210  -42.8980 O.2   667  ILE667     -0.2867
     63  CB       -91.1020   50.7650  -42.4760 C.3   667  ILE667      0.0252
     64  CG1      -91.7130   50.6810  -41.0660 C.3   667  ILE667      0.0019
     65  CG2      -92.0060   51.5120  -43.4480 C.3   667  ILE667      0.0019
     66  CD1      -90.7410   50.9600  -39.9360 C.3   667  ILE667      0.0001
     67  N        -87.9300   45.0440  -56.3240 N.3   695  ARG695     -0.1245
     68  CA       -89.0780   45.1610  -57.2090 C.3   695  ARG695      0.1563
     69  C        -88.5600   45.1170  -58.6500 C.2   695  ARG695      0.2260
     70  O        -87.3880   44.8060  -58.8760 O.2   695  ARG695     -0.2867
     71  CB       -89.8550   46.4570  -56.9150 C.3   695  ARG695      0.0307
     72  CG       -89.0110   47.7260  -56.9190 C.3   695  ARG695      0.0489
     73  CD       -89.7340   48.9020  -56.2810 C.3   695  ARG695      0.2205
     74  NE       -90.8760   49.3660  -57.0700 N.pl3 695  ARG695     -0.0865
     75  CZ       -91.4860   50.5390  -56.9000 C.cat 695  ARG695      0.5346
     76  NH1      -91.0700   51.3920  -55.9700 N.pl3 695  ARG695      0.1354
     77  NH2      -92.5170   50.8650  -57.6680 N.pl3 695  ARG695      0.1354
@<TRIPOS>BOND
     1    70    69    2
     2    69    68    1
     3    77    75    1
     4    68    71    1
     5    68    67    1
     6    74    75    2
     7    74    73    1
     8    72    71    1
     9    72    73    1
    10    75    76    1
    11    54    53    2
    12    53    52    1
    13    57    56    2
    14    55    56    1
    15    55    52    1
    16    56    58   am
    17    52    51    1
    18    34    33    1
    19    32    31    2
    20    31    30    1
    21    33    30    1
    22    33    35    1
    23    51    46   am
    24    30    29    1
    25    47    46    2
    26    46    45    1
    27    39    38    2
    28    45    44    1
    29    45    48    1
    30    49    48    1
    31    48    50    1
    32    38    37    1
    33    24    23    2
    34    43    41   am
    35    41    40    1
    36    41    42    2
    37    40    37    1
    38    23    22    1
    39    20    19    1
    40    37    36    1
    41    19    16    1
    42    22    21    1
    43    22    25    1
    44    18    17    2
    45    17    16    1
    46    17    21   am
    47    16    15    1
    48    25    26    1
    49    15    10   am
    50    65    63    1
    51    60    59    1
    52    60    61    1
    53    60    63    1
    54    62    61    2
    55    63    64    1
    56    26    27    1
    57    26    28    1
    58    10    11    2
    59    10     9    1
    60     9    12    1
    61     9     8    1
    62    12    13    1
    63    12    14    1
    64    64    66    1
    65     6     5    1
    66     6     7    1
    67     5     2    1
    68     4     3    2
    69     7     1    1
    70     3     2    1
    71     2     1    1
