@<TRIPOS>MOLECULE
tmp/5b51A00.pdb
 174 163 0 0 0
SMALL
GASTEIGER

@<TRIPOS>ATOM
      1  N         21.2850   69.5810  159.0090 N.3    70  LEU70      -0.1231
      2  CA        21.6650   68.6190  157.9780 C.3    70  LEU70       0.1693
      3  C         22.3920   67.4090  158.5400 C.2    70  LEU70       0.2592
      4  O         22.3070   66.3070  158.0010 O.2    70  LEU70      -0.2718
      5  CB        22.5690   69.3010  156.9520 C.3    70  LEU70       0.0284
      6  CG        22.9300   68.4820  155.7080 C.3    70  LEU70       0.0019
      7  CD1       21.6850   68.0830  154.9390 C.3    70  LEU70       0.0001
      8  CD2       23.8880   69.2930  154.8490 C.3    70  LEU70       0.0001
      9  N         23.1160   67.6200  159.6290 N.am   71  TYR71      -0.1976
     10  CA        24.1690   66.7000  160.0350 C.3    71  TYR71       0.1639
     11  C         23.7730   65.7360  161.1390 C.2    71  TYR71       0.2290
     12  O         24.4800   64.7590  161.3560 O.2    71  TYR71      -0.2864
     13  CB        25.3840   67.5000  160.4900 C.3    71  TYR71       0.0560
     14  CG        25.8930   68.4600  159.4610 C.ar   71  TYR71      -0.0198
     15  CD1       26.5550   68.0070  158.3320 C.ar   71  TYR71      -0.0009
     16  CD2       25.6760   69.8120  159.5890 C.ar   71  TYR71      -0.0009
     17  CE1       27.0240   68.8900  157.3770 C.ar   71  TYR71       0.0417
     18  CE2       26.1360   70.7080  158.6330 C.ar   71  TYR71       0.0417
     19  CZ        26.8000   70.2420  157.5230 C.ar   71  TYR71       0.1957
     20  OH        27.2840   71.0930  156.5570 O.3    71  TYR71      -0.2866
     21  N         15.4340   63.8670  158.6650 N.3    92  VAL92      -0.1231
     22  CA        15.9270   62.5600  158.2290 C.3    92  VAL92       0.1692
     23  C         17.3390   62.2300  158.7300 C.2    92  VAL92       0.2592
     24  O         17.7140   61.0630  158.7910 O.2    92  VAL92      -0.2718
     25  CB        15.9100   62.4260  156.6900 C.3    92  VAL92       0.0266
     26  CG1       14.4910   62.5090  156.1530 C.3    92  VAL92       0.0020
     27  CG2       16.8680   63.4130  156.0100 C.3    92  VAL92       0.0020
     28  N         18.1350   63.2440  159.0710 N.am   93  SER93      -0.1952
     29  CA        19.5130   63.0130  159.4970 C.3    93  SER93       0.1924
     30  C         19.6740   62.5750  160.9440 C.2    93  SER93       0.2314
     31  O         20.7210   62.0510  161.3120 O.2    93  SER93      -0.2863
     32  CB        20.3470   64.2630  159.2490 C.3    93  SER93       0.2116
     33  OG        20.3060   64.6010  157.8770 O.3    93  SER93      -0.2180
     34  N         19.1220   60.0840  162.9390 N.3    95  THR95      -0.1218
     35  CA        18.7750   58.6790  162.8080 C.3    95  THR95       0.1862
     36  C         18.9910   57.9040  164.0980 C.2    95  THR95       0.2287
     37  O         18.8060   56.6920  164.1090 O.2    95  THR95      -0.2866
     38  CB        19.6320   58.0250  161.7240 C.3    95  THR95       0.1770
     39  OG1       20.9980   58.2510  162.0530 O.3    95  THR95      -0.2211
     40  CG2       19.3300   58.6250  160.3570 C.3    95  THR95       0.0375
     41  N         11.5110   65.0530  150.8320 N.3   108  GLY108     -0.1210
     42  CA        12.4180   64.9830  149.6830 C.3   108  GLY108      0.1956
     43  C         13.8820   65.1380  150.0460 C.2   108  GLY108      0.2612
     44  O         14.6170   65.8720  149.3890 O.2   108  GLY108     -0.2717
     45  N         14.2920   64.4300  151.0930 N.am  109  GLY109     -0.1942
     46  CA        15.5920   64.6190  151.7080 C.3   109  GLY109      0.2014
     47  C         15.4840   65.6000  152.8530 C.2   109  GLY109      0.2638
     48  O         15.0310   65.2440  153.9450 O.2   109  GLY109     -0.2714
     49  N         15.8480   66.8510  152.5850 N.am  110  HIS110     -0.1973
     50  CA        16.1060   67.8340  153.6530 C.3   110  HIS110      0.1656
     51  C         15.2580   69.0930  153.6170 C.2   110  HIS110      0.2291
     52  O         15.5870   70.0660  154.2760 O.2   110  HIS110     -0.2864
     53  CB        17.5930   68.1960  153.6380 C.3   110  HIS110      0.0771
     54  CG        18.4750   66.9970  153.6790 C.ar  110  HIS110      0.0820
     55  ND1       18.7350   66.3110  154.8450 N.ar  110  HIS110     -0.2267
     56  CD2       19.1170   66.3310  152.7000 C.ar  110  HIS110      0.1154
     57  CE1       19.5030   65.2740  154.5810 C.ar  110  HIS110      0.1986
     58  NE2       19.7520   65.2690  153.2870 N.ar  110  HIS110     -0.2212
     59  N         29.4600   61.9010  148.7730 N.3   209  TYR209     -0.1241
     60  CA        28.0480   61.9200  149.1470 C.3   209  TYR209      0.1605
     61  C         27.2300   61.3680  147.9990 C.2   209  TYR209      0.2264
     62  O         27.3900   61.8010  146.8560 O.2   209  TYR209     -0.2867
     63  CB        27.5430   63.3400  149.5160 C.3   209  TYR209      0.0534
     64  CG        26.1140   63.2440  149.9780 C.ar  209  TYR209     -0.0201
     65  CD1       25.8240   62.8390  151.2700 C.ar  209  TYR209     -0.0009
     66  CD2       25.0570   63.4340  149.0940 C.ar  209  TYR209     -0.0009
     67  CE1       24.5200   62.6470  151.6830 C.ar  209  TYR209      0.0417
     68  CE2       23.7490   63.2350  149.4970 C.ar  209  TYR209      0.0417
     69  CZ        23.4920   62.8450  150.7960 C.ar  209  TYR209      0.1957
     70  OH        22.1920   62.6370  151.2100 O.3   209  TYR209     -0.2866
     71  N         23.0470   60.1090  146.9760 N.3   211  ALA211     -0.1231
     72  CA        21.6290   59.8620  147.2560 C.3   211  ALA211      0.1694
     73  C         21.0070   59.3630  145.9620 C.2   211  ALA211      0.2592
     74  O         20.6130   60.1480  145.1070 O.2   211  ALA211     -0.2718
     75  CB        20.9300   61.1250  147.7440 C.3   211  ALA211      0.0304
     76  N         20.9590   58.0430  145.8160 N.am  212  GLY212     -0.1957
     77  CA        20.3960   57.4080  144.6330 C.3   212  GLY212      0.1869
     78  C         21.4540   57.0550  143.6040 C.2   212  GLY212      0.2309
     79  O         22.6530   57.2000  143.8530 O.2   212  GLY212     -0.2863
     80  N         22.9650   62.9370  142.1810 N.3   216  VAL216     -0.1245
     81  CA        23.2680   63.3950  143.5470 C.3   216  VAL216      0.1561
     82  C         24.4700   62.5710  144.0110 C.2   216  VAL216      0.2260
     83  O         24.3350   61.5530  144.7000 O.2   216  VAL216     -0.2867
     84  CB        22.0560   63.2890  144.4980 C.3   216  VAL216      0.0252
     85  CG1       22.3920   63.9070  145.8510 C.3   216  VAL216      0.0019
     86  CG2       20.8370   63.9680  143.8790 C.3   216  VAL216      0.0019
     87  N         28.5440   63.5850  144.8940 N.3   218  PHE218     -0.1241
     88  CA        29.3940   64.7430  145.1070 C.3   218  PHE218      0.1605
     89  C         30.6110   64.4270  145.9480 C.2   218  PHE218      0.2264
     90  O         30.5560   63.6030  146.8580 O.2   218  PHE218     -0.2867
     91  CB        28.6300   65.8390  145.8560 C.3   218  PHE218      0.0534
     92  CG        27.3650   66.2710  145.1890 C.ar  218  PHE218     -0.0203
     93  CD1       27.4000   66.8020  143.9160 C.ar  218  PHE218     -0.0042
     94  CD2       26.1400   66.1600  145.8400 C.ar  218  PHE218     -0.0042
     95  CE1       26.2360   67.2180  143.2890 C.ar  218  PHE218     -0.0003
     96  CE2       24.9730   66.5700  145.2170 C.ar  218  PHE218     -0.0003
     97  CZ        25.0180   67.0910  143.9390 C.ar  218  PHE218     -0.0000
     98  N         32.3730   66.1300  148.7920 N.3   220  LEU220     -0.1245
     99  CA        32.0830   67.1720  149.7690 C.3   220  LEU220      0.1561
    100  C         33.3420   67.9560  150.1170 C.2   220  LEU220      0.2260
    101  O         34.4200   67.3920  150.3230 O.2   220  LEU220     -0.2867
    102  CB        31.4500   66.6020  151.0310 C.3   220  LEU220      0.0270
    103  CG        30.1110   65.8940  150.8540 C.3   220  LEU220      0.0019
    104  CD1       29.5360   65.5660  152.2190 C.3   220  LEU220      0.0001
    105  CD2       29.1130   66.7210  150.0610 C.3   220  LEU220      0.0001
    106  N         31.0790   71.3210  154.4550 N.3   224  TYR224     -0.1241
    107  CA        30.4110   70.1730  155.0640 C.3   224  TYR224      0.1605
    108  C         31.2010   69.5380  156.1970 C.2   224  TYR224      0.2264
    109  O         30.6560   68.7040  156.9130 O.2   224  TYR224     -0.2867
    110  CB        30.0630   69.1430  153.9870 C.3   224  TYR224      0.0534
    111  CG        29.0740   69.6860  153.0050 C.ar  224  TYR224     -0.0201
    112  CD1       27.7080   69.6240  153.2640 C.ar  224  TYR224     -0.0009
    113  CD2       29.4910   70.3300  151.8510 C.ar  224  TYR224     -0.0009
    114  CE1       26.7830   70.1690  152.3950 C.ar  224  TYR224      0.0417
    115  CE2       28.5800   70.8830  150.9750 C.ar  224  TYR224      0.0417
    116  CZ        27.2280   70.8000  151.2480 C.ar  224  TYR224      0.1957
    117  OH        26.3260   71.3350  150.3720 O.3   224  TYR224     -0.2866
    118  N         30.8890   71.8920  147.3670 N.3   247  LEU247     -0.1245
    119  CA        30.9930   70.5240  146.8860 C.3   247  LEU247      0.1561
    120  C         31.2410   70.5630  145.3940 C.2   247  LEU247      0.2260
    121  O         31.0860   71.6110  144.7670 O.2   247  LEU247     -0.2867
    122  CB        29.7370   69.7240  147.2430 C.3   247  LEU247      0.0270
    123  CG        28.3600   70.2360  146.7910 C.3   247  LEU247      0.0019
    124  CD1       28.1640   70.1680  145.2850 C.3   247  LEU247      0.0001
    125  CD2       27.2630   69.4600  147.5030 C.3   247  LEU247      0.0001
    126  N         28.6670   57.5130  153.5060 N.3   266  MET266     -0.1245
    127  CA        27.6030   57.1870  154.4440 C.3   266  MET266      0.1570
    128  C         26.9810   55.8610  154.0380 C.2   266  MET266      0.2261
    129  O         26.7580   55.6310  152.8540 O.2   266  MET266     -0.2867
    130  CB        26.5570   58.2770  154.4020 C.3   266  MET266      0.0387
    131  CG        27.0940   59.6400  154.7640 C.3   266  MET266      0.0595
    132  SD        25.8160   60.8740  154.7080 S.3   266  MET266     -0.1393
    133  CE        26.8150   62.3220  154.9830 C.3   266  MET266      0.0692
    134  N         23.8810   54.2020  154.4370 N.3   268  GLU268     -0.1245
    135  CA        22.6020   54.2030  153.7040 C.3   268  GLU268      0.1567
    136  C         22.7480   54.8680  152.3300 C.2   268  GLU268      0.2260
    137  O         22.1890   54.4100  151.3400 O.2   268  GLU268     -0.2867
    138  CB        21.4860   54.8460  154.5250 C.3   268  GLU268      0.0388
    139  CG        20.1060   54.8220  153.8760 C.3   268  GLU268      0.1160
    140  CD        18.9940   55.3180  154.7870 C.2   268  GLU268      0.3649
    141  OE1       19.2280   55.5830  155.9870 O.co2 268  GLU268     -0.2457
    142  OE2       17.8560   55.4260  154.2960 O.co2 268  GLU268     -0.2457
    143  N         22.0010   53.3710  148.6700 N.3   272  SER272     -0.1217
    144  CA        21.1530   54.0880  147.7210 C.3   272  SER272      0.1889
    145  C         21.7270   54.1640  146.3050 C.2   272  SER272      0.2288
    146  O         20.9640   54.3310  145.3560 O.2   272  SER272     -0.2866
    147  CB        20.7940   55.4970  148.2320 C.3   272  SER272      0.2089
    148  OG        21.8170   56.4420  147.9580 O.3   272  SER272     -0.2183
    149  N         25.1380   57.1650  158.6120 N.3   301  ASP301     -0.1225
    150  CA        24.8530   58.4510  157.9500 C.3   301  ASP301      0.1805
    151  C         24.6830   59.5890  158.9410 C.2   301  ASP301      0.2598
    152  O         25.2970   60.6530  158.7830 O.2   301  ASP301     -0.2718
    153  CB        23.5840   58.3540  157.0950 C.3   301  ASP301      0.1424
    154  CG        23.6300   57.2030  156.1000 C.2   301  ASP301      0.3668
    155  OD1       23.8530   56.0390  156.5220 O.co2 301  ASP301     -0.2456
    156  OD2       23.4610   57.4580  154.8940 O.co2 301  ASP301     -0.2456
    157  N         23.8910   59.3400  159.9760 N.am  302  GLY302     -0.1957
    158  CA        23.5340   60.3700  160.9430 C.3   302  GLY302      0.1869
    159  C         24.5860   60.6950  161.9760 C.2   302  GLY302      0.2309
    160  O         24.3990   61.6210  162.7560 O.2   302  GLY302     -0.2863
    161  N         28.1260   60.3620  160.7420 N.3   304  SER304     -0.1202
    162  CA        29.3060   60.5700  159.9130 C.3   304  SER304      0.2020
    163  C         29.8600   61.9870  159.9510 C.2   304  SER304      0.2618
    164  O         31.0720   62.1740  160.1020 O.2   304  SER304     -0.2717
    165  CB        29.0140   60.1780  158.4610 C.3   304  SER304      0.2103
    166  OG        27.9770   60.9560  157.8950 O.3   304  SER304     -0.2182
    167  N         28.9690   62.9770  159.8320 N.am  305  LEU305     -0.1979
    168  CA        29.3550   64.3850  159.8260 C.3   305  LEU305      0.1596
    169  C         28.6680   65.1650  160.9430 C.2   305  LEU305      0.2287
    170  O         28.6450   66.3970  160.9340 O.2   305  LEU305     -0.2864
    171  CB        29.0790   65.0000  158.4480 C.3   305  LEU305      0.0297
    172  CG        29.9880   64.4580  157.3460 C.3   305  LEU305      0.0022
    173  CD1       29.5420   64.9880  155.9940 C.3   305  LEU305      0.0001
    174  CD2       31.4420   64.8100  157.5930 C.3   305  LEU305      0.0001
@<TRIPOS>BOND
     1    80    81    1
     2    95    93   ar
     3    95    97   ar
     4    81    82    1
     5    81    84    1
     6    78    79    2
     7    78    77    1
     8    86    84    1
     9    93    92   ar
    10    97    96   ar
    11    82    83    2
    12    84    85    1
    13    77    76    1
    14   121   120    2
    15    87    88    1
    16    74    73    2
    17    88    91    1
    18    88    89    1
    19    92    94   ar
    20    92    91    1
    21    96    94   ar
    22   124   123    1
    23   146   145    2
    24   120   119    1
    25    76    73   am
    26    89    90    2
    27    73    72    1
    28   145   144    1
    29   123   122    1
    30   123   125    1
    31    62    61    2
    32   119   122    1
    33   119   118    1
    34    71    72    1
    35    72    75    1
    36   144   147    1
    37   144   143    1
    38   148   147    1
    39    61    60    1
    40    59    60    1
    41    98    99    1
    42    66    68   ar
    43    66    64   ar
    44    60    63    1
    45    44    43    2
    46    68    69   ar
    47    63    64    1
    48    42    43    1
    49    42    41    1
    50    99   100    1
    51    99   102    1
    52    64    65   ar
    53    43    45   am
    54   105   103    1
    55   100   101    2
    56   117   116    1
    57    69    70    1
    58    69    67   ar
    59   103   102    1
    60   103   104    1
    61   115   116   ar
    62   115   113   ar
    63    45    46    1
    64   116   114   ar
    65    65    67   ar
    66   137   136    2
    67    46    47    1
    68   113   111   ar
    69   136   135    1
    70   114   112   ar
    71    49    47   am
    72    49    50    1
    73    56    58   ar
    74    56    54   ar
    75    47    48    2
    76   129   128    2
    77   111   112   ar
    78   111   110    1
    79    58    57   ar
    80   126   127    1
    81    51    50    1
    82    51    52    2
    83    53    50    1
    84    53    54    1
    85    54    55   ar
    86   135   134    1
    87   135   138    1
    88   139   138    1
    89   139   140    1
    90   110   107    1
    91   128   127    1
    92   142   140   ar
    93   130   127    1
    94   130   131    1
    95   106   107    1
    96    57    55   ar
    97   132   131    1
    98   132   133    1
    99   140   141   ar
   100     8     6    1
   101   156   154   ar
   102     7     6    1
   103   107   108    1
   104     6     5    1
   105   173   172    1
   106    27    25    1
   107   154   155   ar
   108   154   153    1
   109    26    25    1
   110   108   109    2
   111    20    19    1
   112    25    22    1
   113     5     2    1
   114   153   150    1
   115   172   174    1
   116   172   171    1
   117    17    19   ar
   118    17    15   ar
   119    19    18   ar
   120    33    32    1
   121   166   165    1
   122   150   149    1
   123   150   151    1
   124     2     3    1
   125     2     1    1
   126     4     3    2
   127    22    21    1
   128    22    23    1
   129    15    14   ar
   130   171   168    1
   131   165   162    1
   132     3     9   am
   133    18    16   ar
   134    23    24    2
   135    23    28   am
   136   152   151    2
   137   151   157   am
   138    28    29    1
   139    32    29    1
   140    14    16   ar
   141    14    13    1
   142    29    30    1
   143     9    10    1
   144   168   167    1
   145   168   169    1
   146   167   163   am
   147   162   163    1
   148   162   161    1
   149   163   164    2
   150   157   158    1
   151    10    13    1
   152    10    11    1
   153    40    38    1
   154   170   169    2
   155   158   159    1
   156    30    31    2
   157    11    12    2
   158    38    39    1
   159    38    35    1
   160   159   160    2
   161    35    34    1
   162    35    36    1
   163    36    37    2
