@<TRIPOS>MOLECULE
tmp/5b53A00.pdb
 162 154 0 0 0
SMALL
GASTEIGER

@<TRIPOS>ATOM
      1  N         44.0940   32.7520   20.5040 N.3    44  ILE44      -0.1231
      2  CA        45.4060   32.9860   19.8730 C.3    44  ILE44       0.1692
      3  C         45.3160   32.9340   18.3410 C.2    44  ILE44       0.2591
      4  O         46.1510   33.4980   17.6390 O.2    44  ILE44      -0.2718
      5  CB        46.4200   31.9120   20.3650 C.3    44  ILE44       0.0266
      6  CG1       47.8460   32.3480   20.0470 C.3    44  ILE44       0.0019
      7  CG2       46.0830   30.5950   19.7580 C.3    44  ILE44       0.0020
      8  CD1       48.8990   31.6450   20.8680 C.3    44  ILE44       0.0001
      9  N         44.2910   32.2640   17.8290 N.am   45  LYS45      -0.1980
     10  CA        44.1550   32.1040   16.3990 C.3    45  LYS45       0.1596
     11  C         43.6300   33.3810   15.7710 C.2    45  LYS45       0.2287
     12  O         43.4920   33.4390   14.5780 O.2    45  LYS45      -0.2864
     13  CB        43.2380   30.9540   16.0750 C.3    45  LYS45       0.0298
     14  CG        43.6910   29.6360   16.6430 C.3    45  LYS45       0.0038
     15  CD        44.2660   28.7160   15.6040 C.3    45  LYS45       0.0206
     16  CE        45.0520   27.6080   16.2250 C.3    45  LYS45       0.1093
     17  NZ        44.2390   26.9370   17.2920 N.3    45  LYS45      -0.1314
     18  N         37.1870   24.6670   15.3760 N.3    74  GLY74      -0.1210
     19  CA        37.7650   25.3590   16.4940 C.3    74  GLY74       0.1956
     20  C         37.9220   26.8180   16.2610 C.2    74  GLY74       0.2611
     21  O         37.2760   27.3870   15.3860 O.2    74  GLY74      -0.2717
     22  N         38.8100   27.4020   17.0450 N.am   75  ASN75      -0.1974
     23  CA        39.1140   28.8040   16.9600 C.3    75  ASN75       0.1688
     24  C         39.5600   29.3320   15.5840 C.2    75  ASN75       0.2292
     25  O         39.2560   30.4600   15.2190 O.2    75  ASN75      -0.2864
     26  CB        40.2070   29.1640   17.9780 C.3    75  ASN75       0.1181
     27  CG        39.8260   28.8470   19.3930 C.2    75  ASN75       0.2629
     28  OD1       38.8170   29.2880   19.8630 O.2    75  ASN75      -0.2716
     29  ND2       40.6480   28.1220   20.0780 N.am   75  ASN75      -0.0877
     30  N         45.7810   25.7770    7.0800 N.3   146  GLN146     -0.1245
     31  CA        46.2890   26.1650    8.3680 C.3   146  GLN146      0.1566
     32  C         47.3340   25.2250    8.8580 C.2   146  GLN146      0.2260
     33  O         48.1220   25.6200    9.7170 O.2   146  GLN146     -0.2867
     34  CB        45.1730   26.2280    9.4130 C.3   146  GLN146      0.0367
     35  CG        44.4150   24.9220    9.6190 C.3   146  GLN146      0.0905
     36  CD        43.4640   24.9520   10.8030 C.2   146  GLN146      0.2608
     37  OE1       42.4520   24.2290   10.8100 O.2   146  GLN146     -0.2717
     38  NE2       43.7850   25.7590   11.8200 N.am  146  GLN146     -0.0878
     39  N         51.2740   31.2100    9.0670 N.3   152  ASN152     -0.1240
     40  CA        50.7060   30.8570   10.3820 C.3   152  ASN152      0.1653
     41  C         51.7740   31.0700   11.4110 C.2   152  ASN152      0.2266
     42  O         51.7350   32.0660   12.1070 O.2   152  ASN152     -0.2867
     43  CB        50.2450   29.3780   10.3070 C.3   152  ASN152      0.1155
     44  CG        49.7250   28.8010   11.6190 C.2   152  ASN152      0.2627
     45  OD1       49.8630   29.4050   12.6810 O.2   152  ASN152     -0.2716
     46  ND2       49.1610   27.5770   11.5410 N.am  152  ASN152     -0.0877
     47  N         53.1280   34.0740   14.5190 N.3   156  HIS156     -0.1241
     48  CA        53.5500   33.9740   15.9160 C.3   156  HIS156      0.1621
     49  C         54.9950   34.3880   16.1320 C.2   156  HIS156      0.2264
     50  O         55.3110   34.9370   17.1560 O.2   156  HIS156     -0.2867
     51  CB        53.2450   32.6020   16.4740 C.3   156  HIS156      0.0745
     52  CG        51.7890   32.2720   16.4010 C.ar  156  HIS156      0.0817
     53  ND1       50.8110   33.1580   16.8050 N.ar  156  HIS156     -0.2268
     54  CD2       51.1380   31.1740   15.9420 C.ar  156  HIS156      0.1154
     55  CE1       49.6230   32.6030   16.6270 C.ar  156  HIS156      0.1986
     56  NE2       49.7930   31.4000   16.1090 N.ar  156  HIS156     -0.2212
     57  N         51.2760   22.8340   23.0300 N.3   181  GLY181     -0.1210
     58  CA        50.6030   21.7520   22.3360 C.3   181  GLY181      0.1956
     59  C         50.4170   22.1160   20.8780 C.2   181  GLY181      0.2612
     60  O         50.2020   23.2930   20.5070 O.2   181  GLY181     -0.2717
     61  N         50.4950   21.1000   20.0440 N.am  182  VAL182     -0.1965
     62  CA        50.5010   21.2510   18.5960 C.3   182  VAL182      0.1727
     63  C         49.2110   20.7780   17.8930 C.2   182  VAL182      0.2617
     64  O         48.9210   19.5650   17.7820 O.2   182  VAL182     -0.2715
     65  CB        51.6710   20.4350   18.0020 C.3   182  VAL182      0.0290
     66  CG1       51.4510   20.1280   16.4860 C.3   182  VAL182      0.0023
     67  CG2       53.0020   21.1190   18.3030 C.3   182  VAL182      0.0023
     68  N         48.4700   21.7370   17.3760 N.am  183  GLY183     -0.1940
     69  CA        47.4320   21.4580   16.3860 C.3   183  GLY183      0.2014
     70  C         47.9950   21.6350   14.9930 C.2   183  GLY183      0.2640
     71  O         48.2190   20.6550   14.2990 O.2   183  GLY183     -0.2714
     72  N         48.2000   22.8890   14.5960 N.am  184  THR184     -0.1936
     73  CA        48.9270   23.1960   13.3750 C.3   184  THR184      0.2028
     74  C         50.4640   23.2550   13.5060 C.2   184  THR184      0.2643
     75  O         51.1880   22.9690   12.5460 O.2   184  THR184     -0.2714
     76  CB        48.4790   24.5100   12.7820 C.3   184  THR184      0.1808
     77  OG1       48.5510   25.5110   13.7840 O.3   184  THR184     -0.2208
     78  CG2       47.0670   24.3960   12.2580 C.3   184  THR184      0.0379
     79  N         50.9550   23.6310   14.6870 N.am  185  GLY185     -0.1939
     80  CA        52.4100   23.7180   14.9240 C.3   185  GLY185      0.2014
     81  C         52.8300   25.1490   14.7890 C.2   185  GLY185      0.2639
     82  O         53.9370   25.4860   15.1430 O.2   185  GLY185     -0.2714
     83  N         51.9310   25.9980   14.3120 N.am  186  GLY186     -0.1939
     84  CA        52.2160   27.3970   14.2050 C.3   186  GLY186      0.2014
     85  C         52.7710   28.0360   15.4670 C.2   186  GLY186      0.2640
     86  O         53.7980   28.6950   15.4260 O.2   186  GLY186     -0.2714
     87  N         52.1070   27.8830   16.5980 N.am  187  THR187     -0.1936
     88  CA        52.5630   28.4970   17.8320 C.3   187  THR187      0.2028
     89  C         54.0280   28.1430   18.1900 C.2   187  THR187      0.2642
     90  O         54.9110   28.9940   18.3390 O.2   187  THR187     -0.2714
     91  CB        51.6700   27.9730   18.9340 C.3   187  THR187      0.1808
     92  OG1       50.3270   28.4090   18.6910 O.3   187  THR187     -0.2208
     93  CG2       52.1110   28.4640   20.2700 C.3   187  THR187      0.0379
     94  N         54.2680   26.8510   18.3140 N.am  188  VAL188     -0.1977
     95  CA        55.5230   26.3170   18.8260 C.3   188  VAL188      0.1596
     96  C         56.6750   26.5810   17.8500 C.2   188  VAL188      0.2287
     97  O         57.8300   26.8130   18.3100 O.2   188  VAL188     -0.2864
     98  CB        55.3640   24.8240   19.1380 C.3   188  VAL188      0.0276
     99  CG1       55.3330   24.0140   17.8820 C.3   188  VAL188      0.0022
    100  CG2       56.4520   24.3520   20.0420 C.3   188  VAL188      0.0022
    101  N         40.9300   19.7500   22.9040 N.3   227  GLU227     -0.1231
    102  CA        40.5590   20.4760   21.6690 C.3   227  GLU227      0.1699
    103  C         41.4970   21.5890   21.2700 C.2   227  GLU227      0.2593
    104  O         41.7500   22.5030   22.0980 O.2   227  GLU227     -0.2718
    105  CB        39.2890   21.2610   21.8640 C.3   227  GLU227      0.0402
    106  CG        38.0530   20.4370   21.8150 C.3   227  GLU227      0.1161
    107  CD        36.8350   21.2720   21.4790 C.2   227  GLU227      0.3649
    108  OE1       36.8920   22.1530   20.5670 O.co2 227  GLU227     -0.2457
    109  OE2       35.8280   21.0040   22.1770 O.co2 227  GLU227     -0.2457
    110  N         41.9290   21.5710   20.0050 N.am  228  GLY228     -0.1942
    111  CA        42.8450   22.5420   19.5020 C.3   228  GLY228      0.2014
    112  C         44.1300   21.9150   19.0870 C.2   228  GLY228      0.2638
    113  O         44.8820   22.5260   18.3490 O.2   228  GLY228     -0.2714
    114  N         44.4080   20.7140   19.5720 N.am  229  ILE229     -0.1977
    115  CA        45.6690   20.0790   19.2860 C.3   229  ILE229      0.1596
    116  C         45.5100   18.6620   18.8700 C.2   229  ILE229      0.2287
    117  O         44.4790   18.0560   19.0950 O.2   229  ILE229     -0.2864
    118  CB        46.6350   20.0310   20.5030 C.3   229  ILE229      0.0276
    119  CG1       46.2690   18.9150   21.5100 C.3   229  ILE229      0.0022
    120  CG2       46.6840   21.3640   21.1900 C.3   229  ILE229      0.0022
    121  CD1       47.3230   18.7050   22.5990 C.3   229  ILE229      0.0001
    122  N         43.1720   22.6400   26.3640 N.3   271  SER271     -0.1217
    123  CA        44.5450   22.8200   25.8830 C.3   271  SER271      0.1889
    124  C         45.4890   23.6670   26.8750 C.2   271  SER271      0.2288
    125  O         46.7170   23.4550   26.9320 O.2   271  SER271     -0.2866
    126  CB        44.5180   23.3750   24.4330 C.3   271  SER271      0.2089
    127  OG        44.3880   24.7930   24.3550 O.3   271  SER271     -0.2183
    128  N         49.0960   22.5690   28.3230 N.3   275  ASN275     -0.1240
    129  CA        50.2970   23.4040   28.3500 C.3   275  ASN275      0.1653
    130  C         50.8660   23.6630   29.7280 C.2   275  ASN275      0.2266
    131  O         52.0650   23.7230   29.9020 O.2   275  ASN275     -0.2867
    132  CB        50.0460   24.7630   27.6770 C.3   275  ASN275      0.1155
    133  CG        49.9520   24.6380   26.1670 C.2   275  ASN275      0.2627
    134  OD1       50.0640   23.5260   25.6360 O.2   275  ASN275     -0.2716
    135  ND2       49.7130   25.7550   25.4780 N.am  275  ASN275     -0.0877
    136  N         45.7630   29.1820   25.0580 N.3   297  PRO297     -0.2102
    137  CA        45.1660   29.5670   23.7740 C.3   297  PRO297      0.1504
    138  C         43.7830   30.2180   23.8410 C.2   297  PRO297      0.2575
    139  O         43.5010   31.1590   23.0980 O.2   297  PRO297     -0.2718
    140  CB        45.0950   28.2640   23.0040 C.3   297  PRO297      0.0282
    141  CG        46.2180   27.5020   23.5260 C.3   297  PRO297      0.0208
    142  CD        46.2730   27.8020   24.9980 C.3   297  PRO297      0.0893
    143  N         42.9210   29.7340   24.7120 N.am  298  ASP298     -0.1974
    144  CA        41.6110   30.3540   24.8630 C.3   298  ASP298      0.1708
    145  C         41.0060   30.2520   26.2660 C.2   298  ASP298      0.2293
    146  O         41.6860   29.9480   27.2430 O.2   298  ASP298     -0.2864
    147  CB        40.6780   29.8310   23.7700 C.3   298  ASP298      0.1436
    148  CG        40.3630   28.3680   23.9120 C.2   298  ASP298      0.3671
    149  OD1       40.8080   27.7380   24.8930 O.co2 298  ASP298     -0.2456
    150  OD2       39.6750   27.8420   22.9980 O.co2 298  ASP298     -0.2456
    151  N         33.7310   25.5560   26.3520 N.3   303  TYR303     -0.1241
    152  CA        33.9530   24.1980   26.7790 C.3   303  TYR303      0.1605
    153  C         32.9810   23.7950   27.8720 C.2   303  TYR303      0.2264
    154  O         33.2510   23.0050   28.7700 O.2   303  TYR303     -0.2867
    155  CB        35.3710   24.1460   27.3020 C.3   303  TYR303      0.0534
    156  CG        36.3620   24.4820   26.2230 C.ar  303  TYR303     -0.0201
    157  CD1       36.7240   25.7710   25.9800 C.ar  303  TYR303     -0.0009
    158  CD2       36.8870   23.4970   25.4130 C.ar  303  TYR303     -0.0009
    159  CE1       37.5930   26.0910   24.9680 C.ar  303  TYR303      0.0417
    160  CE2       37.7800   23.8060   24.4070 C.ar  303  TYR303      0.0417
    161  CZ        38.1240   25.1210   24.1880 C.ar  303  TYR303      0.1957
    162  OH        39.0280   25.4780   23.2260 O.3   303  TYR303     -0.2866
@<TRIPOS>BOND
     1    30    31    1
     2    31    32    1
     3    31    34    1
     4    32    33    2
     5    39    40    1
     6    34    35    1
     7    35    36    1
     8    43    40    1
     9    43    44    1
    10    40    41    1
    11    36    37    2
    12    36    38   am
    13    41    42    2
    14    46    44   am
    15    44    45    2
    16    78    76    1
    17    75    74    2
    18    76    73    1
    19    76    77    1
    20    73    74    1
    21    73    72    1
    22    74    79   am
    23    84    83    1
    24    84    85    1
    25    71    70    2
    26    83    81   am
    27    47    48    1
    28    12    11    2
    29    72    70   am
    30    79    80    1
    31    81    80    1
    32    81    82    2
    33    70    69    1
    34    25    24    2
    35    18    19    1
    36    21    20    2
    37    86    85    2
    38    85    87   am
    39    24    23    1
    40    15    16    1
    41    15    14    1
    42    11    10    1
    43    48    49    1
    44    48    51    1
    45    54    56   ar
    46    54    52   ar
    47    13    10    1
    48    13    14    1
    49    56    55   ar
    50    49    50    2
    51    16    17    1
    52    20    19    1
    53    20    22   am
    54    69    68    1
    55    10     9    1
    56    52    51    1
    57    52    53   ar
    58    66    65    1
    59    87    88    1
    60    55    53   ar
    61    23    22    1
    62    23    26    1
    63    68    63   am
    64     4     3    2
    65    64    63    2
    66     9     3   am
    67    88    89    1
    68    88    91    1
    69    96    97    2
    70    96    95    1
    71    99    98    1
    72    63    62    1
    73    26    27    1
    74    65    67    1
    75    65    62    1
    76    89    94   am
    77    89    90    2
    78    94    95    1
    79     3     2    1
    80   113   112    2
    81    62    61    1
    82    92    91    1
    83    95    98    1
    84   116   117    2
    85   116   115    1
    86    91    93    1
    87   112   111    1
    88   112   114   am
    89    98   100    1
    90   115   114    1
    91   115   118    1
    92    27    28    2
    93    27    29   am
    94   111   110    1
    95     7     5    1
    96     2     5    1
    97     2     1    1
    98   110   103   am
    99    61    59   am
   100     6     5    1
   101     6     8    1
   102   118   120    1
   103   118   119    1
   104    60    59    2
   105   108   107   ar
   106    59    58    1
   107   103   102    1
   108   103   104    2
   109   107   106    1
   110   107   109   ar
   111   119   121    1
   112   102   105    1
   113   102   101    1
   114   106   105    1
   115    58    57    1
   116   150   148   ar
   117   140   141    1
   118   140   137    1
   119   139   138    2
   120   162   161    1
   121   141   142    1
   122   147   148    1
   123   147   144    1
   124   137   138    1
   125   137   136    1
   126   138   143   am
   127   148   149   ar
   128   161   160   ar
   129   161   159   ar
   130   127   126    1
   131   160   158   ar
   132   126   123    1
   133   143   144    1
   134   144   145    1
   135   159   157   ar
   136   142   136    1
   137   158   156   ar
   138   135   133   am
   139   134   133    2
   140   123   122    1
   141   123   124    1
   142   157   156   ar
   143   133   132    1
   144   156   155    1
   145   145   146    2
   146   151   152    1
   147   152   155    1
   148   152   153    1
   149   124   125    2
   150   132   129    1
   151   153   154    2
   152   128   129    1
   153   129   130    1
   154   130   131    2
