@<TRIPOS>MOLECULE
tmp/5b55B02.pdb
 85 81 0 0 0
SMALL
GASTEIGER

@<TRIPOS>ATOM
      1  N         52.5310   44.5620   36.2070 N.3     5  GLU5       -0.1245
      2  CA        52.4080   43.5630   37.2440 C.3     5  GLU5        0.1567
      3  C         51.4640   42.3960   36.9130 C.2     5  GLU5        0.2260
      4  O         51.5900   41.3340   37.5010 O.2     5  GLU5       -0.2867
      5  CB        51.9870   44.2350   38.5380 C.3     5  GLU5        0.0388
      6  CG        52.0740   43.3300   39.7590 C.3     5  GLU5        0.1160
      7  CD        51.6740   44.0080   41.0760 C.2     5  GLU5        0.3649
      8  OE1       50.9520   45.0420   41.0700 O.co2   5  GLU5       -0.2457
      9  OE2       52.0730   43.4550   42.1260 O.co2   5  GLU5       -0.2457
     10  N         53.2440   36.6880   38.8840 N.3     9  GLY9       -0.1225
     11  CA        52.5310   36.3180   40.0430 C.3     9  GLY9        0.1811
     12  C         51.1330   35.7610   39.7830 C.2     9  GLY9        0.2280
     13  O         50.7790   35.3540   38.6580 O.2     9  GLY9       -0.2866
     14  N         59.0110   37.7420   39.2590 N.3    40  ARG40      -0.1245
     15  CA        58.3970   38.5700   40.3280 C.3    40  ARG40       0.1563
     16  C         59.4100   39.5240   40.9340 C.2    40  ARG40       0.2260
     17  O         59.1140   40.6840   41.2000 O.2    40  ARG40      -0.2867
     18  CB        57.8930   37.6990   41.4590 C.3    40  ARG40       0.0307
     19  CG        56.7550   36.7990   41.0830 C.3    40  ARG40       0.0489
     20  CD        56.5600   35.8730   42.2230 C.3    40  ARG40       0.2205
     21  NE        55.4910   34.9200   42.1560 N.pl3  40  ARG40      -0.0865
     22  CZ        54.2630   35.0960   42.6740 C.cat  40  ARG40       0.5346
     23  NH1       53.8790   36.2590   43.1610 N.pl3  40  ARG40       0.1354
     24  NH2       53.3940   34.1060   42.6010 N.pl3  40  ARG40       0.1354
     25  N         60.7620   42.2850   38.1950 N.3    43  PHE43      -0.1227
     26  CA        59.7840   43.3050   38.0650 C.3    43  PHE43       0.1736
     27  C         59.8200   44.1860   39.3120 C.2    43  PHE43       0.2595
     28  O         59.8250   45.4050   39.1770 O.2    43  PHE43      -0.2718
     29  CB        58.3670   42.7480   37.8700 C.3    43  PHE43       0.0547
     30  CG        57.3160   43.8190   37.8910 C.ar   43  PHE43      -0.0202
     31  CD1       57.1850   44.6900   36.8350 C.ar   43  PHE43      -0.0042
     32  CD2       56.5390   43.9900   38.9920 C.ar   43  PHE43      -0.0042
     33  CE1       56.2380   45.7120   36.8510 C.ar   43  PHE43      -0.0003
     34  CE2       55.6150   45.0090   39.0410 C.ar   43  PHE43      -0.0003
     35  CZ        55.4690   45.8720   37.9690 C.ar   43  PHE43      -0.0000
     36  N         59.7590   43.5820   40.5110 N.am   44  TYR44      -0.1976
     37  CA        59.6730   44.3830   41.7620 C.3    44  TYR44       0.1639
     38  C         60.8990   45.2940   41.9030 C.2    44  TYR44       0.2290
     39  O         60.7670   46.4820   42.2380 O.2    44  TYR44      -0.2864
     40  CB        59.5990   43.4950   42.9960 C.3    44  TYR44       0.0560
     41  CG        59.5850   44.2920   44.3040 C.ar   44  TYR44      -0.0198
     42  CD1       60.7700   44.6320   44.9490 C.ar   44  TYR44      -0.0009
     43  CD2       58.3620   44.7170   44.8890 C.ar   44  TYR44      -0.0009
     44  CE1       60.7590   45.3670   46.1090 C.ar   44  TYR44       0.0417
     45  CE2       58.3280   45.4450   46.0930 C.ar   44  TYR44       0.0417
     46  CZ        59.5360   45.7620   46.7070 C.ar   44  TYR44       0.1957
     47  OH        59.5650   46.4680   47.9000 O.3    44  TYR44      -0.2866
     48  N         60.7430   41.7680   47.2350 N.3   137  ALA137     -0.1245
     49  CA        59.8670   41.2120   46.1570 C.3   137  ALA137      0.1562
     50  C         59.0230   40.0410   46.6320 C.2   137  ALA137      0.2260
     51  O         57.8000   40.0060   46.4410 O.2   137  ALA137     -0.2867
     52  CB        60.6790   40.7890   44.9230 C.3   137  ALA137      0.0290
     53  N         56.4800   40.9200   49.6030 N.3   140  TYR140     -0.1227
     54  CA        55.2680   41.6250   49.1260 C.3   140  TYR140      0.1736
     55  C         54.4630   40.8200   48.0880 C.2   140  TYR140      0.2596
     56  O         53.2790   41.0610   47.9420 O.2   140  TYR140     -0.2718
     57  CB        55.5940   43.0480   48.5800 C.3   140  TYR140      0.0548
     58  CG        56.0140   44.0370   49.6650 C.ar  140  TYR140     -0.0200
     59  CD1       55.0830   44.5330   50.5840 C.ar  140  TYR140     -0.0009
     60  CD2       57.3360   44.4520   49.7810 C.ar  140  TYR140     -0.0009
     61  CE1       55.4690   45.4310   51.5880 C.ar  140  TYR140      0.0417
     62  CE2       57.7430   45.3420   50.7700 C.ar  140  TYR140      0.0417
     63  CZ        56.8000   45.8190   51.6700 C.ar  140  TYR140      0.1957
     64  OH        57.2080   46.6440   52.6260 O.3   140  TYR140     -0.2866
     65  N         55.1150   39.9150   47.3530 N.am  141  GLY141     -0.1957
     66  CA        54.4880   39.1710   46.2620 C.3   141  GLY141      0.1869
     67  C         54.0990   37.7780   46.6740 C.2   141  GLY141      0.2309
     68  O         53.0610   37.5450   47.3480 O.2   141  GLY141     -0.2863
     69  N         53.0650   36.8520   50.4230 N.3   144  LEU144     -0.1231
     70  CA        51.7000   37.3030   50.6900 C.3   144  LEU144      0.1693
     71  C         50.6860   36.4070   50.0760 C.2   144  LEU144      0.2591
     72  O         49.6740   36.0900   50.7410 O.2   144  LEU144     -0.2718
     73  CB        51.4810   38.7360   50.2070 C.3   144  LEU144      0.0284
     74  CG        50.1620   39.4120   50.5960 C.3   144  LEU144      0.0019
     75  CD1       49.8300   39.3280   52.0930 C.3   144  LEU144      0.0001
     76  CD2       50.1820   40.8700   50.1140 C.3   144  LEU144      0.0001
     77  N         50.8910   35.9890   48.8080 N.am  145  GLU145     -0.1979
     78  CA        49.9230   35.0260   48.1630 C.3   145  GLU145      0.1602
     79  C         49.8250   33.7600   48.9850 C.2   145  GLU145      0.2287
     80  O         48.7430   33.2580   49.2220 O.2   145  GLU145     -0.2864
     81  CB        50.3210   34.6790   46.7290 C.3   145  GLU145      0.0415
     82  CG        50.2510   35.8560   45.7810 C.3   145  GLU145      0.1163
     83  CD        50.7220   35.5200   44.3700 C.2   145  GLU145      0.3649
     84  OE1       50.8020   34.3300   44.0050 O.co2 145  GLU145     -0.2457
     85  OE2       50.9650   36.4730   43.5760 O.co2 145  GLU145     -0.2457
@<TRIPOS>BOND
     1     1     2    1
     2    31    33   ar
     3    31    30   ar
     4    33    35   ar
     5     3     2    1
     6     3     4    2
     7     2     5    1
     8    29    30    1
     9    29    26    1
    10    30    32   ar
    11    35    34   ar
    12    26    25    1
    13    26    27    1
    14     5     6    1
    15    13    12    2
    16    10    11    1
    17    32    34   ar
    18    28    27    2
    19    14    15    1
    20    27    36   am
    21     6     7    1
    22    12    11    1
    23    15    16    1
    24    15    18    1
    25    36    37    1
    26    16    17    2
    27     8     7   ar
    28     7     9   ar
    29    19    18    1
    30    19    20    1
    31    37    38    1
    32    37    40    1
    33    38    39    2
    34    21    20    1
    35    21    22    2
    36    24    22    1
    37    22    23    1
    38    40    41    1
    39    85    83   ar
    40    84    83   ar
    41    41    43   ar
    42    41    42   ar
    43    83    82    1
    44    43    45   ar
    45    52    49    1
    46    42    44   ar
    47    82    81    1
    48    45    46   ar
    49    44    46   ar
    50    49    50    1
    51    49    48    1
    52    66    67    1
    53    66    65    1
    54    51    50    2
    55    67    68    2
    56    46    47    1
    57    81    78    1
    58    65    55   am
    59    56    55    2
    60    55    54    1
    61    78    77    1
    62    78    79    1
    63    57    54    1
    64    57    58    1
    65    77    71   am
    66    79    80    2
    67    54    53    1
    68    58    60   ar
    69    58    59   ar
    70    60    62   ar
    71    71    70    1
    72    71    72    2
    73    76    74    1
    74    73    74    1
    75    73    70    1
    76    69    70    1
    77    59    61   ar
    78    74    75    1
    79    62    63   ar
    80    61    63   ar
    81    63    64    1
