@<TRIPOS>MOLECULE
tmp/5b57A00.pdb
 89 86 0 0 0
SMALL
GASTEIGER

@<TRIPOS>ATOM
      1  N        -54.8420   26.3770  -66.6830 N.3    55  LEU55      -0.1231
      2  CA       -54.6880   25.0920  -66.0150 C.3    55  LEU55       0.1693
      3  C        -53.3650   24.4030  -66.3390 C.2    55  LEU55       0.2592
      4  O        -52.9710   23.4880  -65.6120 O.2    55  LEU55      -0.2718
      5  CB       -55.8450   24.1580  -66.3700 C.3    55  LEU55       0.0284
      6  CG       -56.0590   23.1010  -65.2880 C.3    55  LEU55       0.0019
      7  CD1      -57.3390   23.3820  -64.5220 C.3    55  LEU55       0.0001
      8  CD2      -56.0740   21.7150  -65.8810 C.3    55  LEU55       0.0001
      9  N        -52.6630   24.8100  -67.3960 N.am   56  ASP56      -0.1974
     10  CA       -51.4350   24.1250  -67.7920 C.3    56  ASP56       0.1709
     11  C        -50.1550   24.9270  -67.5960 C.2    56  ASP56       0.2293
     12  O        -49.1120   24.3290  -67.3610 O.2    56  ASP56      -0.2864
     13  CB       -51.4990   23.7000  -69.2620 C.3    56  ASP56       0.1436
     14  CG       -52.3060   22.4680  -69.4620 C.2    56  ASP56       0.3671
     15  OD1      -52.6860   21.8620  -68.4340 O.co2  56  ASP56      -0.2456
     16  OD2      -52.5430   22.1070  -70.6420 O.co2  56  ASP56      -0.2456
     17  N        -49.3470   26.7460  -57.7460 N.3    63  VAL63      -0.1245
     18  CA       -49.3340   25.6490  -56.7760 C.3    63  VAL63       0.1561
     19  C        -47.9130   25.3790  -56.2690 C.2    63  VAL63       0.2260
     20  O        -47.7070   25.1380  -55.0770 O.2    63  VAL63      -0.2867
     21  CB       -50.0020   24.4020  -57.3840 C.3    63  VAL63       0.0252
     22  CG1      -49.2630   23.1610  -57.0470 C.3    63  VAL63       0.0019
     23  CG2      -51.3300   24.2710  -56.8010 C.3    63  VAL63       0.0019
     24  N        -46.5420   25.1780  -52.3660 N.3    67  LEU67      -0.1245
     25  CA       -45.7760   24.0540  -51.8210 C.3    67  LEU67       0.1561
     26  C        -44.4070   24.4790  -51.3030 C.2    67  LEU67       0.2260
     27  O        -43.9570   23.9640  -50.2710 O.2    67  LEU67      -0.2867
     28  CB       -45.5960   22.9700  -52.8770 C.3    67  LEU67       0.0270
     29  CG       -46.7740   22.0790  -53.2340 C.3    67  LEU67       0.0019
     30  CD1      -46.2460   20.9820  -54.1460 C.3    67  LEU67       0.0001
     31  CD2      -47.4130   21.5150  -51.9710 C.3    67  LEU67       0.0001
     32  N        -47.4150   19.8710  -63.8710 N.3   190  TRP190     -0.1228
     33  CA       -48.2130   18.9230  -63.0910 C.3   190  TRP190      0.1722
     34  C        -47.5570   17.5620  -62.8890 C.2   190  TRP190      0.2437
     35  O        -47.5850   17.0680  -61.7550 O.2   190  TRP190     -0.2733
     36  CB       -49.6050   18.7160  -63.7120 C.3   190  TRP190      0.0563
     37  CG       -50.5180   19.8970  -63.5880 C.ar  190  TRP190      0.0003
     38  CD1      -51.0720   20.5950  -64.6100 C.ar  190  TRP190      0.0946
     39  CD2      -50.9620   20.5430  -62.3700 C.ar  190  TRP190      0.0152
     40  NE1      -51.8390   21.6260  -64.1180 N.ar  190  TRP190     -0.2442
     41  CE2      -51.7830   21.6190  -62.7480 C.ar  190  TRP190      0.0810
     42  CE3      -50.7440   20.3140  -61.0070 C.ar  190  TRP190      0.0012
     43  CZ2      -52.3920   22.4650  -61.8230 C.ar  190  TRP190      0.0191
     44  CZ3      -51.3530   21.1620  -60.0840 C.ar  190  TRP190      0.0001
     45  CH2      -52.1680   22.2220  -60.5030 C.ar  190  TRP190      0.0015
     46  N        -46.9990   16.8910  -63.9050 N.am  191  PRO191     -0.2729
     47  CA       -46.4410   15.5540  -63.6420 C.3   191  PRO191      0.1401
     48  C        -45.4220   15.5170  -62.5080 C.2   191  PRO191      0.2269
     49  O        -45.4090   14.5420  -61.7430 O.2   191  PRO191     -0.2865
     50  CB       -45.8250   15.1560  -64.9940 C.3   191  PRO191      0.0296
     51  CG       -45.8680   16.3960  -65.8580 C.3   191  PRO191      0.0237
     52  CD       -47.0050   17.2010  -65.3440 C.3   191  PRO191      0.0939
     53  N        -45.2010   17.9200  -59.9210 N.3   193  LEU193     -0.1231
     54  CA       -45.9760   18.2230  -58.7130 C.3   193  LEU193      0.1693
     55  C        -46.6820   16.9860  -58.1450 C.2   193  LEU193      0.2591
     56  O        -46.7750   16.8170  -56.9270 O.2   193  LEU193     -0.2718
     57  CB       -46.9960   19.3190  -59.0010 C.3   193  LEU193      0.0284
     58  CG       -46.3680   20.6970  -59.1330 C.3   193  LEU193      0.0019
     59  CD1      -47.4040   21.6450  -59.6700 C.3   193  LEU193      0.0001
     60  CD2      -45.9200   21.1430  -57.7700 C.3   193  LEU193      0.0001
     61  N        -47.1930   16.1140  -59.0100 N.am  194  ALA194     -0.1980
     62  CA       -47.7020   14.8200  -58.5620 C.3   194  ALA194      0.1597
     63  C        -46.7290   14.0990  -57.6460 C.2   194  ALA194      0.2287
     64  O        -47.1480   13.3250  -56.7770 O.2   194  ALA194     -0.2864
     65  CB       -47.9770   13.9130  -59.7610 C.3   194  ALA194      0.0319
     66  N        -45.5200   17.1420  -54.2890 N.3   197  ALA197     -0.1231
     67  CA       -46.5520   17.4260  -53.3030 C.3   197  ALA197      0.1679
     68  C        -46.6580   16.3420  -52.2290 C.2   197  ALA197      0.2434
     69  O        -46.5810   16.6730  -51.0380 O.2   197  ALA197     -0.2733
     70  CB       -47.9040   17.6440  -53.9990 C.3   197  ALA197      0.0304
     71  N        -46.8400   15.0530  -52.5680 N.am  198  PRO198     -0.2729
     72  CA       -46.9430   14.0400  -51.4940 C.3   198  PRO198      0.1401
     73  C        -45.7220   13.9680  -50.5990 C.2   198  PRO198      0.2269
     74  O        -45.8620   13.7860  -49.3800 O.2   198  PRO198     -0.2865
     75  CB       -47.1670   12.7270  -52.2590 C.3   198  PRO198      0.0296
     76  CG       -46.8200   13.0170  -53.6630 C.3   198  PRO198      0.0237
     77  CD       -47.1380   14.4580  -53.8820 C.3   198  PRO198      0.0939
     78  N        -43.8060   16.6230  -49.8120 N.3   200  VAL200     -0.1231
     79  CA       -43.9690   17.7690  -48.9190 C.3   200  VAL200      0.1692
     80  C        -45.0900   17.5130  -47.9280 C.2   200  VAL200      0.2591
     81  O        -44.9650   17.8270  -46.7410 O.2   200  VAL200     -0.2718
     82  CB       -44.2150   19.0560  -49.7300 C.3   200  VAL200      0.0266
     83  CG1      -44.3760   20.2610  -48.8130 C.3   200  VAL200      0.0020
     84  CG2      -43.0920   19.2770  -50.7690 C.3   200  VAL200      0.0020
     85  N        -46.1930   16.9140  -48.3820 N.am  201  ALA201     -0.1980
     86  CA       -47.2800   16.6490  -47.4400 C.3   201  ALA201      0.1597
     87  C        -46.8840   15.5740  -46.4350 C.2   201  ALA201      0.2287
     88  O        -47.2510   15.6590  -45.2570 O.2   201  ALA201     -0.2864
     89  CB       -48.5580   16.2640  -48.1780 C.3   201  ALA201      0.0319
@<TRIPOS>BOND
     1    16    14   ar
     2    14    13    1
     3    14    15   ar
     4    13    10    1
     5    10    11    1
     6    10     9    1
     7    11    12    2
     8     9     3   am
     9     1     2    1
    10     5     2    1
    11     5     6    1
    12     3     2    1
    13     3     4    2
    14     8     6    1
    15    51    52    1
    16    51    50    1
    17    52    46    1
    18     6     7    1
    19    50    47    1
    20    38    40   ar
    21    38    37   ar
    22    40    41   ar
    23    46    47    1
    24    46    34   am
    25    32    33    1
    26    36    37    1
    27    36    33    1
    28    47    48    1
    29    37    39   ar
    30    33    34    1
    31    34    35    2
    32    41    39   ar
    33    41    43   ar
    34    48    49    2
    35    39    42   ar
    36    43    45   ar
    37    42    44   ar
    38    45    44   ar
    39    53    54    1
    40    65    62    1
    41    59    58    1
    42    58    57    1
    43    58    60    1
    44    61    62    1
    45    61    55   am
    46    57    54    1
    47    54    55    1
    48    62    63    1
    49    55    56    2
    50    17    18    1
    51    63    64    2
    52    21    22    1
    53    21    23    1
    54    21    18    1
    55    18    19    1
    56    19    20    2
    57    66    67    1
    58    30    29    1
    59    70    67    1
    60    77    76    1
    61    77    71    1
    62    76    75    1
    63    67    68    1
    64    29    28    1
    65    29    31    1
    66    28    25    1
    67    71    68   am
    68    71    72    1
    69    24    25    1
    70    75    72    1
    71    68    69    2
    72    25    26    1
    73    72    73    1
    74    26    27    2
    75    84    82    1
    76    73    74    2
    77    78    79    1
    78    82    79    1
    79    82    83    1
    80    79    80    1
    81    85    80   am
    82    85    86    1
    83    89    86    1
    84    80    81    2
    85    86    87    1
    86    87    88    2
