@<TRIPOS>MOLECULE
tmp/5b5fD00.pdb
 145 137 0 0 0
SMALL
GASTEIGER

@<TRIPOS>ATOM
      1  N         -6.0190  -16.0690   16.0950 N.3     8  ASN8       -0.1240
      2  CA        -4.7640  -16.8050   16.1180 C.3     8  ASN8        0.1653
      3  C         -4.8020  -17.8620   17.1500 C.2     8  ASN8        0.2266
      4  O         -5.8370  -18.1220   17.7750 O.2     8  ASN8       -0.2867
      5  CB        -3.4870  -15.9110   16.2440 C.3     8  ASN8        0.1155
      6  CG        -3.2210  -15.4430   17.6690 C.2     8  ASN8        0.2627
      7  OD1       -4.0380  -15.6200   18.5600 O.2     8  ASN8       -0.2716
      8  ND2       -2.0960  -14.8950   17.8860 N.am    8  ASN8       -0.0877
      9  N         -3.4570  -18.0130   19.9980 N.3    10  LEU10      -0.1245
     10  CA        -3.1630  -17.4780   21.3420 C.3    10  LEU10       0.1561
     11  C         -4.2020  -16.4610   21.8670 C.2    10  LEU10       0.2260
     12  O         -3.8810  -15.6700   22.7520 O.2    10  LEU10      -0.2867
     13  CB        -1.7800  -16.7990   21.3270 C.3    10  LEU10       0.0270
     14  CG        -0.5410  -17.6820   21.1940 C.3    10  LEU10       0.0019
     15  CD1        0.7050  -16.7960   21.1810 C.3    10  LEU10       0.0001
     16  CD2       -0.4980  -18.7190   22.3140 C.3    10  LEU10       0.0001
     17  N         -5.8510  -13.9250   20.1820 N.3    12  SER12      -0.1217
     18  CA        -5.8940  -12.5770   19.5920 C.3    12  SER12       0.1889
     19  C         -6.8040  -12.6640   18.3800 C.2    12  SER12       0.2288
     20  O         -6.9520  -13.7130   17.7650 O.2    12  SER12      -0.2866
     21  CB        -4.5350  -12.0730   19.1480 C.3    12  SER12       0.2089
     22  OG        -3.6960  -11.7900   20.2710 O.3    12  SER12      -0.2183
     23  N         -6.7560   -4.9170   15.3090 N.3    28  TYR28      -0.1241
     24  CA        -6.1850   -6.0820   15.9820 C.3    28  TYR28       0.1605
     25  C         -6.4530   -5.9230   17.4470 C.2    28  TYR28       0.2264
     26  O         -6.2410   -4.8600   17.9740 O.2    28  TYR28      -0.2867
     27  CB        -4.6820   -6.1640   15.6780 C.3    28  TYR28       0.0534
     28  CG        -4.0430   -7.5380   15.8780 C.ar   28  TYR28      -0.0201
     29  CD1       -3.5820   -7.9330   17.1230 C.ar   28  TYR28      -0.0009
     30  CD2       -3.9130   -8.3820   14.8170 C.ar   28  TYR28      -0.0009
     31  CE1       -2.9880   -9.1450   17.2890 C.ar   28  TYR28       0.0417
     32  CE2       -3.3490   -9.6510   14.9470 C.ar   28  TYR28       0.0417
     33  CZ        -2.8870  -10.0210   16.1840 C.ar   28  TYR28       0.1957
     34  OH        -2.3180  -11.2540   16.3430 O.3    28  TYR28      -0.2866
     35  N         -7.4040   -8.2090   21.5450 N.3    30  SER30      -0.1217
     36  CA        -7.3950   -9.4150   22.4240 C.3    30  SER30       0.1889
     37  C         -8.7290  -10.2250   22.2770 C.2    30  SER30       0.2288
     38  O         -9.7390   -9.7090   21.7920 O.2    30  SER30      -0.2866
     39  CB        -7.1580   -9.0330   23.8890 C.3    30  SER30       0.2089
     40  OG        -8.3330   -8.4410   24.4930 O.3    30  SER30      -0.2183
     41  N         -7.1820   -2.9170   24.3850 N.3    37  SER37      -0.1217
     42  CA        -6.4650   -4.0330   23.7060 C.3    37  SER37       0.1889
     43  C         -6.5360   -3.9360   22.1860 C.2    37  SER37       0.2288
     44  O         -6.0410   -4.8040   21.4930 O.2    37  SER37      -0.2866
     45  CB        -7.0800   -5.4120   24.0930 C.3    37  SER37       0.2089
     46  OG        -8.2720   -5.7530   23.2820 O.3    37  SER37      -0.2183
     47  N         -6.0180   -2.0470   18.4300 N.3    39  TYR39      -0.1241
     48  CA        -5.0460   -1.2140   17.6830 C.3    39  TYR39       0.1605
     49  C         -5.4210   -1.2520   16.2060 C.2    39  TYR39       0.2264
     50  O         -5.9340   -2.2470   15.6640 O.2    39  TYR39      -0.2867
     51  CB        -3.6380   -1.8010   17.8270 C.3    39  TYR39       0.0534
     52  CG        -3.1960   -1.9220   19.2770 C.ar   39  TYR39      -0.0201
     53  CD1       -3.5730   -2.9890   20.0420 C.ar   39  TYR39      -0.0009
     54  CD2       -2.4020   -0.9410   19.8900 C.ar   39  TYR39      -0.0009
     55  CE1       -3.1620   -3.1040   21.3410 C.ar   39  TYR39       0.0417
     56  CE2       -2.0060   -1.0200   21.2430 C.ar   39  TYR39       0.0417
     57  CZ        -2.4040   -2.1340   21.9490 C.ar   39  TYR39       0.1957
     58  OH        -1.9970   -2.2660   23.2500 O.3    39  TYR39      -0.2866
     59  N          1.9610   -0.6730   18.0990 N.3    64  TRP64      -0.1241
     60  CA         1.3560   -0.9500   19.3670 C.3    64  TRP64       0.1605
     61  C          1.1330    0.3080   20.2700 C.2    64  TRP64       0.2264
     62  O          1.4920    0.3710   21.4550 O.2    64  TRP64      -0.2867
     63  CB         2.1750   -2.0400   20.1000 C.3    64  TRP64       0.0550
     64  CG         2.2300   -3.2910   19.3370 C.ar   64  TRP64       0.0003
     65  CD1        3.3150   -3.8140   18.6400 C.ar   64  TRP64       0.0946
     66  CD2        1.1360   -4.2040   19.1200 C.ar   64  TRP64       0.0152
     67  NE1        2.9390   -4.9950   18.0550 N.ar   64  TRP64      -0.2442
     68  CE2        1.6190   -5.2450   18.2930 C.ar   64  TRP64       0.0810
     69  CE3       -0.2070   -4.2300   19.5100 C.ar   64  TRP64       0.0012
     70  CZ2        0.8370   -6.3050   17.9070 C.ar   64  TRP64       0.0191
     71  CZ3       -0.9710   -5.3120   19.1060 C.ar   64  TRP64       0.0001
     72  CH2       -0.4610   -6.3260   18.3290 C.ar   64  TRP64       0.0015
     73  N         -2.4050    3.2020   25.6090 N.3    69  ARG69      -0.1245
     74  CA        -1.1910    2.4010   25.8110 C.3    69  ARG69       0.1563
     75  C         -0.1910    2.7010   24.6710 C.2    69  ARG69       0.2260
     76  O         -0.6290    2.9610   23.5450 O.2    69  ARG69      -0.2867
     77  CB        -1.5670    0.9320   25.7500 C.3    69  ARG69       0.0307
     78  CG        -1.6970    0.2950   27.0860 C.3    69  ARG69       0.0489
     79  CD        -1.4500   -1.1660   26.8940 C.3    69  ARG69       0.2205
     80  NE        -2.6470   -1.8900   26.5630 N.pl3  69  ARG69      -0.0865
     81  CZ        -2.8520   -3.1690   26.8470 C.cat  69  ARG69       0.5346
     82  NH1       -1.9260   -3.9120   27.4490 N.pl3  69  ARG69       0.1354
     83  NH2       -3.9730   -3.7260   26.4690 N.pl3  69  ARG69       0.1354
     84  N          3.5240    0.7850   23.5810 N.3    71  ALA71      -0.1245
     85  CA         4.6430   -0.0900   23.7410 C.3    71  ALA71       0.1562
     86  C          5.9010    0.2830   22.9450 C.2    71  ALA71       0.2260
     87  O          6.9300   -0.4060   23.0140 O.2    71  ALA71      -0.2867
     88  CB         4.2250   -1.5240   23.4360 C.3    71  ALA71       0.0290
     89  N          6.5760    0.0310   19.7230 N.3    73  SER73      -0.1217
     90  CA         6.9630   -1.1060   18.9320 C.3    73  SER73       0.1889
     91  C          5.9230   -1.3010   17.8310 C.2    73  SER73       0.2288
     92  O          4.8270   -0.7480   17.9030 O.2    73  SER73      -0.2866
     93  CB         7.0200   -2.2950   19.8110 C.3    73  SER73       0.2089
     94  OG         5.8440   -2.6550   20.4640 O.3    73  SER73      -0.2183
     95  N          4.5160   -4.6130   15.0100 N.3    75  THR75      -0.1218
     96  CA         4.6070   -5.9270   14.4190 C.3    75  THR75       0.1862
     97  C          4.1930   -5.8500   12.9540 C.2    75  THR75       0.2287
     98  O          3.1810   -5.2370   12.6370 O.2    75  THR75      -0.2866
     99  CB         3.7660   -6.9860   15.1240 C.3    75  THR75       0.1770
    100  OG1        4.1880   -7.0270   16.4940 O.3    75  THR75      -0.2211
    101  CG2        3.8500   -8.3430   14.5170 C.3    75  THR75       0.0375
    102  N          3.1830   -8.7400    9.9780 N.3    77  TRP77      -0.1241
    103  CA         2.8770  -10.1070    9.5840 C.3    77  TRP77       0.1605
    104  C          2.9400  -10.2280    8.1140 C.2    77  TRP77       0.2264
    105  O          2.3580   -9.4260    7.3690 O.2    77  TRP77      -0.2867
    106  CB         1.4850  -10.5440   10.0210 C.3    77  TRP77       0.0550
    107  CG         1.2350  -10.6560   11.4940 C.ar   77  TRP77       0.0003
    108  CD1        1.1190  -11.8150   12.1760 C.ar   77  TRP77       0.0946
    109  CD2        0.9660   -9.5810   12.4250 C.ar   77  TRP77       0.0152
    110  NE1        0.8140  -11.5350   13.4840 N.ar   77  TRP77      -0.2442
    111  CE2        0.6580  -10.1840   13.6490 C.ar   77  TRP77       0.0810
    112  CE3        0.8840   -8.1780   12.3310 C.ar   77  TRP77       0.0012
    113  CZ2        0.2900   -9.4320   14.7610 C.ar   77  TRP77       0.0191
    114  CZ3        0.4960   -7.4730   13.4490 C.ar   77  TRP77       0.0001
    115  CH2        0.2330   -8.0880   14.6290 C.ar   77  TRP77       0.0015
    116  N          6.1330  -13.2590   11.4410 N.3    93  TRP93      -0.1241
    117  CA         6.0560  -11.8700   11.8950 C.3    93  TRP93       0.1605
    118  C          7.4090  -11.3900   12.4320 C.2    93  TRP93       0.2264
    119  O          8.2160  -12.1800   12.9290 O.2    93  TRP93      -0.2867
    120  CB         4.8940  -11.6490   12.8680 C.3    93  TRP93       0.0550
    121  CG         4.8950  -12.5250   14.0850 C.ar   93  TRP93       0.0003
    122  CD1        4.0540  -13.5970   14.3240 C.ar   93  TRP93       0.0946
    123  CD2        5.6850  -12.3710   15.3030 C.ar   93  TRP93       0.0152
    124  NE1        4.3030  -14.1100   15.5540 N.ar   93  TRP93      -0.2442
    125  CE2        5.3100  -13.3850   16.1640 C.ar   93  TRP93       0.0810
    126  CE3        6.7030  -11.4730   15.6920 C.ar   93  TRP93       0.0012
    127  CZ2        5.8890  -13.5440   17.4550 C.ar   93  TRP93       0.0191
    128  CZ3        7.2610  -11.6290   16.9210 C.ar   93  TRP93       0.0001
    129  CH2        6.8910  -12.6670   17.7720 C.ar   93  TRP93       0.0015
    130  N          8.6570   -8.2020   15.1250 N.3    95  LEU95      -0.1245
    131  CA         8.1740   -7.2150   16.0760 C.3    95  LEU95       0.1561
    132  C          9.3660   -6.3940   16.5010 C.2    95  LEU95       0.2260
    133  O         10.2460   -6.9450   17.1930 O.2    95  LEU95      -0.2867
    134  CB         7.5470   -7.9640   17.2600 C.3    95  LEU95       0.0270
    135  CG         7.4490   -7.1630   18.5980 C.3    95  LEU95       0.0019
    136  CD1        6.7060   -5.8600   18.4660 C.3    95  LEU95       0.0001
    137  CD2        6.7130   -8.0630   19.5880 C.3    95  LEU95       0.0001
    138  N          2.4430  -16.9580   13.3230 N.3   113  ASP113     -0.1239
    139  CA         1.0360  -17.0560   13.7920 C.3   113  ASP113      0.1674
    140  C          0.2580  -17.7320   12.6520 C.2   113  ASP113      0.2266
    141  O          0.4180  -17.3850   11.4890 O.2   113  ASP113     -0.2867
    142  CB         0.3660  -15.6480   13.9910 C.3   113  ASP113      0.1410
    143  CG         0.8750  -14.8290   15.1990 C.2   113  ASP113      0.3668
    144  OD1        1.5540  -15.4290   16.0680 O.co2 113  ASP113     -0.2456
    145  OD2        0.5540  -13.5860   15.3060 O.co2 113  ASP113     -0.2456
@<TRIPOS>BOND
     1   105   104    2
     2   104   103    1
     3   103   102    1
     4   103   106    1
     5   106   107    1
     6   116   117    1
     7   141   140    2
     8   107   108   ar
     9   107   109   ar
    10   117   118    1
    11   117   120    1
    12   108   110   ar
    13   112   109   ar
    14   112   114   ar
    15   109   111   ar
    16   118   119    2
    17    98    97    2
    18   140   139    1
    19   120   121    1
    20    97    96    1
    21   138   139    1
    22   114   115   ar
    23   110   111   ar
    24   111   113   ar
    25   139   142    1
    26   142   143    1
    27   121   122   ar
    28   121   123   ar
    29   122   124   ar
    30    96    95    1
    31    96    99    1
    32   101    99    1
    33   115   113   ar
    34    30    32   ar
    35    30    28   ar
    36    32    33   ar
    37    99   100    1
    38   130   131    1
    39   143   145   ar
    40   143   144   ar
    41   123   126   ar
    42   123   125   ar
    43    23    24    1
    44   124   125   ar
    45    50    49    2
    46    27    28    1
    47    27    24    1
    48   126   128   ar
    49    28    29   ar
    50    24    25    1
    51   131   132    1
    52   131   134    1
    53     1     2    1
    54     2     5    1
    55     2     3    1
    56   125   127   ar
    57    33    34    1
    58    33    31   ar
    59    49    48    1
    60     5     6    1
    61   132   133    2
    62   128   129   ar
    63    29    31   ar
    64     3     4    2
    65   134   135    1
    66    25    26    2
    67   127   129   ar
    68     6     8   am
    69     6     7    2
    70    48    51    1
    71    48    47    1
    72    20    19    2
    73    51    52    1
    74    91    92    2
    75    91    90    1
    76    70    68   ar
    77    70    72   ar
    78    67    68   ar
    79    67    65   ar
    80    59    60    1
    81    68    66   ar
    82    72    71   ar
    83    19    18    1
    84   136   135    1
    85   135   137    1
    86    65    64   ar
    87    90    89    1
    88    90    93    1
    89    71    69   ar
    90    66    64   ar
    91    66    69   ar
    92    21    18    1
    93    21    22    1
    94    52    54   ar
    95    52    53   ar
    96    64    63    1
    97    60    63    1
    98    60    61    1
    99    18    17    1
   100    93    94    1
   101    54    56   ar
   102     9    10    1
   103    53    55   ar
   104    61    62    2
   105    15    14    1
   106    14    13    1
   107    14    16    1
   108    56    57   ar
   109    13    10    1
   110    55    57   ar
   111    10    11    1
   112    44    43    2
   113    35    36    1
   114    38    37    2
   115    11    12    2
   116    57    58    1
   117    43    42    1
   118    37    36    1
   119    36    39    1
   120    86    87    2
   121    86    85    1
   122    46    45    1
   123    88    85    1
   124    76    75    2
   125    84    85    1
   126    42    45    1
   127    42    41    1
   128    39    40    1
   129    75    74    1
   130    73    74    1
   131    77    74    1
   132    77    78    1
   133    83    81    1
   134    80    81    2
   135    80    79    1
   136    81    82    1
   137    79    78    1
