@<TRIPOS>MOLECULE
tmp/5b5kA00.pdb
 100 97 0 0 0
SMALL
GASTEIGER

@<TRIPOS>ATOM
      1  N         25.1650   33.7220   27.2780 N.3     7  PHE7       -0.1241
      2  CA        25.2890   34.5570   26.0870 C.3     7  PHE7        0.1605
      3  C         26.6490   35.2430   26.0300 C.2     7  PHE7        0.2264
      4  O         27.2140   35.4250   24.9450 O.2     7  PHE7       -0.2867
      5  CB        24.1660   35.5960   26.0500 C.3     7  PHE7        0.0534
      6  CG        22.8090   35.0330   25.7090 C.ar    7  PHE7       -0.0203
      7  CD1       22.6770   33.9080   24.9090 C.ar    7  PHE7       -0.0042
      8  CD2       21.6600   35.6440   26.1840 C.ar    7  PHE7       -0.0042
      9  CE1       21.4310   33.4030   24.5970 C.ar    7  PHE7       -0.0003
     10  CE2       20.4110   35.1430   25.8730 C.ar    7  PHE7       -0.0003
     11  CZ        20.2980   34.0210   25.0800 C.ar    7  PHE7       -0.0000
     12  N         29.3450   32.3350   25.1940 N.3    10  ASP10      -0.1225
     13  CA        29.2020   32.0270   23.7740 C.3    10  ASP10       0.1805
     14  C         29.7180   33.1770   22.9190 C.2    10  ASP10       0.2597
     15  O         30.4240   32.9600   21.9250 O.2    10  ASP10      -0.2718
     16  CB        27.7370   31.7340   23.4430 C.3    10  ASP10       0.1424
     17  CG        27.2180   30.4730   24.1140 C.2    10  ASP10       0.3668
     18  OD1       28.0230   29.5590   24.3950 O.co2  10  ASP10      -0.2456
     19  OD2       25.9940   30.3950   24.3530 O.co2  10  ASP10      -0.2456
     20  N         29.3790   34.4110   23.3000 N.am   11  ALA11      -0.1979
     21  CA        29.8250   35.5790   22.5490 C.3    11  ALA11       0.1597
     22  C         31.3430   35.6440   22.4800 C.2    11  ALA11       0.2287
     23  O         31.9090   35.9590   21.4280 O.2    11  ALA11      -0.2864
     24  CB        29.2640   36.8500   23.1850 C.3    11  ALA11       0.0319
     25  N         32.6490   32.9150   20.0180 N.3    14  THR14      -0.1203
     26  CA        32.5770   33.3420   18.6230 C.3    14  THR14       0.1994
     27  C         33.5800   34.4550   18.3390 C.2    14  THR14       0.2617
     28  O         34.1890   34.4950   17.2630 O.2    14  THR14      -0.2717
     29  CB        31.1590   33.8050   18.2910 C.3    14  THR14       0.1784
     30  OG1       30.2410   32.7140   18.4480 O.3    14  THR14      -0.2211
     31  CG2       31.0780   34.3330   16.8640 C.3    14  THR14       0.0376
     32  N         33.7520   35.3690   19.2940 N.am   15  PHE15      -0.1975
     33  CA        34.7070   36.4620   19.1430 C.3    15  PHE15       0.1639
     34  C         36.1200   35.9300   18.9290 C.2    15  PHE15       0.2290
     35  O         36.8410   36.3860   18.0330 O.2    15  PHE15      -0.2864
     36  CB        34.6340   37.3620   20.3800 C.3    15  PHE15       0.0560
     37  CG        35.6950   38.4200   20.4370 C.ar   15  PHE15      -0.0200
     38  CD1       35.5890   39.5710   19.6730 C.ar   15  PHE15      -0.0042
     39  CD2       36.7880   38.2770   21.2790 C.ar   15  PHE15      -0.0042
     40  CE1       36.5630   40.5490   19.7360 C.ar   15  PHE15      -0.0003
     41  CE2       37.7610   39.2540   21.3440 C.ar   15  PHE15      -0.0003
     42  CZ        37.6490   40.3910   20.5720 C.ar   15  PHE15      -0.0000
     43  N         35.8080   36.1640   14.9650 N.3    19  TYR19      -0.1241
     44  CA        35.9880   37.5870   14.7020 C.3    19  TYR19       0.1605
     45  C         37.4360   38.0460   14.8540 C.2    19  TYR19       0.2264
     46  O         37.8550   38.9770   14.1570 O.2    19  TYR19      -0.2867
     47  CB        35.0690   38.3860   15.6260 C.3    19  TYR19       0.0534
     48  CG        33.5990   38.1400   15.3640 C.ar   19  TYR19      -0.0201
     49  CD1       33.1150   38.0390   14.0670 C.ar   19  TYR19      -0.0009
     50  CD2       32.6980   38.0050   16.4110 C.ar   19  TYR19      -0.0009
     51  CE1       31.7780   37.8150   13.8190 C.ar   19  TYR19       0.0417
     52  CE2       31.3560   37.7790   16.1710 C.ar   19  TYR19       0.0417
     53  CZ        30.9020   37.6840   14.8720 C.ar   19  TYR19       0.1957
     54  OH        29.5700   37.4610   14.6150 O.3    19  TYR19      -0.2866
     55  N         23.7060   42.5530   28.3260 N.3    67  TRP67      -0.1241
     56  CA        23.3050   43.0720   27.0250 C.3    67  TRP67       0.1605
     57  C         24.1040   44.3040   26.6170 C.2    67  TRP67       0.2264
     58  O         24.3810   44.4870   25.4260 O.2    67  TRP67      -0.2867
     59  CB        21.8090   43.3590   27.0260 C.3    67  TRP67       0.0550
     60  CG        21.0270   42.1030   26.8720 C.ar   67  TRP67       0.0003
     61  CD1       20.2510   41.4960   27.8090 C.ar   67  TRP67       0.0946
     62  CD2       20.9730   41.2740   25.7070 C.ar   67  TRP67       0.0152
     63  NE1       19.7030   40.3450   27.2960 N.ar   67  TRP67      -0.2442
     64  CE2       20.1320   40.1870   26.0050 C.ar   67  TRP67       0.0810
     65  CE3       21.5500   41.3530   24.4360 C.ar   67  TRP67       0.0012
     66  CZ2       19.8550   39.1850   25.0800 C.ar   67  TRP67       0.0191
     67  CZ3       21.2720   40.3590   23.5180 C.ar   67  TRP67       0.0001
     68  CH2       20.4310   39.2900   23.8430 C.ar   67  TRP67       0.0015
     69  N         27.4400   42.8800   25.5030 N.3    70  LEU70      -0.1245
     70  CA        27.3110   42.2780   24.1810 C.3    70  LEU70       0.1561
     71  C         27.1840   43.3470   23.1030 C.2    70  LEU70       0.2260
     72  O         27.7210   43.1930   22.0000 O.2    70  LEU70      -0.2867
     73  CB        26.1090   41.3380   24.1550 C.3    70  LEU70       0.0270
     74  CG        26.2220   40.1030   25.0570 C.3    70  LEU70       0.0019
     75  CD1       24.8650   39.4320   25.2490 C.3    70  LEU70       0.0001
     76  CD2       27.2390   39.1140   24.5100 C.3    70  LEU70       0.0001
     77  N         30.7920   44.6260   22.6110 N.3    73  LEU73      -0.1231
     78  CA        31.6190   43.5950   21.9920 C.3    73  LEU73       0.1693
     79  C         31.2550   43.4200   20.5240 C.2    73  LEU73       0.2591
     80  O         32.1300   43.1830   19.6820 O.2    73  LEU73      -0.2718
     81  CB        31.4690   42.2740   22.7500 C.3    73  LEU73       0.0284
     82  CG        32.3760   41.1190   22.3130 C.3    73  LEU73       0.0019
     83  CD1       33.8500   41.4940   22.4230 C.3    73  LEU73       0.0001
     84  CD2       32.0840   39.8750   23.1420 C.3    73  LEU73       0.0001
     85  N         29.9660   43.5410   20.1970 N.am   74  LYS74      -0.1980
     86  CA        29.5650   43.5240   18.7960 C.3    74  LYS74       0.1596
     87  C         30.0610   44.7670   18.0710 C.2    74  LYS74       0.2287
     88  O         30.5080   44.6790   16.9230 O.2    74  LYS74      -0.2864
     89  CB        28.0450   43.4100   18.6690 C.3    74  LYS74       0.0298
     90  CG        27.5270   43.6330   17.2430 C.3    74  LYS74       0.0038
     91  CD        28.2010   42.7160   16.2190 C.3    74  LYS74       0.0206
     92  CE        27.9300   41.2500   16.5040 C.3    74  LYS74       0.1093
     93  NZ        28.4560   40.3680   15.4240 N.3    74  LYS74      -0.1314
     94  N         33.5460   44.1040   17.2920 N.3    77  THR77      -0.1218
     95  CA        33.5590   43.0790   16.2550 C.3    77  THR77       0.1862
     96  C         33.3320   43.6880   14.8750 C.2    77  THR77       0.2287
     97  O         33.9680   43.2830   13.8950 O.2    77  THR77      -0.2866
     98  CB        32.4940   42.0240   16.5630 C.3    77  THR77       0.1770
     99  OG1       32.9570   41.1760   17.6230 O.3    77  THR77      -0.2211
    100  CG2       32.1710   41.1730   15.3310 C.3    77  THR77       0.0375
@<TRIPOS>BOND
     1    51    49   ar
     2    51    53   ar
     3    97    96    2
     4    49    48   ar
     5    46    45    2
     6    54    53    1
     7    44    45    1
     8    44    43    1
     9    44    47    1
    10    53    52   ar
    11    96    95    1
    12   100    98    1
    13    48    47    1
    14    48    50   ar
    15    93    92    1
    16    52    50   ar
    17    91    92    1
    18    91    90    1
    19    95    98    1
    20    95    94    1
    21    98    99    1
    22    31    29    1
    23    88    87    2
    24    90    89    1
    25    28    27    2
    26    35    34    2
    27    87    86    1
    28    29    30    1
    29    29    26    1
    30    27    26    1
    31    27    32   am
    32    26    25    1
    33    89    86    1
    34    86    85    1
    35    34    33    1
    36    33    32    1
    37    33    36    1
    38    38    40   ar
    39    38    37   ar
    40    80    79    2
    41    40    42   ar
    42    85    79   am
    43    36    37    1
    44    37    39   ar
    45    79    78    1
    46    42    41   ar
    47    39    41   ar
    48    23    22    2
    49    15    14    2
    50    78    77    1
    51    78    81    1
    52    72    71    2
    53    82    83    1
    54    82    81    1
    55    82    84    1
    56    22    21    1
    57    21    24    1
    58    21    20    1
    59    14    20   am
    60    14    13    1
    61    71    70    1
    62    16    13    1
    63    16    17    1
    64    67    68   ar
    65    67    65   ar
    66    13    12    1
    67    68    66   ar
    68    17    19   ar
    69    17    18   ar
    70    73    70    1
    71    73    74    1
    72    70    69    1
    73    65    62   ar
    74    76    74    1
    75     9     7   ar
    76     9    11   ar
    77     7     6   ar
    78     4     3    2
    79    74    75    1
    80    66    64   ar
    81    11    10   ar
    82    58    57    2
    83    62    64   ar
    84    62    60   ar
    85     6     5    1
    86     6     8   ar
    87    10     8   ar
    88    64    63   ar
    89     3     2    1
    90     5     2    1
    91     2     1    1
    92    57    56    1
    93    60    59    1
    94    60    61   ar
    95    56    59    1
    96    56    55    1
    97    63    61   ar
