@<TRIPOS>MOLECULE
tmp/5b5mE03.pdb
 83 79 0 0 0
SMALL
GASTEIGER

@<TRIPOS>ATOM
      1  N        -74.5580  -49.7350  430.8980 N.3    23  ILE23      -0.1231
      2  CA       -73.5950  -50.6480  430.3340 C.3    23  ILE23       0.1692
      3  C        -74.1390  -51.1680  429.0220 C.2    23  ILE23       0.2591
      4  O        -73.4560  -51.0780  428.0200 O.2    23  ILE23      -0.2718
      5  CB       -73.2750  -51.8200  431.2730 C.3    23  ILE23       0.0266
      6  CG1      -72.3820  -51.3500  432.4210 C.3    23  ILE23       0.0019
      7  CG2      -72.5520  -52.9040  430.5150 C.3    23  ILE23       0.0020
      8  CD1      -72.1490  -52.3920  433.4940 C.3    23  ILE23       0.0001
      9  N        -75.3840  -51.6360  428.9990 N.am   24  VAL24      -0.1980
     10  CA       -75.9460  -52.1330  427.7360 C.3    24  VAL24       0.1595
     11  C        -75.9500  -51.1170  426.5750 C.2    24  VAL24       0.2287
     12  O        -75.4520  -51.4150  425.4810 O.2    24  VAL24      -0.2864
     13  CB       -77.3710  -52.6550  427.9360 C.3    24  VAL24       0.0276
     14  CG1      -78.0380  -52.9160  426.5940 C.3    24  VAL24       0.0022
     15  CG2      -77.3240  -53.9280  428.7420 C.3    24  VAL24       0.0022
     16  N        -72.2980  -50.0710  425.5670 N.3    27  GLN27      -0.1231
     17  CA       -71.5980  -51.1940  424.9270 C.3    27  GLN27       0.1698
     18  C        -72.0930  -51.4160  423.5100 C.2    27  GLN27       0.2592
     19  O        -71.2910  -51.6840  422.6070 O.2    27  GLN27      -0.2718
     20  CB       -71.7490  -52.4990  425.7250 C.3    27  GLN27       0.0381
     21  CG       -70.8770  -52.6270  426.9630 C.3    27  GLN27       0.0905
     22  CD       -69.4140  -52.8320  426.6330 C.2    27  GLN27       0.2608
     23  OE1      -68.9730  -53.9570  426.4000 O.2    27  GLN27      -0.2717
     24  NE2      -68.6500  -51.7490  426.6230 N.am   27  GLN27      -0.0878
     25  N        -73.4040  -51.3290  423.3060 N.am   28  ILE28      -0.1980
     26  CA       -73.9150  -51.4950  421.9540 C.3    28  ILE28       0.1595
     27  C        -73.3310  -50.4020  421.0660 C.2    28  ILE28       0.2287
     28  O        -72.8890  -50.6580  419.9340 O.2    28  ILE28      -0.2864
     29  CB       -75.4330  -51.4590  421.9040 C.3    28  ILE28       0.0276
     30  CG1      -75.9880  -52.8060  422.3410 C.3    28  ILE28       0.0022
     31  CG2      -75.8900  -51.2420  420.4970 C.3    28  ILE28       0.0022
     32  CD1      -77.4860  -52.8310  422.3940 C.3    28  ILE28       0.0001
     33  N        -69.6510  -50.9040  420.3630 N.3    31  GLY31      -0.1225
     34  CA       -69.6010  -51.9680  419.3780 C.3    31  GLY31       0.1811
     35  C        -69.8120  -51.4890  417.9520 C.2    31  GLY31       0.2280
     36  O        -68.9820  -51.7380  417.0670 O.2    31  GLY31      -0.2866
     37  N        -66.7640  -51.1530  415.1880 N.3    35  HIS35      -0.1241
     38  CA       -67.0120  -51.8580  413.9300 C.3    35  HIS35       0.1621
     39  C        -66.7680  -50.9520  412.7360 C.2    35  HIS35       0.2264
     40  O        -66.0630  -51.3090  411.7940 O.2    35  HIS35      -0.2867
     41  CB       -68.4400  -52.3710  413.8650 C.3    35  HIS35       0.0745
     42  CG       -68.5880  -53.7720  414.3490 C.ar   35  HIS35       0.0817
     43  ND1      -68.7680  -54.0820  415.6800 N.ar   35  HIS35      -0.2268
     44  CD2      -68.5160  -54.9520  413.6930 C.ar   35  HIS35       0.1154
     45  CE1      -68.8480  -55.3920  415.8160 C.ar   35  HIS35       0.1986
     46  NE2      -68.6880  -55.9420  414.6270 N.ar   35  HIS35      -0.2212
     47  N        -63.0480  -49.9670  412.2460 N.3    38  VAL38      -0.1245
     48  CA       -62.3300  -51.0410  411.5690 C.3    38  VAL38       0.1561
     49  C        -62.7080  -51.1980  410.0670 C.2    38  VAL38       0.2260
     50  O        -61.8300  -51.4460  409.2340 O.2    38  VAL38      -0.2867
     51  CB       -62.5310  -52.3790  412.3280 C.3    38  VAL38       0.0252
     52  CG1      -62.1030  -53.5630  411.4750 C.3    38  VAL38       0.0019
     53  CG2      -61.7310  -52.3630  413.6210 C.3    38  VAL38       0.0019
     54  N        -57.7960  -52.6900  407.8760 N.3    43  LEU43      -0.1245
     55  CA       -58.2450  -53.8790  408.6010 C.3    43  LEU43       0.1561
     56  C        -59.6520  -54.3120  408.1920 C.2    43  LEU43       0.2260
     57  O        -60.2130  -55.2550  408.7580 O.2    43  LEU43      -0.2867
     58  CB       -58.2230  -53.6150  410.1030 C.3    43  LEU43       0.0270
     59  CG       -56.8500  -53.5800  410.7720 C.3    43  LEU43       0.0019
     60  CD1      -56.9560  -53.0600  412.2090 C.3    43  LEU43       0.0001
     61  CD2      -56.1810  -54.9450  410.7210 C.3    43  LEU43       0.0001
     62  N        -62.8340  -55.9540  406.4810 N.3    45  TRP45      -0.1227
     63  CA       -63.0240  -57.3930  406.2670 C.3    45  TRP45       0.1737
     64  C        -64.1480  -57.7320  405.2870 C.2    45  TRP45       0.2595
     65  O        -64.5090  -58.8970  405.1380 O.2    45  TRP45      -0.2718
     66  CB       -63.3530  -58.1280  407.5690 C.3    45  TRP45       0.0564
     67  CG       -64.7580  -57.8660  408.0780 C.ar   45  TRP45       0.0003
     68  CD1      -65.8870  -58.5690  407.7490 C.ar   45  TRP45       0.0946
     69  CD2      -65.1620  -56.9200  409.0740 C.ar   45  TRP45       0.0152
     70  NE1      -66.9700  -58.0760  408.4240 N.ar   45  TRP45      -0.2442
     71  CE2      -66.5520  -57.0720  409.2560 C.ar   45  TRP45       0.0810
     72  CE3      -64.4900  -55.9460  409.8160 C.ar   45  TRP45       0.0012
     73  CZ2      -67.2820  -56.2770  410.1420 C.ar   45  TRP45       0.0191
     74  CZ3      -65.2170  -55.1660  410.7050 C.ar   45  TRP45       0.0001
     75  CH2      -66.5980  -55.3410  410.8630 C.ar   45  TRP45       0.0015
     76  N        -64.7120  -56.7300  404.6290 N.am   46  LEU46      -0.1980
     77  CA       -65.8720  -56.9490  403.7680 C.3    46  LEU46       0.1596
     78  C        -65.4600  -56.6480  402.3350 C.2    46  LEU46       0.2287
     79  O        -65.7180  -57.4260  401.4150 O.2    46  LEU46      -0.2864
     80  CB       -67.0610  -56.0840  404.2080 C.3    46  LEU46       0.0297
     81  CG       -67.8320  -56.4580  405.4900 C.3    46  LEU46       0.0022
     82  CD1      -68.9610  -55.4650  405.7510 C.3    46  LEU46       0.0001
     83  CD2      -68.3800  -57.8810  405.4470 C.3    46  LEU46       0.0001
@<TRIPOS>BOND
     1    79    78    2
     2    78    77    1
     3    77    80    1
     4    77    76    1
     5    80    81    1
     6    76    64   am
     7    65    64    2
     8    64    63    1
     9    83    81    1
    10    81    82    1
    11    63    62    1
    12    63    66    1
    13    66    67    1
    14    68    67   ar
    15    68    70   ar
    16    54    55    1
    17    67    69   ar
    18    56    55    1
    19    56    57    2
    20    70    71   ar
    21    55    58    1
    22    69    71   ar
    23    69    72   ar
    24    50    49    2
    25    71    73   ar
    26    72    74   ar
    27    49    48    1
    28    58    59    1
    29    73    75   ar
    30    74    75   ar
    31    61    59    1
    32    59    60    1
    33    52    51    1
    34    48    47    1
    35    48    51    1
    36    40    39    2
    37    51    53    1
    38    39    38    1
    39    44    42   ar
    40    44    46   ar
    41    41    38    1
    42    41    42    1
    43    38    37    1
    44    42    43   ar
    45    46    45   ar
    46    43    45   ar
    47    36    35    2
    48    35    34    1
    49    34    33    1
    50    28    27    2
    51    31    29    1
    52    27    26    1
    53    29    26    1
    54    29    30    1
    55    26    25    1
    56    30    32    1
    57    19    18    2
    58    25    18   am
    59    18    17    1
    60    17    16    1
    61    17    20    1
    62    12    11    2
    63    20    21    1
    64    23    22    2
    65    11    10    1
    66    14    13    1
    67    24    22   am
    68    22    21    1
    69    10    13    1
    70    10     9    1
    71    13    15    1
    72     4     3    2
    73     9     3   am
    74     3     2    1
    75     2     1    1
    76     2     5    1
    77     7     5    1
    78     5     6    1
    79     6     8    1
