@<TRIPOS>MOLECULE
tmp/5b5mK02.pdb
 82 77 0 0 0
SMALL
GASTEIGER

@<TRIPOS>ATOM
      1  N        -67.4400   -6.8860  449.7690 N.3    16  PRO16      -0.2116
      2  CA       -66.1660   -7.6120  449.7670 C.3    16  PRO16       0.1372
      3  C        -66.2410   -8.9210  448.9840 C.2    16  PRO16       0.2244
      4  O        -65.3050   -9.2720  448.2690 O.2    16  PRO16      -0.2868
      5  CB       -65.9250   -7.8720  451.2520 C.3    16  PRO16       0.0268
      6  CG       -66.5500   -6.7200  451.9140 C.3    16  PRO16       0.0207
      7  CD       -67.8090   -6.4650  451.1310 C.3    16  PRO16       0.0892
      8  N        -64.0710   -9.1400  445.6100 N.3    20  LEU20      -0.1245
      9  CA       -63.1470  -10.2650  445.5000 C.3    20  LEU20       0.1561
     10  C        -63.3820  -11.0910  444.2570 C.2    20  LEU20       0.2260
     11  O        -62.4760  -11.2800  443.4350 O.2    20  LEU20      -0.2867
     12  CB       -63.2360  -11.1680  446.7210 C.3    20  LEU20       0.0270
     13  CG       -62.3110  -10.7240  447.8450 C.3    20  LEU20       0.0019
     14  CD1      -62.2780  -11.7740  448.9520 C.3    20  LEU20       0.0001
     15  CD2      -60.9140  -10.4660  447.2880 C.3    20  LEU20       0.0001
     16  N        -62.4370   -9.1590  441.0540 N.3    23  ILE23      -0.1231
     17  CA       -61.0210   -9.1140  440.7940 C.3    23  ILE23       0.1692
     18  C        -60.5310  -10.4670  440.3010 C.2    23  ILE23       0.2591
     19  O        -59.8170  -10.5260  439.3030 O.2    23  ILE23      -0.2718
     20  CB       -60.2600   -8.6670  442.0150 C.3    23  ILE23       0.0266
     21  CG1      -60.4760   -7.1680  442.1980 C.3    23  ILE23       0.0019
     22  CG2      -58.7990   -8.9320  441.8240 C.3    23  ILE23       0.0020
     23  CD1      -59.9250   -6.6220  443.4840 C.3    23  ILE23       0.0001
     24  N        -60.9430  -11.5500  440.9580 N.am   24  VAL24      -0.1980
     25  CA       -60.5480  -12.9030  440.5290 C.3    24  VAL24       0.1595
     26  C        -60.8520  -13.1440  439.0490 C.2    24  VAL24       0.2287
     27  O        -60.0350  -13.6610  438.2810 O.2    24  VAL24      -0.2864
     28  CB       -61.2580  -13.9800  441.3570 C.3    24  VAL24       0.0276
     29  CG1      -61.0810  -15.3530  440.7200 C.3    24  VAL24       0.0022
     30  CG2      -60.7220  -13.9750  442.7570 C.3    24  VAL24       0.0022
     31  N        -61.5340  -10.7570  436.7310 N.3    26  PHE26      -0.1227
     32  CA       -60.8650   -9.7860  435.8750 C.3    26  PHE26       0.1736
     33  C        -59.4300  -10.2060  435.5820 C.2    26  PHE26       0.2595
     34  O        -58.9590  -10.1030  434.4480 O.2    26  PHE26      -0.2718
     35  CB       -60.9040   -8.4040  436.5310 C.3    26  PHE26       0.0547
     36  CG       -60.1760   -7.3460  435.7610 C.ar   26  PHE26      -0.0202
     37  CD1      -60.7800   -6.7220  434.6880 C.ar   26  PHE26      -0.0042
     38  CD2      -58.8850   -6.9810  436.0960 C.ar   26  PHE26      -0.0042
     39  CE1      -60.1070   -5.7420  433.9670 C.ar   26  PHE26      -0.0003
     40  CE2      -58.2130   -6.0070  435.3750 C.ar   26  PHE26      -0.0003
     41  CZ       -58.8240   -5.3900  434.3090 C.ar   26  PHE26      -0.0000
     42  N        -58.7430  -10.6870  436.6140 N.am   27  GLN27      -0.1979
     43  CA       -57.3630  -11.1640  436.4790 C.3    27  GLN27       0.1601
     44  C        -57.2480  -12.4950  435.7350 C.2    27  GLN27       0.2287
     45  O        -56.3710  -12.6670  434.8810 O.2    27  GLN27      -0.2864
     46  CB       -56.6900  -11.3080  437.8530 C.3    27  GLN27       0.0394
     47  CG       -56.2640  -10.0070  438.5350 C.3    27  GLN27       0.0908
     48  CD       -55.1270   -9.3040  437.8080 C.2    27  GLN27       0.2608
     49  OE1      -53.9500   -9.6310  437.9810 O.2    27  GLN27      -0.2717
     50  NE2      -55.4760   -8.3030  437.0170 N.am   27  GLN27      -0.0878
     51  N        -57.6960  -11.3930  432.1770 N.3    30  LEU30      -0.1245
     52  CA       -56.6430  -10.5250  431.6480 C.3    30  LEU30       0.1561
     53  C        -55.4030  -11.3160  431.3630 C.2    30  LEU30       0.2260
     54  O        -54.7120  -11.0820  430.3820 O.2    30  LEU30      -0.2867
     55  CB       -56.3080   -9.3920  432.6140 C.3    30  LEU30       0.0270
     56  CG       -55.2930   -8.4170  432.0110 C.3    30  LEU30       0.0019
     57  CD1      -55.9420   -7.6170  430.9220 C.3    30  LEU30       0.0001
     58  CD2      -54.6720   -7.5000  433.0410 C.3    30  LEU30       0.0001
     59  N        -55.7810  -13.0040  428.1430 N.3    33  LEU33      -0.1231
     60  CA       -55.6390  -12.0280  427.0480 C.3    33  LEU33       0.1693
     61  C        -54.1870  -11.6670  426.7380 C.2    33  LEU33       0.2591
     62  O        -53.7130  -11.8670  425.6240 O.2    33  LEU33      -0.2718
     63  CB       -56.4180  -10.7410  427.3450 C.3    33  LEU33       0.0284
     64  CG       -56.1870   -9.6420  426.3010 C.3    33  LEU33       0.0019
     65  CD1      -56.8720  -10.0280  425.0130 C.3    33  LEU33       0.0001
     66  CD2      -56.6840   -8.2800  426.7720 C.3    33  LEU33       0.0001
     67  N        -53.4910  -11.1190  427.7240 N.am   34  ILE34      -0.1980
     68  CA       -52.1090  -10.7240  427.5250 C.3    34  ILE34       0.1595
     69  C        -51.2870  -11.9320  427.1100 C.2    34  ILE34       0.2287
     70  O        -50.4210  -11.7990  426.2610 O.2    34  ILE34      -0.2864
     71  CB       -51.5150  -10.0390  428.7590 C.3    34  ILE34       0.0276
     72  CG1      -51.9770   -8.5820  428.7830 C.3    34  ILE34       0.0022
     73  CG2      -49.9980  -10.0290  428.7020 C.3    34  ILE34       0.0022
     74  CD1      -51.4330   -7.7910  429.9420 C.3    34  ILE34       0.0001
     75  N        -51.5630  -11.9800  423.6490 N.3    37  ILE37      -0.1245
     76  CA       -50.8440  -10.8410  423.0620 C.3    37  ILE37       0.1561
     77  C        -49.3960  -11.2030  422.8460 C.2    37  ILE37       0.2260
     78  O        -48.8240  -10.9300  421.8010 O.2    37  ILE37      -0.2867
     79  CB       -50.8930   -9.5930  423.9620 C.3    37  ILE37       0.0252
     80  CG1      -52.3430   -9.1400  424.1650 C.3    37  ILE37       0.0019
     81  CG2      -49.9660   -8.4820  423.4100 C.3    37  ILE37       0.0019
     82  CD1      -52.4910   -7.9520  425.0730 C.3    37  ILE37       0.0001
@<TRIPOS>BOND
     1    78    77    2
     2    77    76    1
     3    76    75    1
     4    76    79    1
     5    81    79    1
     6    79    80    1
     7    80    82    1
     8    65    64    1
     9    62    61    2
    10    70    69    2
    11    64    66    1
    12    64    63    1
    13    61    60    1
    14    61    67   am
    15    60    63    1
    16    60    59    1
    17    69    68    1
    18    68    67    1
    19    68    71    1
    20    73    71    1
    21    71    72    1
    22    72    74    1
    23    54    53    2
    24    57    56    1
    25    53    52    1
    26    52    51    1
    27    52    55    1
    28    56    55    1
    29    56    58    1
    30    39    41   ar
    31    39    37   ar
    32    41    40   ar
    33    34    33    2
    34    37    36   ar
    35    45    44    2
    36    40    38   ar
    37    33    32    1
    38    33    42   am
    39    44    43    1
    40    36    38   ar
    41    36    35    1
    42    32    35    1
    43    32    31    1
    44    43    42    1
    45    43    46    1
    46    50    48   am
    47    48    49    2
    48    48    47    1
    49    46    47    1
    50    27    26    2
    51    26    25    1
    52    19    18    2
    53    18    17    1
    54    18    24   am
    55    25    24    1
    56    25    28    1
    57    29    28    1
    58    17    16    1
    59    17    20    1
    60    28    30    1
    61    22    20    1
    62    20    21    1
    63    21    23    1
    64    11    10    2
    65    10     9    1
    66     9     8    1
    67     9    12    1
    68    12    13    1
    69    15    13    1
    70    13    14    1
    71     4     3    2
    72     3     2    1
    73     2     1    1
    74     2     5    1
    75     1     7    1
    76     7     6    1
    77     5     6    1
