@<TRIPOS>MOLECULE
tmp/5b5mE04.pdb
 82 76 0 0 0
SMALL
GASTEIGER

@<TRIPOS>ATOM
      1  N        -74.4710  -46.8950  443.8670 N.3    14  LEU14      -0.1245
      2  CA       -74.9220  -46.7150  442.4830 C.3    14  LEU14       0.1561
      3  C        -76.1170  -47.6100  442.1960 C.2    14  LEU14       0.2260
      4  O        -76.0790  -48.8050  442.4790 O.2    14  LEU14      -0.2867
      5  CB       -73.7880  -46.9880  441.4810 C.3    14  LEU14       0.0270
      6  CG       -72.4440  -46.3010  441.7500 C.3    14  LEU14       0.0019
      7  CD1      -71.4280  -46.7890  440.7710 C.3    14  LEU14       0.0001
      8  CD2      -72.5410  -44.7850  441.6800 C.3    14  LEU14       0.0001
      9  N        -79.5090  -48.5020  436.8000 N.3    18  ARG18      -0.1231
     10  CA       -78.9320  -47.4280  435.9770 C.3    18  ARG18       0.1694
     11  C        -77.6510  -47.8710  435.3220 C.2    18  ARG18       0.2591
     12  O        -77.4890  -47.7320  434.1210 O.2    18  ARG18      -0.2718
     13  CB       -78.6440  -46.2030  436.8470 C.3    18  ARG18       0.0321
     14  CG       -79.8800  -45.5610  437.4520 C.3    18  ARG18       0.0489
     15  CD       -79.6430  -44.2020  438.1110 C.3    18  ARG18       0.2205
     16  NE       -80.8850  -43.7430  438.7090 N.pl3  18  ARG18      -0.0865
     17  CZ       -81.9020  -43.2730  438.0020 C.cat  18  ARG18       0.5346
     18  NH1      -81.8040  -43.1850  436.6800 N.pl3  18  ARG18       0.1354
     19  NH2      -83.0120  -42.8880  438.6100 N.pl3  18  ARG18       0.1354
     20  N        -76.7490  -48.4070  436.1330 N.am   19  VAL19      -0.1980
     21  CA       -75.5180  -49.0050  435.6510 C.3    19  VAL19       0.1595
     22  C        -75.8470  -50.1060  434.6860 C.2    19  VAL19       0.2287
     23  O        -75.1780  -50.2380  433.6710 O.2    19  VAL19      -0.2864
     24  CB       -74.6430  -49.5570  436.7770 C.3    19  VAL19       0.0276
     25  CG1      -73.5740  -50.4730  436.2350 C.3    19  VAL19       0.0022
     26  CG2      -74.0320  -48.4230  437.5570 C.3    19  VAL19       0.0022
     27  N        -77.0910  -48.5250  431.3440 N.3    22  SER22      -0.1202
     28  CA       -75.9510  -47.7780  430.8350 C.3    22  SER22       0.2020
     29  C        -74.9110  -48.6650  430.2050 C.2    22  SER22       0.2618
     30  O        -74.4230  -48.3830  429.1100 O.2    22  SER22      -0.2717
     31  CB       -75.3070  -46.9570  431.9410 C.3    22  SER22       0.2103
     32  OG       -76.1820  -45.9280  432.3590 O.3    22  SER22      -0.2182
     33  N        -74.5580  -49.7350  430.8980 N.am   23  ILE23      -0.1979
     34  CA       -73.5950  -50.6480  430.3340 C.3    23  ILE23       0.1595
     35  C        -74.1390  -51.1680  429.0220 C.2    23  ILE23       0.2287
     36  O        -73.4560  -51.0780  428.0200 O.2    23  ILE23      -0.2864
     37  CB       -73.2750  -51.8200  431.2730 C.3    23  ILE23       0.0276
     38  CG1      -72.3820  -51.3500  432.4210 C.3    23  ILE23       0.0022
     39  CG2      -72.5520  -52.9040  430.5150 C.3    23  ILE23       0.0022
     40  CD1      -72.1490  -52.3920  433.4940 C.3    23  ILE23       0.0001
     41  N        -74.2810  -48.1200  426.2050 N.3    26  PHE26      -0.1241
     42  CA       -72.9240  -47.7170  425.8610 C.3    26  PHE26       0.1605
     43  C        -72.1410  -48.8170  425.1450 C.2    26  PHE26       0.2264
     44  O        -71.3950  -48.5210  424.2310 O.2    26  PHE26      -0.2867
     45  CB       -72.1490  -47.2550  427.0930 C.3    26  PHE26       0.0534
     46  CG       -70.6980  -46.9870  426.8120 C.ar   26  PHE26      -0.0203
     47  CD1      -70.3070  -45.8110  426.1900 C.ar   26  PHE26      -0.0042
     48  CD2      -69.7270  -47.9050  427.1680 C.ar   26  PHE26      -0.0042
     49  CE1      -68.9740  -45.5580  425.9220 C.ar   26  PHE26      -0.0003
     50  CE2      -68.3990  -47.6520  426.9070 C.ar   26  PHE26      -0.0003
     51  CZ       -68.0230  -46.4750  426.2800 C.ar   26  PHE26      -0.0000
     52  N        -70.4490  -48.5960  421.5620 N.3    30  LEU30      -0.1245
     53  CA       -69.0240  -48.8210  421.3870 C.3    30  LEU30       0.1561
     54  C        -68.8060  -49.8790  420.3360 C.2    30  LEU30       0.2260
     55  O        -67.9040  -49.7710  419.5200 O.2    30  LEU30      -0.2867
     56  CB       -68.3750  -49.2510  422.6920 C.3    30  LEU30       0.0270
     57  CG       -66.8580  -49.3120  422.6350 C.3    30  LEU30       0.0019
     58  CD1      -66.3240  -47.8950  422.5710 C.3    30  LEU30       0.0001
     59  CD2      -66.2830  -50.0690  423.8240 C.3    30  LEU30       0.0001
     60  N        -66.7290  -49.0300  416.9670 N.3    34  ILE34      -0.1245
     61  CA       -65.4770  -49.6830  416.6530 C.3    34  ILE34       0.1561
     62  C        -65.6240  -50.4840  415.3610 C.2    34  ILE34       0.2260
     63  O        -64.7140  -50.4910  414.5240 O.2    34  ILE34      -0.2867
     64  CB       -65.0250  -50.5690  417.8030 C.3    34  ILE34       0.0252
     65  CG1      -64.6310  -49.6830  418.9840 C.3    34  ILE34       0.0019
     66  CG2      -63.8880  -51.5070  417.3730 C.3    34  ILE34       0.0019
     67  CD1      -64.1960  -50.4570  420.2060 C.3    34  ILE34       0.0001
     68  N        -65.0720  -48.1420  412.7350 N.3    37  ILE37      -0.1231
     69  CA       -63.6870  -47.7050  412.7050 C.3    37  ILE37       0.1692
     70  C        -62.8550  -48.6920  411.9370 C.2    37  ILE37       0.2591
     71  O        -62.0630  -48.3090  411.0810 O.2    37  ILE37      -0.2718
     72  CB       -63.1030  -47.5440  414.1020 C.3    37  ILE37       0.0266
     73  CG1      -63.7840  -46.3750  414.8200 C.3    37  ILE37       0.0019
     74  CG2      -61.6090  -47.3070  414.0170 C.3    37  ILE37       0.0020
     75  CD1      -63.3040  -46.1560  416.2570 C.3    37  ILE37       0.0001
     76  N        -63.0480  -49.9670  412.2460 N.am   38  VAL38      -0.1980
     77  CA       -62.3300  -51.0410  411.5690 C.3    38  VAL38       0.1595
     78  C        -62.7080  -51.1980  410.0670 C.2    38  VAL38       0.2287
     79  O        -61.8300  -51.4460  409.2340 O.2    38  VAL38      -0.2864
     80  CB       -62.5310  -52.3790  412.3280 C.3    38  VAL38       0.0276
     81  CG1      -62.1030  -53.5630  411.4750 C.3    38  VAL38       0.0022
     82  CG2      -61.7310  -52.3630  413.6210 C.3    38  VAL38       0.0022
@<TRIPOS>BOND
     1    79    78    2
     2    78    77    1
     3    71    70    2
     4    81    80    1
     5    77    76    1
     6    77    80    1
     7    70    76   am
     8    70    69    1
     9    80    82    1
    10    69    68    1
    11    69    72    1
    12    74    72    1
    13    72    73    1
    14    63    62    2
    15    73    75    1
    16    62    61    1
    17    61    60    1
    18    61    64    1
    19    66    64    1
    20    64    65    1
    21    65    67    1
    22    55    54    2
    23    54    53    1
    24    53    52    1
    25    53    56    1
    26    58    57    1
    27    57    56    1
    28    57    59    1
    29    44    43    2
    30    43    42    1
    31    42    41    1
    32    42    45    1
    33    49    47   ar
    34    49    51   ar
    35    47    46   ar
    36    51    50   ar
    37    46    45    1
    38    46    48   ar
    39    50    48   ar
    40    36    35    2
    41    35    34    1
    42    30    29    2
    43    29    28    1
    44    29    33   am
    45    34    33    1
    46    34    37    1
    47    39    37    1
    48    28    27    1
    49    28    31    1
    50    37    38    1
    51    31    32    1
    52    38    40    1
    53    23    22    2
    54    12    11    2
    55    22    21    1
    56    11    10    1
    57    11    20   am
    58    21    20    1
    59    21    24    1
    60    10     9    1
    61    10    13    1
    62    25    24    1
    63    18    17    1
    64    24    26    1
    65    13    14    1
    66    14    15    1
    67    17    19    1
    68    17    16    2
    69    15    16    1
    70     7     6    1
    71     5     6    1
    72     5     2    1
    73     8     6    1
    74     3     4    2
    75     3     2    1
    76     2     1    1
