@<TRIPOS>MOLECULE
tmp/5b5mK04.pdb
 84 77 0 0 0
SMALL
GASTEIGER

@<TRIPOS>ATOM
      1  N        -52.7800    0.3480  453.6360 N.3     2  THR2       -0.1218
      2  CA       -53.8580    0.9180  452.7980 C.3     2  THR2        0.1862
      3  C        -53.4860    1.8920  451.6540 C.2     2  THR2        0.2287
      4  O        -54.0370    1.7460  450.5720 O.2     2  THR2       -0.2866
      5  CB       -54.9220    1.6500  453.6990 C.3     2  THR2        0.1770
      6  OG1      -54.7840    3.0700  453.6070 O.3     2  THR2       -0.2211
      7  CG2      -54.8160    1.2060  455.1640 C.3     2  THR2        0.0375
      8  N        -59.2340    3.7670  454.6190 N.3     7  LEU7       -0.1245
      9  CA       -59.5890    3.3000  453.2790 C.3     7  LEU7        0.1561
     10  C        -60.0360    1.8610  453.4350 C.2     7  LEU7        0.2260
     11  O        -60.1030    1.1080  452.4590 O.2     7  LEU7       -0.2867
     12  CB       -58.4000    3.3910  452.3100 C.3     7  LEU7        0.0270
     13  CG       -58.6450    3.2960  450.7910 C.3     7  LEU7        0.0019
     14  CD1      -59.3630    4.5250  450.2460 C.3     7  LEU7        0.0001
     15  CD2      -57.3570    3.0250  450.0280 C.3     7  LEU7        0.0001
     16  N        -63.8930    1.5060  452.6640 N.3    10  ILE10      -0.1231
     17  CA       -64.2960    1.1910  451.3050 C.3    10  ILE10       0.1692
     18  C        -65.0920   -0.1190  451.2530 C.2    10  ILE10       0.2592
     19  O        -65.9100   -0.2960  450.3630 O.2    10  ILE10      -0.2718
     20  CB       -63.0790    1.1090  450.3540 C.3    10  ILE10       0.0266
     21  CG1      -63.5370    1.2310  448.9040 C.3    10  ILE10       0.0019
     22  CG2      -62.2530   -0.1500  450.5980 C.3    10  ILE10       0.0020
     23  CD1      -64.2350    2.5270  448.6060 C.3    10  ILE10       0.0001
     24  N        -64.8720   -1.0280  452.2030 N.am   11  TRP11      -0.1976
     25  CA       -65.6090   -2.2950  452.2180 C.3    11  TRP11       0.1640
     26  C        -66.9010   -2.1110  453.0210 C.2    11  TRP11       0.2290
     27  O        -67.6280   -3.0670  453.3130 O.2    11  TRP11      -0.2864
     28  CB       -64.7670   -3.4440  452.7760 C.3    11  TRP11       0.0576
     29  CG       -63.3800   -3.5050  452.2070 C.ar   11  TRP11       0.0006
     30  CD1      -62.2150   -3.4180  452.9070 C.ar   11  TRP11       0.0946
     31  CD2      -63.0040   -3.6020  450.8240 C.ar   11  TRP11       0.0152
     32  NE1      -61.1380   -3.4870  452.0580 N.ar   11  TRP11      -0.2442
     33  CE2      -61.5920   -3.5950  450.7720 C.ar   11  TRP11       0.0810
     34  CE3      -63.7200   -3.7070  449.6290 C.ar   11  TRP11       0.0012
     35  CZ2      -60.8820   -3.6860  449.5780 C.ar   11  TRP11       0.0191
     36  CZ3      -63.0090   -3.7960  448.4370 C.ar   11  TRP11       0.0001
     37  CH2      -61.6040   -3.7860  448.4230 C.ar   11  TRP11       0.0015
     38  N        -68.6920   -1.2650  449.0840 N.3    14  LEU14      -0.1245
     39  CA       -68.6410   -2.2270  447.9930 C.3    14  LEU14       0.1561
     40  C        -68.5440   -3.5960  448.6220 C.2    14  LEU14       0.2260
     41  O        -67.5920   -3.8560  449.3480 O.2    14  LEU14      -0.2867
     42  CB       -67.4160   -1.9660  447.1230 C.3    14  LEU14       0.0270
     43  CG       -67.1680   -0.4890  446.8140 C.3    14  LEU14       0.0019
     44  CD1      -65.8720   -0.3050  446.0440 C.3    14  LEU14       0.0001
     45  CD2      -68.3360    0.1410  446.0890 C.3    14  LEU14       0.0001
     46  N        -66.4290   -7.6490  445.2840 N.3    19  VAL19      -0.1245
     47  CA       -65.1490   -7.0950  444.8720 C.3    19  VAL19       0.1561
     48  C        -64.1330   -8.2060  444.6620 C.2    19  VAL19       0.2260
     49  O        -63.4530   -8.2420  443.6330 O.2    19  VAL19      -0.2867
     50  CB       -64.5920   -6.1060  445.9150 C.3    19  VAL19       0.0252
     51  CG1      -63.1350   -5.7750  445.6150 C.3    19  VAL19       0.0019
     52  CG2      -65.4400   -4.8470  445.9620 C.3    19  VAL19       0.0019
     53  N        -62.4370   -9.1590  441.0540 N.3    23  ILE23      -0.1245
     54  CA       -61.0210   -9.1140  440.7940 C.3    23  ILE23       0.1561
     55  C        -60.5310  -10.4670  440.3010 C.2    23  ILE23       0.2260
     56  O        -59.8170  -10.5260  439.3030 O.2    23  ILE23      -0.2867
     57  CB       -60.2600   -8.6670  442.0150 C.3    23  ILE23       0.0252
     58  CG1      -60.4760   -7.1680  442.1980 C.3    23  ILE23       0.0019
     59  CG2      -58.7990   -8.9320  441.8240 C.3    23  ILE23       0.0019
     60  CD1      -59.9250   -6.6220  443.4840 C.3    23  ILE23       0.0001
     61  N        -57.6960  -11.3930  432.1770 N.3    30  LEU30      -0.1245
     62  CA       -56.6430  -10.5250  431.6480 C.3    30  LEU30       0.1561
     63  C        -55.4030  -11.3160  431.3630 C.2    30  LEU30       0.2260
     64  O        -54.7120  -11.0820  430.3820 O.2    30  LEU30      -0.2867
     65  CB       -56.3080   -9.3920  432.6140 C.3    30  LEU30       0.0270
     66  CG       -55.2930   -8.4170  432.0110 C.3    30  LEU30       0.0019
     67  CD1      -55.9420   -7.6170  430.9220 C.3    30  LEU30       0.0001
     68  CD2      -54.6720   -7.5000  433.0410 C.3    30  LEU30       0.0001
     69  N        -53.4910  -11.1190  427.7240 N.3    34  ILE34      -0.1245
     70  CA       -52.1090  -10.7240  427.5250 C.3    34  ILE34       0.1561
     71  C        -51.2870  -11.9320  427.1100 C.2    34  ILE34       0.2260
     72  O        -50.4210  -11.7990  426.2610 O.2    34  ILE34      -0.2867
     73  CB       -51.5150  -10.0390  428.7590 C.3    34  ILE34       0.0252
     74  CG1      -51.9770   -8.5820  428.7830 C.3    34  ILE34       0.0019
     75  CG2      -49.9980  -10.0290  428.7020 C.3    34  ILE34       0.0019
     76  CD1      -51.4330   -7.7910  429.9420 C.3    34  ILE34       0.0001
     77  N        -51.5630  -11.9800  423.6490 N.3    37  ILE37      -0.1245
     78  CA       -50.8440  -10.8410  423.0620 C.3    37  ILE37       0.1561
     79  C        -49.3960  -11.2030  422.8460 C.2    37  ILE37       0.2260
     80  O        -48.8240  -10.9300  421.8010 O.2    37  ILE37      -0.2867
     81  CB       -50.8930   -9.5930  423.9620 C.3    37  ILE37       0.0252
     82  CG1      -52.3430   -9.1400  424.1650 C.3    37  ILE37       0.0019
     83  CG2      -49.9660   -8.4820  423.4100 C.3    37  ILE37       0.0019
     84  CD1      -52.4910   -7.9520  425.0730 C.3    37  ILE37       0.0001
@<TRIPOS>BOND
     1    80    79    2
     2    79    78    1
     3    78    77    1
     4    78    81    1
     5    83    81    1
     6    81    82    1
     7    82    84    1
     8    72    71    2
     9    71    70    1
    10    70    69    1
    11    70    73    1
    12    75    73    1
    13    73    74    1
    14    74    76    1
    15    64    63    2
    16    67    66    1
    17    63    62    1
    18    62    61    1
    19    62    65    1
    20    66    65    1
    21    66    68    1
    22    56    55    2
    23    55    54    1
    24    54    53    1
    25    54    57    1
    26    59    57    1
    27    57    58    1
    28    58    60    1
    29    49    48    2
    30    48    47    1
    31    47    46    1
    32    47    50    1
    33    51    50    1
    34    50    52    1
    35    44    43    1
    36    45    43    1
    37    43    42    1
    38    42    39    1
    39    39    40    1
    40    39    38    1
    41    37    36   ar
    42    37    35   ar
    43    36    34   ar
    44    23    21    1
    45    40    41    2
    46    21    20    1
    47    35    33   ar
    48    34    31   ar
    49    15    13    1
    50    14    13    1
    51    20    22    1
    52    20    17    1
    53    19    18    2
    54     4     3    2
    55    33    31   ar
    56    33    32   ar
    57    13    12    1
    58    31    29   ar
    59    18    17    1
    60    18    24   am
    61    17    16    1
    62     3     2    1
    63    32    30   ar
    64    24    25    1
    65    29    28    1
    66    29    30   ar
    67    25    28    1
    68    25    26    1
    69    12     9    1
    70    11    10    2
    71     2     1    1
    72     2     5    1
    73    26    27    2
    74     9    10    1
    75     9     8    1
    76     6     5    1
    77     5     7    1
