@<TRIPOS>MOLECULE
tmp/5b5oA00.pdb
 159 159 0 0 0
SMALL
GASTEIGER

@<TRIPOS>ATOM
      1  N         11.4040   16.5970    9.8570 N.3    81  LEU81      -0.1231
      2  CA        10.9580   15.3140   10.4020 C.3    81  LEU81       0.1693
      3  C         12.1300   14.3610   10.5900 C.2    81  LEU81       0.2592
      4  O         13.0090   14.2730    9.7310 O.2    81  LEU81      -0.2718
      5  CB         9.9490   14.6690    9.4630 C.3    81  LEU81       0.0284
      6  CG         8.7520   15.5310    9.1040 C.3    81  LEU81       0.0019
      7  CD1        7.9720   14.8600    7.9920 C.3    81  LEU81       0.0001
      8  CD2        7.8810   15.7550   10.3210 C.3    81  LEU81       0.0001
      9  N         12.1380   13.6570   11.7150 N.am   82  LEU82      -0.1966
     10  CA        13.2270   12.7210   12.0010 C.3    82  LEU82       0.1728
     11  C         12.7770   11.2670   12.0250 C.2    82  LEU82       0.2616
     12  O         13.5380   10.3850   11.6590 O.2    82  LEU82      -0.2715
     13  CB        13.8760   13.0500   13.3560 C.3    82  LEU82       0.0311
     14  CG        14.3480   14.4810   13.6130 C.3    82  LEU82       0.0022
     15  CD1       14.8520   14.5980   15.0470 C.3    82  LEU82       0.0001
     16  CD2       15.4050   14.8870   12.5990 C.3    82  LEU82       0.0001
     17  N         11.5600   11.0240   12.5020 N.am   83  ALA83      -0.1963
     18  CA        11.0770    9.6810   12.7710 C.3    83  ALA83       0.1728
     19  C          9.6030    9.7730   13.0900 C.2    83  ALA83       0.2616
     20  O          9.0940   10.8540   13.4060 O.2    83  ALA83      -0.2715
     21  CB        11.8200    9.0660   13.9740 C.3    83  ALA83       0.0334
     22  N          8.9190    8.6380   13.0430 N.am   84  HIS84      -0.1959
     23  CA         7.5640    8.5560   13.5950 C.3    84  HIS84       0.1787
     24  C          7.2350    7.1100   13.9240 C.2    84  HIS84       0.2620
     25  O          7.8610    6.1880   13.4040 O.2    84  HIS84      -0.2715
     26  CB         6.5140    9.1330   12.6490 C.3    84  HIS84       0.0785
     27  CG         6.6230    8.6160   11.2550 C.ar   84  HIS84       0.0821
     28  ND1        7.1190    9.3810   10.2220 N.ar   84  HIS84      -0.2267
     29  CD2        6.3540    7.4050   10.7240 C.ar   84  HIS84       0.1154
     30  CE1        7.1120    8.6710    9.1070 C.ar   84  HIS84       0.1986
     31  NE2        6.6440    7.4690    9.3850 N.ar   84  HIS84      -0.2212
     32  N          6.2510    6.9130   14.7910 N.am   85  ALA85      -0.1977
     33  CA         5.8120    5.5800   15.1750 C.3    85  ALA85       0.1597
     34  C          4.3130    5.5660   15.3380 C.2    85  ALA85       0.2287
     35  O          3.6850    6.5960   15.6340 O.2    85  ALA85      -0.2864
     36  CB         6.5040    5.1540   16.4550 C.3    85  ALA85       0.0319
     37  N         18.0300    7.8700   21.9240 N.3   115  LEU115     -0.1231
     38  CA        17.0880    8.8310   22.5000 C.3   115  LEU115      0.1693
     39  C         15.8390    8.9740   21.6350 C.2   115  LEU115      0.2591
     40  O         14.7060    8.9780   22.1460 O.2   115  LEU115     -0.2718
     41  CB        17.7330   10.1960   22.7090 C.3   115  LEU115      0.0284
     42  CG        18.7490   10.2780   23.8420 C.3   115  LEU115      0.0019
     43  CD1       19.4860   11.6110   23.8220 C.3   115  LEU115      0.0001
     44  CD2       18.0990   10.0540   25.2030 C.3   115  LEU115      0.0001
     45  N         16.0330    9.1040   20.3240 N.am  116  VAL116     -0.1980
     46  CA        14.8800    9.2210   19.4380 C.3   116  VAL116      0.1595
     47  C         14.0450    7.9500   19.4650 C.2   116  VAL116      0.2287
     48  O         12.8110    8.0130   19.5260 O.2   116  VAL116     -0.2864
     49  CB        15.2790    9.6140   18.0040 C.3   116  VAL116      0.0276
     50  CG1       14.0570    9.6830   17.1080 C.3   116  VAL116      0.0022
     51  CG2       15.9800   10.9710   18.0300 C.3   116  VAL116      0.0022
     52  N         11.8470    7.7210   22.5860 N.3   119  HIS119     -0.1226
     53  CA        10.6510    8.5300   22.3690 C.3   119  HIS119      0.1752
     54  C          9.6320    7.8260   21.4580 C.2   119  HIS119      0.2595
     55  O          8.4470    7.6990   21.7910 O.2   119  HIS119     -0.2718
     56  CB        11.0570    9.8820   21.7690 C.3   119  HIS119      0.0759
     57  CG         9.8930   10.7420   21.3590 C.ar  119  HIS119      0.0818
     58  ND1        9.4260   11.7790   22.1410 N.ar  119  HIS119     -0.2268
     59  CD2        9.1220   10.7430   20.2400 C.ar  119  HIS119      0.1154
     60  CE1        8.4090   12.3660   21.5280 C.ar  119  HIS119      0.1986
     61  NE2        8.2040   11.7610   20.3740 N.ar  119  HIS119     -0.2212
     62  N         10.0950    7.3480   20.3040 N.am  120  GLU120     -0.1979
     63  CA         9.1940    6.7140   19.3410 C.3   120  GLU120      0.1602
     64  C          8.5530    5.4620   19.9160 C.2   120  GLU120      0.2287
     65  O          7.3710    5.2280   19.7060 O.2   120  GLU120     -0.2864
     66  CB         9.9110    6.4300   18.0170 C.3   120  GLU120      0.0415
     67  CG        10.3630    7.7070   17.2880 C.3   120  GLU120      0.1163
     68  CD         9.2500    8.6910   16.9700 C.2   120  GLU120      0.3649
     69  OE1        8.0870    8.2870   16.8230 O.co2 120  GLU120     -0.2457
     70  OE2        9.5480    9.9070   16.8420 O.co2 120  GLU120     -0.2457
     71  N          5.4310    6.0870   21.7450 N.3   123  HIS123     -0.1241
     72  CA         4.2620    6.0490   20.8630 C.3   123  HIS123      0.1621
     73  C          3.8360    4.6330   20.5280 C.2   123  HIS123      0.2264
     74  O          2.6480    4.3190   20.5650 O.2   123  HIS123     -0.2867
     75  CB         4.5170    6.8040   19.5600 C.3   123  HIS123      0.0745
     76  CG         4.7720    8.2710   19.7270 C.ar  123  HIS123      0.0817
     77  ND1        3.9850    9.0990   20.5020 N.ar  123  HIS123     -0.2268
     78  CD2        5.6810    9.0730   19.1310 C.ar  123  HIS123      0.1154
     79  CE1        4.4320   10.3390   20.4100 C.ar  123  HIS123      0.1986
     80  NE2        5.4590   10.3560   19.5790 N.ar  123  HIS123     -0.2212
     81  N          2.1840   12.8810   22.9910 N.3   129  HIS129     -0.1241
     82  CA         3.1360   13.8750   23.4650 C.3   129  HIS129      0.1621
     83  C          2.7890   14.4630   24.8140 C.2   129  HIS129      0.2264
     84  O          1.6200   14.5330   25.1810 O.2   129  HIS129     -0.2867
     85  CB         3.3130   14.9700   22.4170 C.3   129  HIS129      0.0745
     86  CG         4.0340   14.4820   21.2100 C.ar  129  HIS129      0.0817
     87  ND1        3.6530   14.7770   19.9180 N.ar  129  HIS129     -0.2268
     88  CD2        5.1060   13.6640   21.1040 C.ar  129  HIS129      0.1154
     89  CE1        4.4760   14.1830   19.0710 C.ar  129  HIS129      0.1986
     90  NE2        5.3550   13.4830   19.7670 N.ar  129  HIS129     -0.2212
     91  N         10.1940   15.9960   29.7140 N.3   135  ALA135     -0.1231
     92  CA         9.7400   14.6170   29.4640 C.3   135  ALA135      0.1694
     93  C         10.3560   14.0400   28.1950 C.2   135  ALA135      0.2591
     94  O         10.5880   14.7420   27.2050 O.2   135  ALA135     -0.2718
     95  CB         8.2220   14.5570   29.3760 C.3   135  ALA135      0.0304
     96  N         10.5880   12.7330   28.2020 N.am  136  LEU136     -0.1980
     97  CA        11.0100   12.0480   26.9900 C.3   136  LEU136      0.1596
     98  C          9.9820   12.2080   25.8620 C.2   136  LEU136      0.2287
     99  O         10.3530   12.3310   24.6930 O.2   136  LEU136     -0.2864
    100  CB        11.2490   10.5730   27.3050 C.3   136  LEU136      0.0297
    101  CG        11.6440    9.6960   26.1170 C.3   136  LEU136      0.0022
    102  CD1       12.9340   10.1880   25.4780 C.3   136  LEU136      0.0001
    103  CD2       11.7970    8.2750   26.5600 C.3   136  LEU136      0.0001
    104  N          8.1510   14.7880   25.2870 N.3   138  PHE138     -0.1228
    105  CA         8.0740   16.1720   24.7890 C.3   138  PHE138      0.1721
    106  C          8.4140   16.1490   23.3060 C.2   138  PHE138      0.2437
    107  O          9.3230   15.4260   22.8880 O.2   138  PHE138     -0.2733
    108  CB         9.0380   17.0690   25.5610 C.3   138  PHE138      0.0547
    109  CG         8.8520   18.5600   25.3090 C.ar  138  PHE138     -0.0202
    110  CD1        7.7300   19.2330   25.7950 C.ar  138  PHE138     -0.0042
    111  CD2        9.8260   19.2900   24.6310 C.ar  138  PHE138     -0.0042
    112  CE1        7.5620   20.6110   25.5820 C.ar  138  PHE138     -0.0003
    113  CE2        9.6690   20.6660   24.4120 C.ar  138  PHE138     -0.0003
    114  CZ         8.5380   21.3210   24.8930 C.ar  138  PHE138     -0.0000
    115  N          7.6460   16.9000   22.4880 N.am  139  PRO139     -0.2718
    116  CA         7.7940   16.7750   21.0360 C.3   139  PRO139      0.1535
    117  C          8.8970   17.5940   20.3650 C.2   139  PRO139      0.2598
    118  O          8.7180   18.0500   19.2310 O.2   139  PRO139     -0.2715
    119  CB         6.4410   17.2570   20.5120 C.3   139  PRO139      0.0310
    120  CG         5.9780   18.2640   21.5250 C.3   139  PRO139      0.0237
    121  CD         6.5250   17.7900   22.8580 C.3   139  PRO139      0.0939
    122  N         10.0330   17.7700   21.0180 N.am  140  ILE140     -0.1964
    123  CA        11.1980   18.3370   20.3240 C.3   140  ILE140      0.1727
    124  C         12.4440   17.6560   20.8660 C.2   140  ILE140      0.2616
    125  O         12.5860   17.4580   22.0700 O.2   140  ILE140     -0.2715
    126  CB        11.2880   19.8900   20.4260 C.3   140  ILE140      0.0290
    127  CG1       10.0410   20.5450   19.8170 C.3   140  ILE140      0.0022
    128  CG2       12.5430   20.4230   19.7110 C.3   140  ILE140      0.0023
    129  CD1        9.8040   21.9820   20.2400 C.3   140  ILE140      0.0001
    130  N         13.3100   17.2670   19.9390 N.am  141  TYR141     -0.1960
    131  CA        14.5500   16.5690   20.2950 C.3   141  TYR141      0.1771
    132  C         15.4710   17.3980   21.1580 C.2   141  TYR141      0.2620
    133  O         15.7450   18.5490   20.8220 O.2   141  TYR141     -0.2715
    134  CB        15.3140   16.1850   19.0330 C.3   141  TYR141      0.0574
    135  CG        16.6640   15.5250   19.2870 C.ar  141  TYR141     -0.0198
    136  CD1       16.7440   14.1660   19.6000 C.ar  141  TYR141     -0.0009
    137  CD2       17.8630   16.2610   19.2150 C.ar  141  TYR141     -0.0009
    138  CE1       17.9720   13.5520   19.8330 C.ar  141  TYR141      0.0417
    139  CE2       19.0990   15.6540   19.4490 C.ar  141  TYR141      0.0417
    140  CZ        19.1400   14.2920   19.7500 C.ar  141  TYR141      0.1957
    141  OH        20.3400   13.6540   19.9780 O.3   141  TYR141     -0.2866
    142  N         15.9460   16.8170   22.2590 N.am  142  THR142     -0.1951
    143  CA        17.1180   17.3430   22.9690 C.3   142  THR142      0.1897
    144  C         18.0570   16.2080   23.3310 C.2   142  THR142      0.2313
    145  O         17.6140   15.0970   23.6450 O.2   142  THR142     -0.2863
    146  CB        16.7880   18.1140   24.2810 C.3   142  THR142      0.1794
    147  OG1       15.9350   17.3250   25.1140 O.3   142  THR142     -0.2208
    148  CG2       16.1430   19.4500   24.0020 C.3   142  THR142      0.0378
    149  N         20.9140    6.8920   31.6570 N.3   146  PHE146     -0.1241
    150  CA        19.6900    7.6200   31.3320 C.3   146  PHE146      0.1605
    151  C         18.6160    7.3740   32.3780 C.2   146  PHE146      0.2264
    152  O         18.4300    6.2440   32.8460 O.2   146  PHE146     -0.2867
    153  CB        19.1790    7.2260   29.9390 C.3   146  PHE146      0.0534
    154  CG        17.9710    8.0060   29.4830 C.ar  146  PHE146     -0.0203
    155  CD1       16.7070    7.4160   29.4750 C.ar  146  PHE146     -0.0042
    156  CD2       18.0950    9.3230   29.0600 C.ar  146  PHE146     -0.0042
    157  CE1       15.5860    8.1320   29.0550 C.ar  146  PHE146     -0.0003
    158  CE2       16.9790   10.0480   28.6390 C.ar  146  PHE146     -0.0003
    159  CZ        15.7240    9.4480   28.6350 C.ar  146  PHE146     -0.0000
@<TRIPOS>BOND
     1     7     6    1
     2     6     5    1
     3     6     8    1
     4    30    31   ar
     5    30    28   ar
     6    31    29   ar
     7     5     2    1
     8     4     3    2
     9     1     2    1
    10    28    27   ar
    11     2     3    1
    12     3     9   am
    13    29    27   ar
    14    27    26    1
    15    12    11    2
    16     9    10    1
    17    10    11    1
    18    10    13    1
    19    11    17   am
    20    17    18    1
    21    16    14    1
    22    26    23    1
    23    18    19    1
    24    18    21    1
    25    22    19   am
    26    22    23    1
    27    19    20    2
    28    13    14    1
    29    25    24    2
    30    23    24    1
    31    14    15    1
    32    24    32   am
    33    32    33    1
    34    33    34    1
    35    33    36    1
    36    34    35    2
    37    69    68   ar
    38    70    68   ar
    39    68    67    1
    40    50    49    1
    41    67    66    1
    42    49    51    1
    43    49    46    1
    44    66    63    1
    45   134   135    1
    46   134   131    1
    47    89    90   ar
    48    89    87   ar
    49    78    80   ar
    50    78    76   ar
    51   137   135   ar
    52   137   139   ar
    53   118   117    2
    54   135   136   ar
    55    63    64    1
    56    63    62    1
    57    46    47    1
    58    46    45    1
    59   139   140   ar
    60    47    48    2
    61    75    76    1
    62    75    72    1
    63    80    79   ar
    64   136   138   ar
    65    65    64    2
    66   128   126    1
    67    76    77   ar
    68   140   138   ar
    69   140   141    1
    70    90    88   ar
    71   127   129    1
    72   127   126    1
    73    87    86   ar
    74   130   131    1
    75   130   124   am
    76    59    61   ar
    77    59    57   ar
    78   131   132    1
    79    62    54   am
    80   123   126    1
    81   123   124    1
    82   123   122    1
    83    45    39   am
    84   117   122   am
    85   117   116    1
    86    61    60   ar
    87    79    77   ar
    88   119   116    1
    89   119   120    1
    90    73    74    2
    91    73    72    1
    92   133   132    2
    93    72    71    1
    94   124   125    2
    95   116   115    1
    96    88    86   ar
    97   132   142   am
    98    86    85    1
    99    57    56    1
   100    57    58   ar
   101    54    55    2
   102    54    53    1
   103   120   121    1
   104    60    58   ar
   105    39    40    2
   106    39    38    1
   107    56    53    1
   108    37    38    1
   109   142   143    1
   110    53    52    1
   111    85    82    1
   112   115   121    1
   113   115   106   am
   114    38    41    1
   115    41    42    1
   116   107   106    2
   117   143   144    1
   118   143   146    1
   119    81    82    1
   120   106   105    1
   121   144   145    2
   122    82    83    1
   123    43    42    1
   124    42    44    1
   125   148   146    1
   126   146   147    1
   127   113   111   ar
   128   113   114   ar
   129   111   109   ar
   130    99    98    2
   131   105   104    1
   132   105   108    1
   133    83    84    2
   134   114   112   ar
   135   109   108    1
   136   109   110   ar
   137   102   101    1
   138   112   110   ar
   139    98    97    1
   140   101   103    1
   141   101   100    1
   142    97   100    1
   143    97    96    1
   144    94    93    2
   145    93    96   am
   146    93    92    1
   147   159   158   ar
   148   159   157   ar
   149   158   156   ar
   150   157   155   ar
   151   156   154   ar
   152    95    92    1
   153    92    91    1
   154   155   154   ar
   155   154   153    1
   156   153   150    1
   157   150   149    1
   158   150   151    1
   159   151   152    2
