@<TRIPOS>MOLECULE
tmp/5b5pB00.pdb
 207 209 0 0 0
SMALL
GASTEIGER

@<TRIPOS>ATOM
      1  N        -22.4550    5.2030   31.7660 N.3    81  LEU81      -0.1231
      2  CA       -21.7000    6.3720   31.3130 C.3    81  LEU81       0.1693
      3  C        -20.4720    6.5900   32.1930 C.2    81  LEU81       0.2592
      4  O        -20.5570    6.4880   33.4240 O.2    81  LEU81      -0.2718
      5  CB       -22.5790    7.6240   31.3480 C.3    81  LEU81       0.0284
      6  CG       -23.9170    7.6070   30.5900 C.3    81  LEU81       0.0019
      7  CD1      -24.7180    8.8620   30.9020 C.3    81  LEU81       0.0001
      8  CD2      -23.7020    7.4710   29.0940 C.3    81  LEU81       0.0001
      9  N        -19.3360    6.8980   31.5810 N.am   82  LEU82      -0.1966
     10  CA       -18.1180    7.0780   32.3870 C.3    82  LEU82       0.1728
     11  C        -17.5710    8.5030   32.3750 C.2    82  LEU82       0.2616
     12  O        -16.8310    8.8930   33.2760 O.2    82  LEU82      -0.2715
     13  CB       -17.0330    6.0820   31.9620 C.3    82  LEU82       0.0311
     14  CG       -16.0520    6.4600   30.8530 C.3    82  LEU82       0.0022
     15  CD1      -14.9220    5.4310   30.7890 C.3    82  LEU82       0.0001
     16  CD2      -16.7180    6.5750   29.5000 C.3    82  LEU82       0.0001
     17  N        -17.9340    9.2630   31.3510 N.am   83  ALA83      -0.1963
     18  CA       -17.3780   10.5930   31.1000 C.3    83  ALA83       0.1728
     19  C        -18.0670   11.1780   29.8840 C.2    83  ALA83       0.2616
     20  O        -18.7510   10.4720   29.1420 O.2    83  ALA83      -0.2715
     21  CB       -15.8770   10.5120   30.8500 C.3    83  ALA83       0.0334
     22  N        -17.9150   12.4780   29.6910 N.am   84  HIS84      -0.1959
     23  CA       -18.3130   13.0810   28.4290 C.3    84  HIS84       0.1787
     24  C        -17.5420   14.3550   28.1830 C.2    84  HIS84       0.2620
     25  O        -17.0790   15.0030   29.1240 O.2    84  HIS84      -0.2715
     26  CB       -19.8400   13.2850   28.2940 C.3    84  HIS84       0.0785
     27  CG       -20.4650   14.0570   29.4140 C.ar   84  HIS84       0.0821
     28  ND1      -21.6210   13.6460   30.0410 N.ar   84  HIS84      -0.2267
     29  CD2      -20.1020   15.2160   30.0120 C.ar   84  HIS84       0.1154
     30  CE1      -21.9420   14.5180   30.9800 C.ar   84  HIS84       0.1986
     31  NE2      -21.0330   15.4770   30.9870 N.ar   84  HIS84      -0.2212
     32  N        -17.3700   14.6700   26.9030 N.am   85  ALA85      -0.1977
     33  CA       -16.6590   15.8710   26.4950 C.3    85  ALA85       0.1597
     34  C        -17.4600   16.6080   25.4330 C.2    85  ALA85       0.2287
     35  O        -18.1700   15.9860   24.6370 O.2    85  ALA85      -0.2864
     36  CB       -15.2660   15.5130   25.9830 C.3    85  ALA85       0.0319
     37  N         -6.0630    6.8880   29.7080 N.3   115  LEU115     -0.1231
     38  CA        -6.6810    6.3480   28.5130 C.3   115  LEU115      0.1693
     39  C         -8.0240    7.0060   28.2370 C.2   115  LEU115      0.2591
     40  O         -8.3110    7.4310   27.1170 O.2   115  LEU115     -0.2718
     41  CB        -6.8680    4.8420   28.6750 C.3   115  LEU115      0.0284
     42  CG        -7.1270    4.0360   27.4090 C.3   115  LEU115      0.0019
     43  CD1       -6.0970    4.3550   26.3270 C.3   115  LEU115      0.0001
     44  CD2       -7.0850    2.5520   27.7780 C.3   115  LEU115      0.0001
     45  N         -8.8450    7.1160   29.2740 N.am  116  VAL116     -0.1980
     46  CA       -10.1650    7.7300   29.1100 C.3   116  VAL116      0.1595
     47  C        -10.0310    9.2250   28.7870 C.2   116  VAL116      0.2287
     48  O        -10.7460    9.7280   27.9220 O.2   116  VAL116     -0.2864
     49  CB       -11.0830    7.4640   30.3250 C.3   116  VAL116      0.0276
     50  CG1      -12.4200    8.2030   30.1880 C.3   116  VAL116      0.0022
     51  CG2      -11.3120    5.9380   30.4740 C.3   116  VAL116      0.0022
     52  N         -9.0310    9.7130   25.0760 N.3   119  HIS119     -0.1226
     53  CA       -10.2500    9.5270   24.2890 C.3   119  HIS119      0.1752
     54  C        -11.1570   10.7620   24.3530 C.2   119  HIS119      0.2595
     55  O        -11.5550   11.3190   23.3230 O.2   119  HIS119     -0.2718
     56  CB       -10.9800    8.2750   24.8000 C.3   119  HIS119      0.0759
     57  CG       -12.2580    7.9750   24.0790 C.ar  119  HIS119      0.0818
     58  ND1      -12.3490    6.9950   23.1120 N.ar  119  HIS119     -0.2268
     59  CD2      -13.4990    8.5040   24.1990 C.ar  119  HIS119      0.1154
     60  CE1      -13.5900    6.9410   22.6600 C.ar  119  HIS119      0.1986
     61  NE2      -14.3070    7.8430   23.3060 N.ar  119  HIS119     -0.2212
     62  N        -11.4830   11.1880   25.5680 N.am  120  GLU120     -0.1979
     63  CA       -12.3330   12.3590   25.7530 C.3   120  GLU120      0.1602
     64  C        -11.7420   13.6190   25.1160 C.2   120  GLU120      0.2287
     65  O        -12.4760   14.4110   24.5360 O.2   120  GLU120     -0.2864
     66  CB       -12.6390   12.6070   27.2320 C.3   120  GLU120      0.0415
     67  CG       -13.4270   11.4860   27.9120 C.3   120  GLU120      0.1163
     68  CD       -14.7970   11.2650   27.2840 C.2   120  GLU120      0.3649
     69  OE1      -15.5570   12.2460   27.1390 O.co2 120  GLU120     -0.2457
     70  OE2      -15.1100   10.1130   26.9430 O.co2 120  GLU120     -0.2457
     71  N        -12.5580   13.9580   21.5720 N.3   123  HIS123     -0.1241
     72  CA       -13.8510   14.6360   21.3810 C.3   123  HIS123      0.1621
     73  C        -13.7290   16.1480   21.5560 C.2   123  HIS123      0.2264
     74  O        -14.3060   16.9040   20.7800 O.2   123  HIS123     -0.2867
     75  CB       -14.9240   14.0990   22.3360 C.3   123  HIS123      0.0745
     76  CG       -15.2940   12.6670   22.1070 C.ar  123  HIS123      0.0817
     77  ND1      -15.5530   12.1500   20.8550 N.ar  123  HIS123     -0.2268
     78  CD2      -15.4850   11.6500   22.9820 C.ar  123  HIS123      0.1154
     79  CE1      -15.8810   10.8740   20.9690 C.ar  123  HIS123      0.1986
     80  NE2      -15.8430   10.5450   22.2490 N.ar  123  HIS123     -0.2212
     81  N        -16.5880    9.1510   17.1370 N.3   129  HIS129     -0.1241
     82  CA       -16.1340    7.7770   17.2980 C.3   129  HIS129      0.1621
     83  C        -15.7030    7.1390   15.9800 C.2   129  HIS129      0.2264
     84  O        -16.2700    7.4130   14.9130 O.2   129  HIS129     -0.2867
     85  CB       -17.1950    6.9190   17.9780 C.3   129  HIS129      0.0745
     86  CG       -17.4020    7.2450   19.4220 C.ar  129  HIS129      0.0817
     87  ND1      -18.6530    7.4120   19.9700 N.ar  129  HIS129     -0.2268
     88  CD2      -16.5180    7.4400   20.4320 C.ar  129  HIS129      0.1154
     89  CE1      -18.5350    7.6940   21.2570 C.ar  129  HIS129      0.1986
     90  NE2      -17.2490    7.7130   21.5630 N.ar  129  HIS129     -0.2212
     91  N         -9.4660   -1.0680   16.7680 N.3   134  GLY134     -0.1210
     92  CA        -8.1430   -0.7990   17.3450 C.3   134  GLY134      0.1956
     93  C         -7.8960    0.6630   17.6890 C.2   134  GLY134      0.2612
     94  O         -6.8790    0.9950   18.3100 O.2   134  GLY134     -0.2717
     95  N         -8.8220    1.5380   17.3130 N.am  135  ALA135     -0.1965
     96  CA        -8.6090    2.9770   17.4610 C.3   135  ALA135      0.1728
     97  C         -8.7800    3.4590   18.8960 C.2   135  ALA135      0.2616
     98  O         -9.5760    2.9070   19.6590 O.2   135  ALA135     -0.2715
     99  CB        -9.5440    3.7370   16.5340 C.3   135  ALA135      0.0334
    100  N         -8.0340    4.4990   19.2610 N.am  136  LEU136     -0.1977
    101  CA        -8.2790    5.1800   20.5280 C.3   136  LEU136      0.1596
    102  C         -9.7320    5.6790   20.6110 C.2   136  LEU136      0.2287
    103  O        -10.3510    5.6250   21.6740 O.2   136  LEU136     -0.2864
    104  CB        -7.2960    6.3420   20.7330 C.3   136  LEU136      0.0297
    105  CG        -7.5450    7.1700   21.9990 C.3   136  LEU136      0.0022
    106  CD1       -7.4400    6.3070   23.2660 C.3   136  LEU136      0.0001
    107  CD2       -6.5870    8.3390   22.0520 C.3   136  LEU136      0.0001
    108  N        -12.4070    4.4050   19.3000 N.3   138  PHE138     -0.1228
    109  CA       -13.4480    3.3610   19.3010 C.3   138  PHE138      0.1721
    110  C        -14.3170    3.5260   20.5640 C.2   138  PHE138      0.2437
    111  O        -13.8070    3.9110   21.6080 O.2   138  PHE138     -0.2733
    112  CB       -12.7980    1.9710   19.2420 C.3   138  PHE138      0.0547
    113  CG       -13.7530    0.8570   18.8960 C.ar  138  PHE138     -0.0202
    114  CD1      -14.3420    0.7930   17.6360 C.ar  138  PHE138     -0.0042
    115  CD2      -14.0410   -0.1410   19.8260 C.ar  138  PHE138     -0.0042
    116  CE1      -15.2250   -0.2460   17.3070 C.ar  138  PHE138     -0.0003
    117  CE2      -14.9190   -1.1830   19.5090 C.ar  138  PHE138     -0.0003
    118  CZ       -15.5150   -1.2290   18.2440 C.ar  138  PHE138     -0.0000
    119  N        -15.6450    3.2870   20.4700 N.am  139  PRO139     -0.2718
    120  CA       -16.5010    3.5240   21.6420 C.3   139  PRO139      0.1535
    121  C        -16.5220    2.4590   22.7570 C.2   139  PRO139      0.2598
    122  O        -17.3280    2.5780   23.6860 O.2   139  PRO139     -0.2715
    123  CB       -17.8910    3.6560   21.0140 C.3   139  PRO139      0.0310
    124  CG       -17.8360    2.7580   19.8440 C.3   139  PRO139      0.0237
    125  CD       -16.4420    2.8820   19.2960 C.3   139  PRO139      0.0939
    126  N        -15.6660    1.4390   22.6870 N.am  140  ILE140     -0.1964
    127  CA       -15.6210    0.4280   23.7480 C.3   140  ILE140      0.1727
    128  C        -14.2450    0.4210   24.4040 C.2   140  ILE140      0.2616
    129  O        -13.2380    0.2580   23.7130 O.2   140  ILE140     -0.2715
    130  CB       -15.9250   -0.9930   23.2080 C.3   140  ILE140      0.0290
    131  CG1      -17.2800   -1.0130   22.4940 C.3   140  ILE140      0.0022
    132  CG2      -15.8550   -2.0400   24.3360 C.3   140  ILE140      0.0023
    133  CD1      -17.6220   -2.3410   21.8190 C.3   140  ILE140      0.0001
    134  N        -14.2170    0.5750   25.7300 N.am  141  TYR141     -0.1960
    135  CA       -12.9680    0.6050   26.5110 C.3   141  TYR141      0.1771
    136  C        -12.3500   -0.7870   26.6820 C.2   141  TYR141      0.2620
    137  O        -13.0280   -1.7310   27.1020 O.2   141  TYR141     -0.2715
    138  CB       -13.2180    1.2310   27.8950 C.3   141  TYR141      0.0574
    139  CG       -12.0230    1.2300   28.8390 C.ar  141  TYR141     -0.0198
    140  CD1      -11.1670    2.3300   28.9060 C.ar  141  TYR141     -0.0009
    141  CD2      -11.7710    0.1480   29.6870 C.ar  141  TYR141     -0.0009
    142  CE1      -10.0760    2.3390   29.7660 C.ar  141  TYR141      0.0417
    143  CE2      -10.6690    0.1480   30.5530 C.ar  141  TYR141      0.0417
    144  CZ        -9.8390    1.2610   30.5890 C.ar  141  TYR141      0.1957
    145  OH        -8.7590    1.2920   31.4420 O.3   141  TYR141     -0.2866
    146  N        -11.0630   -0.8870   26.3520 N.am  142  THR142     -0.1937
    147  CA       -10.2250   -2.0570   26.6550 C.3   142  THR142      0.2028
    148  C         -8.8940   -1.5540   27.2250 C.2   142  THR142      0.2642
    149  O         -8.5610   -0.3740   27.0950 O.2   142  THR142     -0.2714
    150  CB        -9.9520   -2.9420   25.4110 C.3   142  THR142      0.1808
    151  OG1       -9.2820   -2.1740   24.4040 O.3   142  THR142     -0.2208
    152  CG2      -11.2440   -3.5220   24.8390 C.3   142  THR142      0.0379
    153  N         -8.1370   -2.4420   27.8550 N.am  143  TYR143     -0.1959
    154  CA        -6.8510   -2.0720   28.4510 C.3   143  TYR143      0.1771
    155  C         -5.7900   -3.0950   28.0740 C.2   143  TYR143      0.2620
    156  O         -5.9480   -4.2730   28.3860 O.2   143  TYR143     -0.2715
    157  CB        -7.0050   -2.0020   29.9690 C.3   143  TYR143      0.0574
    158  CG        -5.7690   -1.5870   30.7250 C.ar  143  TYR143     -0.0198
    159  CD1       -4.9730   -2.5340   31.3530 C.ar  143  TYR143     -0.0009
    160  CD2       -5.4120   -0.2470   30.8330 C.ar  143  TYR143     -0.0009
    161  CE1       -3.8410   -2.1640   32.0600 C.ar  143  TYR143      0.0417
    162  CE2       -4.2840    0.1350   31.5400 C.ar  143  TYR143      0.0417
    163  CZ        -3.5040   -0.8310   32.1510 C.ar  143  TYR143      0.1957
    164  OH        -2.3780   -0.4690   32.8550 O.3   143  TYR143     -0.2866
    165  N         -4.7160   -2.6500   27.4160 N.am  144  THR144     -0.1951
    166  CA        -3.6650   -3.5650   26.9240 C.3   144  THR144      0.1897
    167  C         -2.7310   -4.0970   28.0090 C.2   144  THR144      0.2313
    168  O         -2.1840   -5.1990   27.8820 O.2   144  THR144     -0.2863
    169  CB        -2.7710   -2.9060   25.8460 C.3   144  THR144      0.1794
    170  OG1       -2.0110   -1.8440   26.4400 O.3   144  THR144     -0.2208
    171  CG2       -3.5940   -2.3770   24.6870 C.3   144  THR144      0.0378
    172  N          3.8800    1.2920   27.3470 N.3   148  HIS148     -0.1226
    173  CA         4.0090    2.3480   26.3420 C.3   148  HIS148      0.1752
    174  C          2.7520    2.4790   25.5160 C.2   148  HIS148      0.2596
    175  O          2.1290    1.4820   25.1440 O.2   148  HIS148     -0.2718
    176  CB         5.2030    2.0930   25.4210 C.3   148  HIS148      0.0759
    177  CG         6.5070    2.0460   26.1470 C.ar  148  HIS148      0.0818
    178  ND1        7.0250    0.8800   26.6660 N.ar  148  HIS148     -0.2268
    179  CD2        7.3810    3.0260   26.4730 C.ar  148  HIS148      0.1154
    180  CE1        8.1740    1.1390   27.2650 C.ar  148  HIS148      0.1986
    181  NE2        8.4080    2.4350   27.1690 N.ar  148  HIS148     -0.2212
    182  N          2.3960    3.7200   25.2190 N.am  149  PHE149     -0.1962
    183  CA         1.2240    3.9940   24.4100 C.3   149  PHE149      0.1771
    184  C          1.6290    4.5790   23.0730 C.2   149  PHE149      0.2619
    185  O          2.4350    5.5130   23.0120 O.2   149  PHE149     -0.2715
    186  CB         0.3000    4.9800   25.1300 C.3   149  PHE149      0.0574
    187  CG        -0.9160    5.3700   24.3280 C.ar  149  PHE149     -0.0200
    188  CD1       -0.8880    6.4810   23.4930 C.ar  149  PHE149     -0.0042
    189  CD2       -2.0810    4.6200   24.4020 C.ar  149  PHE149     -0.0042
    190  CE1       -2.0100    6.8500   22.7360 C.ar  149  PHE149     -0.0003
    191  CE2       -3.2160    4.9820   23.6510 C.ar  149  PHE149     -0.0003
    192  CZ        -3.1680    6.1040   22.8120 C.ar  149  PHE149     -0.0000
    193  N          1.0580    4.0430   22.0000 N.am  150  MET150     -0.1977
    194  CA         1.2480    4.6510   20.6950 C.3   150  MET150      0.1605
    195  C         -0.1030    4.8890   20.0500 C.2   150  MET150      0.2287
    196  O         -0.9350    3.9780   19.9730 O.2   150  MET150     -0.2864
    197  CB         2.1470    3.8050   19.7880 C.3   150  MET150      0.0413
    198  CG         2.6770    4.5930   18.5840 C.3   150  MET150      0.0598
    199  SD         3.6160    3.6180   17.3950 S.3   150  MET150     -0.1393
    200  CE         3.7400    4.7910   16.0390 C.3   150  MET150      0.0692
    201  N         -2.8530    4.9350   17.5700 N.3   152  PRO152     -0.2116
    202  CA        -3.1210    4.1800   16.3410 C.3   152  PRO152      0.1372
    203  C         -3.2650    5.0670   15.1020 C.2   152  PRO152      0.2244
    204  O         -3.6810    6.2280   15.2030 O.2   152  PRO152     -0.2868
    205  CB        -4.4370    3.4620   16.6490 C.3   152  PRO152      0.0268
    206  CG        -4.4620    3.3600   18.1350 C.3   152  PRO152      0.0207
    207  CD        -3.8640    4.6540   18.6050 C.3   152  PRO152      0.0892
@<TRIPOS>BOND
     1    84    83    2
     2   203   204    2
     3   203   202    1
     4    83    82    1
     5   200   199    1
     6   202   205    1
     7   202   201    1
     8    99    96    1
     9   205   206    1
    10    91    92    1
    11    81    82    1
    12    82    85    1
    13   116   114   ar
    14   116   118   ar
    15    95    96    1
    16    95    93   am
    17    92    93    1
    18   199   198    1
    19    96    97    1
    20   201   207    1
    21   114   113   ar
    22    93    94    2
    23    85    86    1
    24   206   207    1
    25   118   117   ar
    26   198   197    1
    27   113   112    1
    28   113   115   ar
    29    97   100   am
    30    97    98    2
    31   112   109    1
    32   100   101    1
    33   125   124    1
    34   125   119    1
    35   108   109    1
    36   109   110    1
    37    86    87   ar
    38    86    88   ar
    39   117   115   ar
    40   197   194    1
    41   124   123    1
    42    87    89   ar
    43   196   195    2
    44   195   194    1
    45    88    90   ar
    46   119   110   am
    47   119   120    1
    48   101   102    1
    49   101   104    1
    50   110   111    2
    51   102   103    2
    52   194   193    1
    53   104   105    1
    54    74    73    2
    55    77    79   ar
    56    77    76   ar
    57    79    80   ar
    58   123   120    1
    59    89    90   ar
    60    72    73    1
    61    72    71    1
    62    72    75    1
    63   120   121    1
    64   133   131    1
    65   105   107    1
    66   105   106    1
    67   193   184   am
    68    76    75    1
    69    76    78   ar
    70    80    78   ar
    71   131   130    1
    72    60    58   ar
    73    60    61   ar
    74   126   121   am
    75   126   127    1
    76   190   192   ar
    77   190   188   ar
    78   121   122    2
    79   192   191   ar
    80   185   184    2
    81   184   183    1
    82    58    57   ar
    83   130   127    1
    84   130   132    1
    85    61    59   ar
    86    55    54    2
    87   188   187   ar
    88   191   189   ar
    89   129   128    2
    90   127   128    1
    91    57    59   ar
    92    57    56    1
    93    53    54    1
    94    53    56    1
    95    53    52    1
    96   187   189   ar
    97   187   186    1
    98    54    62   am
    99   128   134   am
   100   151   150    1
   101   183   186    1
   102   183   182    1
   103    65    64    2
   104    35    34    2
   105   171   169    1
   106   152   150    1
   107    64    63    1
   108   175   174    2
   109   182   174   am
   110   150   147    1
   111   176   177    1
   112   176   173    1
   113    34    33    1
   114   174   173    1
   115    62    63    1
   116   134   135    1
   117    63    66    1
   118   169   170    1
   119   169   166    1
   120    36    33    1
   121   177   179   ar
   122   177   178   ar
   123    43    42    1
   124   173   172    1
   125   146   147    1
   126   146   136   am
   127   179   181   ar
   128    33    32    1
   129   135   136    1
   130   135   138    1
   131   147   148    1
   132   178   180   ar
   133   136   137    2
   134    32    24   am
   135   166   165    1
   136   166   167    1
   137    70    68   ar
   138   149   148    2
   139    40    39    2
   140    69    68   ar
   141   181   180   ar
   142   148   153   am
   143    66    67    1
   144    68    67    1
   145    42    44    1
   146    42    41    1
   147   165   155   am
   148   153   154    1
   149   168   167    2
   150   138   139    1
   151    48    47    2
   152   155   156    2
   153   155   154    1
   154    24    23    1
   155    24    25    2
   156    39    38    1
   157    39    45   am
   158    26    23    1
   159    26    27    1
   160    23    22    1
   161   154   157    1
   162    38    41    1
   163    38    37    1
   164    47    46    1
   165   139   140   ar
   166   139   141   ar
   167   140   142   ar
   168     8     6    1
   169    46    45    1
   170    46    49    1
   171    20    19    2
   172    27    29   ar
   173    27    28   ar
   174    16    14    1
   175   141   143   ar
   176    22    19   am
   177   142   144   ar
   178    19    18    1
   179   157   158    1
   180    29    31   ar
   181    28    30   ar
   182    50    49    1
   183    49    51    1
   184   143   144   ar
   185   144   145    1
   186     6     7    1
   187     6     5    1
   188   158   160   ar
   189   158   159   ar
   190    15    14    1
   191   160   162   ar
   192    21    18    1
   193    14    13    1
   194    30    31   ar
   195    18    17    1
   196     2     5    1
   197     2     1    1
   198     2     3    1
   199    17    11   am
   200   159   161   ar
   201   162   163   ar
   202     9     3   am
   203     9    10    1
   204    13    10    1
   205   161   163   ar
   206   163   164    1
   207     3     4    2
   208    11    10    1
   209    11    12    2
