@<TRIPOS>MOLECULE
tmp/5b5sA00.pdb
 101 92 0 0 0
SMALL
GASTEIGER

@<TRIPOS>ATOM
      1  N          7.8570   -0.1850   24.8690 N.3    10  SER10      -0.1217
      2  CA         6.9020   -0.6150   25.9090 C.3    10  SER10       0.1889
      3  C          7.1910   -0.0650   27.2910 C.2    10  SER10       0.2288
      4  O          6.2720    0.1200   28.0950 O.2    10  SER10      -0.2866
      5  CB         6.8970   -2.1050   25.9890 C.3    10  SER10       0.2089
      6  OG         8.1700   -2.6300   26.3050 O.3    10  SER10      -0.2183
      7  N          3.4350    1.0220   28.2940 N.3    14  ILE14      -0.1245
      8  CA         2.6430    0.1930   29.1740 C.3    14  ILE14       0.1561
      9  C          2.9930    0.2400   30.6990 C.2    14  ILE14       0.2260
     10  O          2.5190   -0.5810   31.5040 O.2    14  ILE14      -0.2867
     11  CB         2.4530   -1.3090   28.6750 C.3    14  ILE14       0.0252
     12  CG1        3.7170   -2.1230   28.4090 C.3    14  ILE14       0.0019
     13  CG2        1.7230   -1.3760   27.3560 C.3    14  ILE14       0.0019
     14  CD1        4.3740   -2.6520   29.5750 C.3    14  ILE14       0.0001
     15  N         -2.2280    2.0370   31.0180 N.3    44  GLN44      -0.1245
     16  CA        -2.7400    0.8320   31.6250 C.3    44  GLN44       0.1566
     17  C         -3.6690    1.1600   32.7650 C.2    44  GLN44       0.2260
     18  O         -3.4500    2.1290   33.4840 O.2    44  GLN44      -0.2867
     19  CB        -1.6270   -0.1200   32.0650 C.3    44  GLN44       0.0367
     20  CG        -0.8750   -0.7410   30.8900 C.3    44  GLN44       0.0905
     21  CD        -1.8570   -1.3600   29.8620 C.2    44  GLN44       0.2608
     22  OE1       -1.9480   -0.9790   28.6580 O.2    44  GLN44      -0.2717
     23  NE2       -2.6510   -2.2650   30.3620 N.am   44  GLN44      -0.0878
     24  N         -4.2850   -0.2700   35.5070 N.3    46  ASN46      -0.1240
     25  CA        -3.7230   -0.3820   36.8190 C.3    46  ASN46       0.1653
     26  C         -2.8110    0.7470   37.2620 C.2    46  ASN46       0.2266
     27  O         -2.4590    0.8020   38.4120 O.2    46  ASN46      -0.2867
     28  CB        -3.1560   -1.7860   36.9960 C.3    46  ASN46       0.1155
     29  CG        -1.9160   -2.0700   36.1490 C.2    46  ASN46       0.2627
     30  OD1       -1.5330   -1.2870   35.3170 O.2    46  ASN46      -0.2716
     31  ND2       -1.2730   -3.2040   36.4010 N.am   46  ASN46      -0.0877
     32  N          5.1750   -0.3500   21.9930 N.3    61  SER61      -0.1202
     33  CA         5.6860   -1.6230   22.4620 C.3    61  SER61       0.2020
     34  C          6.3190   -2.4410   21.3310 C.2    61  SER61       0.2619
     35  O          5.6880   -2.6430   20.3450 O.2    61  SER61      -0.2717
     36  CB         4.5720   -2.4440   23.1850 C.3    61  SER61       0.2103
     37  OG         4.0740   -1.7840   24.3290 O.3    61  SER61      -0.2182
     38  N          7.5420   -2.9260   21.5570 N.am   62  GLY62      -0.1956
     39  CA         8.2820   -3.7900   20.6600 C.3    62  GLY62       0.1869
     40  C          9.0480   -3.0420   19.5940 C.2    62  GLY62       0.2309
     41  O          9.8240   -3.6790   18.8940 O.2    62  GLY62      -0.2863
     42  N         14.5010   -3.2690   22.5000 N.3    92  ASN92      -0.1240
     43  CA        14.0370   -4.1920   21.4510 C.3    92  ASN92       0.1653
     44  C         15.0510   -4.3660   20.3690 C.2    92  ASN92       0.2266
     45  O         15.1350   -5.4570   19.8090 O.2    92  ASN92      -0.2867
     46  CB        12.7560   -3.6510   20.8710 C.3    92  ASN92       0.1155
     47  CG        11.6750   -3.5330   21.9130 C.2    92  ASN92       0.2627
     48  OD1       11.4190   -4.4920   22.6880 O.2    92  ASN92      -0.2716
     49  ND2       10.9880   -2.4190   21.9170 N.am   92  ASN92      -0.0877
     50  N         16.8580   -7.2330   22.1330 N.3    95  ASN95      -0.1225
     51  CA        16.1400   -8.5100   22.4230 C.3    95  ASN95       0.1785
     52  C         15.4350   -9.0800   21.2000 C.2    95  ASN95       0.2597
     53  O         15.2910  -10.2630   21.1080 O.2    95  ASN95      -0.2718
     54  CB        15.1310   -8.3640   23.5380 C.3    95  ASN95       0.1169
     55  CG        15.7670   -8.1040   24.8880 C.2    95  ASN95       0.2627
     56  OD1       16.8270   -8.5330   25.1860 O.2    95  ASN95      -0.2716
     57  ND2       15.0790   -7.3580   25.6950 N.am   95  ASN95      -0.0877
     58  N         14.9080   -8.1950   20.3340 N.am   96  ILE96      -0.1980
     59  CA        14.2390   -8.5650   19.0860 C.3    96  ILE96       0.1595
     60  C         15.1700   -8.5210   17.8800 C.2    96  ILE96       0.2287
     61  O         15.2360   -9.4980   17.1140 O.2    96  ILE96      -0.2864
     62  CB        12.9480   -7.7010   18.8440 C.3    96  ILE96       0.0276
     63  CG1       12.0710   -7.8470   20.0860 C.3    96  ILE96       0.0022
     64  CG2       12.1930   -8.1780   17.5590 C.3    96  ILE96       0.0022
     65  CD1       10.7610   -7.1390   19.9870 C.3    96  ILE96       0.0001
     66  N          9.2050   -6.4400   36.5710 N.3   177  ARG177     -0.1245
     67  CA         8.1530   -7.4900   36.5070 C.3   177  ARG177      0.1563
     68  C          8.7590   -8.8920   36.3240 C.2   177  ARG177      0.2260
     69  O          9.9780   -9.0500   36.0480 O.2   177  ARG177     -0.2867
     70  CB         7.1900   -7.1840   35.3940 C.3   177  ARG177      0.0307
     71  CG         6.6010   -5.8140   35.5550 C.3   177  ARG177      0.0489
     72  CD         5.5200   -5.6220   34.4210 C.3   177  ARG177      0.2205
     73  NE         5.2210   -4.2200   34.1260 N.pl3 177  ARG177     -0.0865
     74  CZ         4.2990   -3.8130   33.2940 C.cat 177  ARG177      0.5346
     75  NH1        3.6610   -4.7030   32.5030 N.pl3 177  ARG177      0.1354
     76  NH2        4.0830   -2.4950   33.2060 N.pl3 177  ARG177      0.1354
     77  N          8.6200  -10.7400   33.8640 N.3   179  ASP179     -0.1239
     78  CA         9.2460  -10.9600   32.5120 C.3   179  ASP179      0.1674
     79  C         10.7200  -10.4990   32.3970 C.2   179  ASP179      0.2266
     80  O         11.3580  -10.7810   31.4590 O.2   179  ASP179     -0.2867
     81  CB         8.3360  -10.3150   31.4190 C.3   179  ASP179      0.1410
     82  CG         8.2620   -8.7710   31.4860 C.2   179  ASP179      0.3668
     83  OD1        9.0470   -8.1000   32.1950 O.co2 179  ASP179     -0.2456
     84  OD2        7.3790   -8.2320   30.7900 O.co2 179  ASP179     -0.2456
     85  N         11.9350   -7.6260   32.0810 N.3   181  VAL181     -0.1231
     86  CA        12.1810   -6.5340   31.0910 C.3   181  VAL181      0.1692
     87  C         11.4710   -5.2470   31.5110 C.2   181  VAL181      0.2592
     88  O         12.0330   -4.1870   31.3860 O.2   181  VAL181     -0.2718
     89  CB        11.6890   -6.9540   29.7110 C.3   181  VAL181      0.0266
     90  CG1       11.7500   -5.8090   28.6790 C.3   181  VAL181      0.0020
     91  CG2       12.5790   -8.0720   29.2590 C.3   181  VAL181      0.0020
     92  N         10.1980   -5.3420   31.9410 N.am  182  HIS182     -0.1976
     93  CA         9.4860   -4.1100   32.2680 C.3   182  HIS182      0.1656
     94  C          9.5630   -3.7360   33.7260 C.2   182  HIS182      0.2291
     95  O          9.6140   -4.6250   34.5560 O.2   182  HIS182     -0.2864
     96  CB         8.0510   -4.2590   31.8730 C.3   182  HIS182      0.0771
     97  CG         7.9340   -4.4720   30.4360 C.ar  182  HIS182      0.0820
     98  ND1        7.8280   -5.7190   29.8900 N.ar  182  HIS182     -0.2267
     99  CD2        7.9870   -3.5820   29.4080 C.ar  182  HIS182      0.1154
    100  CE1        7.7420   -5.5820   28.5650 C.ar  182  HIS182      0.1986
    101  NE2        7.9290   -4.3100   28.2540 N.ar  182  HIS182     -0.2212
@<TRIPOS>BOND
     1    61    60    2
     2    64    62    1
     3    60    59    1
     4    62    59    1
     5    62    63    1
     6    41    40    2
     7    59    58    1
     8    40    39    1
     9    45    44    2
    10    65    63    1
    11    58    52   am
    12    35    34    2
    13    44    43    1
    14    39    38    1
    15    46    43    1
    16    46    47    1
    17    53    52    2
    18    52    51    1
    19    34    38   am
    20    34    33    1
    21    43    42    1
    22    47    49   am
    23    47    48    2
    24    32    33    1
    25    50    51    1
    26    51    54    1
    27    33    36    1
    28    36    37    1
    29    54    55    1
    30     1     2    1
    31    55    56    2
    32    55    57   am
    33     2     5    1
    34     2     3    1
    35     5     6    1
    36     3     4    2
    37    13    11    1
    38   101   100   ar
    39   101    99   ar
    40     7     8    1
    41    12    11    1
    42    12    14    1
    43   100    98   ar
    44    22    21    2
    45    11     8    1
    46    90    89    1
    47     8     9    1
    48    91    89    1
    49    99    97   ar
    50    89    86    1
    51    21    23   am
    52    21    20    1
    53    98    97   ar
    54    97    96    1
    55     9    10    2
    56    84    82   ar
    57    20    19    1
    58    15    16    1
    59    86    87    1
    60    86    85    1
    61    88    87    2
    62    81    82    1
    63    81    78    1
    64    80    79    2
    65    82    83   ar
    66    87    92   am
    67    16    19    1
    68    16    17    1
    69    96    93    1
    70    92    93    1
    71    93    94    1
    72    79    78    1
    73    75    74    1
    74    78    77    1
    75    17    18    2
    76    76    74    1
    77    74    73    2
    78    94    95    2
    79    73    72    1
    80    72    71    1
    81    30    29    2
    82    70    71    1
    83    70    67    1
    84    24    25    1
    85    69    68    2
    86    29    31   am
    87    29    28    1
    88    68    67    1
    89    67    66    1
    90    25    28    1
    91    25    26    1
    92    26    27    2
