@<TRIPOS>MOLECULE
tmp/5b5tB00.pdb
 150 141 0 0 0
SMALL
GASTEIGER

@<TRIPOS>ATOM
      1  N         13.8210  -33.9780  -31.3600 N.3     1  THR1       -0.1218
      2  CA        13.3750  -32.7140  -30.7750 C.3     1  THR1        0.1862
      3  C         13.5930  -31.5610  -31.7470 C.2     1  THR1        0.2287
      4  O         14.5220  -31.5830  -32.5470 O.2     1  THR1       -0.2866
      5  CB        14.1460  -32.4040  -29.4790 C.3     1  THR1        0.1770
      6  OG1       14.3000  -33.6100  -28.7240 O.3     1  THR1       -0.2211
      7  CG2       13.3870  -31.3770  -28.6270 C.3     1  THR1        0.0375
      8  N          8.8400  -32.6970  -29.1200 N.3    19  THR19      -0.1218
      9  CA         9.7220  -33.7990  -29.4680 C.3    19  THR19       0.1862
     10  C          9.0090  -35.1440  -29.4000 C.2    19  THR19       0.2287
     11  O          8.0350  -35.3270  -28.6690 O.2    19  THR19      -0.2866
     12  CB        10.9130  -33.8050  -28.5260 C.3    19  THR19       0.1770
     13  OG1       11.8740  -34.7710  -28.9760 O.3    19  THR19      -0.2211
     14  CG2       10.4760  -34.1370  -27.1030 C.3    19  THR19       0.0375
     15  N         11.2420  -37.3950  -28.5970 N.3    21  ASN21      -0.1225
     16  CA        12.4960  -37.7800  -27.9490 C.3    21  ASN21       0.1785
     17  C         13.5210  -38.0720  -29.0370 C.2    21  ASN21       0.2598
     18  O         14.0370  -37.1270  -29.6360 O.2    21  ASN21      -0.2718
     19  CB        12.3670  -38.9470  -26.9670 C.3    21  ASN21       0.1169
     20  CG        13.6520  -39.1740  -26.1970 C.2    21  ASN21       0.2627
     21  OD1       14.5050  -38.2850  -26.1620 O.2    21  ASN21      -0.2716
     22  ND2       13.8000  -40.3430  -25.5740 N.am   21  ASN21      -0.0877
     23  N         13.8330  -39.3390  -29.3160 N.am   22  THR22      -0.1939
     24  CA        14.8420  -39.5740  -30.3410 C.3    22  THR22       0.2028
     25  C         14.2640  -39.3170  -31.7320 C.2    22  THR22       0.2642
     26  O         13.0670  -39.0560  -31.8990 O.2    22  THR22      -0.2714
     27  CB        15.4220  -40.9930  -30.2590 C.3    22  THR22       0.1808
     28  OG1       14.4390  -41.9780  -30.6120 O.3    22  THR22      -0.2208
     29  CG2       15.9300  -41.2820  -28.8610 C.3    22  THR22       0.0379
     30  N         15.1410  -39.3720  -32.7390 N.am   23  THR23      -0.1950
     31  CA        14.7220  -39.0870  -34.1110 C.3    23  THR23       0.1897
     32  C         13.7170  -40.1310  -34.5730 C.2    23  THR23       0.2313
     33  O         14.0260  -41.3270  -34.6210 O.2    23  THR23      -0.2863
     34  CB        15.9330  -39.0380  -35.0440 C.3    23  THR23       0.1794
     35  OG1       16.9150  -38.1470  -34.4950 O.3    23  THR23      -0.2208
     36  CG2       15.5280  -38.5090  -36.4460 C.3    23  THR23       0.0378
     37  N          9.5000  -41.2010  -25.1480 N.3    40  GLN40      -0.1245
     38  CA         9.8120  -40.3130  -24.0360 C.3    40  GLN40       0.1566
     39  C         10.0840  -41.0540  -22.7330 C.2    40  GLN40       0.2260
     40  O         10.6660  -40.4590  -21.8200 O.2    40  GLN40      -0.2867
     41  CB         8.6730  -39.3120  -23.8160 C.3    40  GLN40       0.0367
     42  CG         9.1650  -37.8740  -23.6100 C.3    40  GLN40       0.0905
     43  CD         9.7620  -37.3050  -24.8860 C.2    40  GLN40       0.2608
     44  OE1       10.9140  -36.8620  -24.9100 O.2    40  GLN40      -0.2717
     45  NE2        8.9870  -37.3540  -25.9710 N.am   40  GLN40      -0.0878
     46  N         13.3230  -40.8920  -20.7710 N.3    43  ASP43      -0.1239
     47  CA        13.7710  -39.7300  -20.0140 C.3    43  ASP43       0.1674
     48  C         13.5750  -39.9160  -18.5140 C.2    43  ASP43       0.2266
     49  O         14.0950  -39.1180  -17.7280 O.2    43  ASP43      -0.2867
     50  CB        13.0520  -38.4620  -20.4830 C.3    43  ASP43       0.1410
     51  CG        13.6940  -37.8470  -21.7280 C.2    43  ASP43       0.3668
     52  OD1       14.7980  -38.2790  -22.1160 O.co2  43  ASP43      -0.2456
     53  OD2       13.0860  -36.9250  -22.3170 O.co2  43  ASP43      -0.2456
     54  N         21.1170  -39.9660  -23.1620 N.3    54  TYR54      -0.1241
     55  CA        21.8740  -38.7140  -23.1680 C.3    54  TYR54       0.1605
     56  C         22.9340  -38.6540  -22.0660 C.2    54  TYR54       0.2264
     57  O         23.5730  -37.6100  -21.8880 O.2    54  TYR54      -0.2867
     58  CB        20.9260  -37.5090  -23.0470 C.3    54  TYR54       0.0534
     59  CG        19.8610  -37.5340  -24.1130 C.ar   54  TYR54      -0.0201
     60  CD1       20.1980  -37.3890  -25.4500 C.ar   54  TYR54      -0.0009
     61  CD2       18.5250  -37.7610  -23.7890 C.ar   54  TYR54      -0.0009
     62  CE1       19.2340  -37.4460  -26.4370 C.ar   54  TYR54       0.0417
     63  CE2       17.5510  -37.8250  -24.7740 C.ar   54  TYR54       0.0417
     64  CZ        17.9200  -37.6710  -26.0990 C.ar   54  TYR54       0.1957
     65  OH        16.9710  -37.7330  -27.0880 O.3    54  TYR54      -0.2866
     66  N         22.2880  -38.8140  -18.8920 N.3    56  LEU56      -0.1245
     67  CA        21.7040  -38.2220  -17.7000 C.3    56  LEU56       0.1561
     68  C         21.3440  -39.3200  -16.7040 C.2    56  LEU56       0.2260
     69  O         21.0130  -40.4490  -17.0800 O.2    56  LEU56      -0.2867
     70  CB        20.4650  -37.3930  -18.0540 C.3    56  LEU56       0.0270
     71  CG        20.7480  -36.1520  -18.9130 C.3    56  LEU56       0.0019
     72  CD1       19.4680  -35.5800  -19.5070 C.3    56  LEU56       0.0001
     73  CD2       21.4690  -35.0900  -18.0960 C.3    56  LEU56       0.0001
     74  N         12.4240  -33.4710  -18.3740 N.3    72  SER72      -0.1202
     75  CA        12.8650  -32.9920  -19.6760 C.3    72  SER72       0.2020
     76  C         14.0250  -32.0180  -19.5010 C.2    72  SER72       0.2619
     77  O         14.2470  -31.4780  -18.4160 O.2    72  SER72      -0.2717
     78  CB        11.7160  -32.2950  -20.4160 C.3    72  SER72       0.2103
     79  OG        12.1470  -31.8160  -21.6840 O.3    72  SER72      -0.2182
     80  N         14.7940  -31.8260  -20.5670 N.am   73  SER73      -0.1937
     81  CA        15.7800  -30.7550  -20.6130 C.3    73  SER73       0.2055
     82  C         15.3500  -29.6120  -21.5170 C.2    73  SER73       0.2642
     83  O         16.0890  -28.6310  -21.6500 O.2    73  SER73      -0.2714
     84  CB        17.1380  -31.2900  -21.0740 C.3    73  SER73       0.2130
     85  OG        17.6340  -32.2610  -20.1440 O.3    73  SER73      -0.2179
     86  N         14.1700  -29.6950  -22.1230 N.am   74  MET74      -0.1976
     87  CA        13.7770  -28.6910  -23.1070 C.3    74  MET74       0.1605
     88  C         13.5680  -27.3370  -22.4450 C.2    74  MET74       0.2287
     89  O         12.9510  -27.2420  -21.3820 O.2    74  MET74      -0.2864
     90  CB        12.5130  -29.1450  -23.8250 C.3    74  MET74       0.0413
     91  CG        12.7390  -30.3600  -24.7280 C.3    74  MET74       0.0598
     92  SD        11.2650  -30.7960  -25.6890 S.3    74  MET74      -0.1393
     93  CE        10.3190  -31.7330  -24.4800 C.3    74  MET74       0.0692
     94  N         16.9550  -28.0920  -29.6610 N.3    92  PRO92      -0.2102
     95  CA        17.0600  -29.5030  -29.2920 C.3    92  PRO92       0.1504
     96  C         18.4480  -29.7990  -28.7530 C.2    92  PRO92       0.2576
     97  O         19.3230  -28.9250  -28.7660 O.2    92  PRO92      -0.2718
     98  CB        16.8100  -30.2320  -30.6230 C.3    92  PRO92       0.0282
     99  CG        17.3610  -29.2750  -31.6450 C.3    92  PRO92       0.0208
    100  CD        16.9920  -27.8960  -31.1230 C.3    92  PRO92       0.0893
    101  N         18.6590  -31.0260  -28.2750 N.am   93  GLY93      -0.1943
    102  CA        19.9830  -31.4480  -27.8730 C.3    93  GLY93       0.2014
    103  C         19.9970  -32.3140  -26.6300 C.2    93  GLY93       0.2639
    104  O         21.0660  -32.5430  -26.0560 O.2    93  GLY93      -0.2714
    105  N         18.8280  -32.7940  -26.2070 N.am   94  GLY94      -0.1954
    106  CA        18.7350  -33.5730  -24.9860 C.3    94  GLY94       0.1869
    107  C         19.4030  -32.8530  -23.8340 C.2    94  GLY94       0.2309
    108  O         19.0770  -31.7050  -23.5370 O.2    94  GLY94      -0.2863
    109  N         22.1480  -31.4260  -23.7380 N.3    96  ARG96      -0.1231
    110  CA        22.8860  -30.2420  -24.1540 C.3    96  ARG96       0.1694
    111  C         21.9910  -29.0300  -24.3950 C.2    96  ARG96       0.2591
    112  O         22.5100  -27.9430  -24.6820 O.2    96  ARG96      -0.2718
    113  CB        23.7140  -30.5610  -25.4210 C.3    96  ARG96       0.0321
    114  CG        24.8610  -31.5870  -25.2190 C.3    96  ARG96       0.0489
    115  CD        24.4280  -33.0680  -25.4400 C.3    96  ARG96       0.2205
    116  NE        23.9460  -33.3080  -26.8000 N.pl3  96  ARG96      -0.0865
    117  CZ        23.4700  -34.4690  -27.2440 C.cat  96  ARG96       0.5346
    118  NH1       23.4070  -35.5290  -26.4390 N.pl3  96  ARG96       0.1354
    119  NH2       23.0560  -34.5740  -28.5020 N.pl3  96  ARG96       0.1354
    120  N         20.6700  -29.1940  -24.3110 N.am   97  ILE97      -0.1980
    121  CA        19.7640  -28.0570  -24.4830 C.3    97  ILE97       0.1595
    122  C         20.0950  -26.9620  -23.4840 C.2    97  ILE97       0.2287
    123  O         20.1470  -25.7740  -23.8270 O.2    97  ILE97      -0.2864
    124  CB        18.2970  -28.5010  -24.3420 C.3    97  ILE97       0.0276
    125  CG1       17.9140  -29.4470  -25.4780 C.3    97  ILE97       0.0022
    126  CG2       17.3670  -27.2770  -24.2990 C.3    97  ILE97       0.0022
    127  CD1       16.5090  -29.9710  -25.3710 C.3    97  ILE97       0.0001
    128  N         28.2850  -31.8190  -33.7880 N.3   159  ALA159     -0.1231
    129  CA        27.7180  -30.4910  -33.5800 C.3   159  ALA159      0.1694
    130  C         26.5070  -30.5770  -32.6560 C.2   159  ALA159      0.2592
    131  O         25.7220  -31.5280  -32.7140 O.2   159  ALA159     -0.2718
    132  CB        27.3170  -29.8520  -34.9070 C.3   159  ALA159      0.0304
    133  N         26.3460  -29.5610  -31.8100 N.am  160  MET160     -0.1965
    134  CA        25.3140  -29.5440  -30.7740 C.3   160  MET160      0.1736
    135  C         24.2330  -28.5200  -31.0940 C.2   160  MET160      0.2617
    136  O         24.5040  -27.3180  -31.1050 O.2   160  MET160     -0.2715
    137  CB        25.9140  -29.2200  -29.4030 C.3   160  MET160      0.0427
    138  CG        26.7760  -30.3010  -28.7960 C.3   160  MET160      0.0599
    139  SD        27.3280  -29.7540  -27.1520 S.3   160  MET160     -0.1393
    140  CE        28.7610  -28.7570  -27.5210 C.3   160  MET160      0.0692
    141  N         23.0160  -29.0020  -31.3630 N.am  161  GLY161     -0.1940
    142  CA        21.8330  -28.1650  -31.2840 C.3   161  GLY161      0.2014
    143  C         21.3210  -27.6270  -32.6100 C.2   161  GLY161      0.2639
    144  O         21.8590  -27.8680  -33.6970 O.2   161  GLY161     -0.2714
    145  N         20.2060  -26.9040  -32.5010 N.am  162  SER162     -0.1949
    146  CA        19.6180  -26.1850  -33.6220 C.3   162  SER162      0.1924
    147  C         18.8090  -25.0230  -33.0660 C.2   162  SER162      0.2314
    148  O         17.5840  -25.1200  -32.9290 O.2   162  SER162     -0.2863
    149  CB        18.7270  -27.0970  -34.4680 C.3   162  SER162      0.2116
    150  OG        18.1910  -26.4070  -35.5940 O.3   162  SER162     -0.2180
@<TRIPOS>BOND
     1    36    34    1
     2   150   149    1
     3    34    35    1
     4    34    31    1
     5   132   129    1
     6    33    32    2
     7    32    31    1
     8   149   146    1
     9    31    30    1
    10   128   129    1
    11   144   143    2
    12   146   147    1
    13   146   145    1
    14   129   130    1
    15   147   148    2
    16    30    25   am
    17   131   130    2
    18   130   133   am
    19   143   145   am
    20   143   142    1
    21     4     3    2
    22    26    25    2
    23   133   134    1
    24     3     2    1
    25    25    24    1
    26    99   100    1
    27    99    98    1
    28   141   142    1
    29   141   135   am
    30     1     2    1
    31   100    94    1
    32   136   135    2
    33   135   134    1
    34     2     5    1
    35   134   137    1
    36    98    95    1
    37    28    27    1
    38    24    27    1
    39    24    23    1
    40    27    29    1
    41    94    95    1
    42    18    17    2
    43     5     6    1
    44     5     7    1
    45     9    10    1
    46     9     8    1
    47     9    12    1
    48   137   138    1
    49    10    11    2
    50    23    17   am
    51    95    96    1
    52    17    16    1
    53    13    12    1
    54   138   139    1
    55    97    96    2
    56    96   101   am
    57    15    16    1
    58    12    14    1
    59   119   117    1
    60   101   102    1
    61    16    19    1
    62   102   103    1
    63   140   139    1
    64   117   116    2
    65   117   118    1
    66    65    64    1
    67    19    20    1
    68   116   115    1
    69   103   105   am
    70   103   104    2
    71    62    64   ar
    72    62    60   ar
    73   105   106    1
    74    20    21    2
    75    20    22   am
    76    64    63   ar
    77    45    43   am
    78    92    91    1
    79    92    93    1
    80   125   127    1
    81   125   124    1
    82    60    59   ar
    83   115   114    1
    84   113   114    1
    85   113   110    1
    86    37    38    1
    87   106   107    1
    88    44    43    2
    89    43    42    1
    90    63    61   ar
    91    91    90    1
    92   112   111    2
    93   121   124    1
    94   121   120    1
    95   121   122    1
    96   111   120   am
    97   111   110    1
    98   124   126    1
    99   110   109    1
   100    59    61   ar
   101    59    58    1
   102    38    41    1
   103    38    39    1
   104   107   108    2
   105   123   122    2
   106    90    87    1
   107    41    42    1
   108    55    54    1
   109    55    58    1
   110    55    56    1
   111    87    88    1
   112    87    86    1
   113    39    40    2
   114    88    89    2
   115    53    51   ar
   116    86    82   am
   117    52    51   ar
   118    56    57    2
   119    51    50    1
   120    79    78    1
   121    83    82    2
   122    82    81    1
   123    84    81    1
   124    84    85    1
   125    46    47    1
   126    81    80    1
   127    80    76   am
   128    50    47    1
   129    78    75    1
   130    47    48    1
   131    75    76    1
   132    75    74    1
   133    72    71    1
   134    76    77    2
   135    71    73    1
   136    71    70    1
   137    66    67    1
   138    48    49    2
   139    70    67    1
   140    67    68    1
   141    69    68    2
