@<TRIPOS>MOLECULE
tmp/5b68A00.pdb
 136 132 0 0 0
SMALL
GASTEIGER

@<TRIPOS>ATOM
      1  N        -21.3260   46.9410   -1.9180 N.3   232  TYR232     -0.1241
      2  CA       -22.5220   46.2390   -2.2830 C.3   232  TYR232      0.1605
      3  C        -23.7090   47.2170   -2.3890 C.2   232  TYR232      0.2264
      4  O        -24.8210   46.7980   -2.6490 O.2   232  TYR232     -0.2867
      5  CB       -22.8130   45.0580   -1.3140 C.3   232  TYR232      0.0534
      6  CG       -21.8050   43.8980   -1.4690 C.ar  232  TYR232     -0.0201
      7  CD1      -21.9800   42.9370   -2.4530 C.ar  232  TYR232     -0.0009
      8  CD2      -20.6400   43.8060   -0.6380 C.ar  232  TYR232     -0.0009
      9  CE1      -21.0440   41.9070   -2.6550 C.ar  232  TYR232      0.0417
     10  CE2      -19.7090   42.8010   -0.8230 C.ar  232  TYR232      0.0417
     11  CZ       -19.9090   41.8480   -1.8100 C.ar  232  TYR232      0.1957
     12  OH       -19.0020   40.8140   -1.9590 O.3   232  TYR232     -0.2866
     13  N        -25.5930   42.5970   -6.0870 N.3   386  VAL386     -0.1245
     14  CA       -26.9690   42.2480   -6.4700 C.3   386  VAL386      0.1561
     15  C        -27.7290   43.4280   -7.1100 C.2   386  VAL386      0.2260
     16  O        -28.6530   43.2350   -7.8890 O.2   386  VAL386     -0.2867
     17  CB       -27.8810   41.8170   -5.2690 C.3   386  VAL386      0.0252
     18  CG1      -29.0490   41.0230   -5.8530 C.3   386  VAL386      0.0019
     19  CG2      -27.1580   40.9740   -4.2990 C.3   386  VAL386      0.0019
     20  N        -34.8220   41.2410    5.8480 N.3   420  GLN420     -0.1245
     21  CA       -33.9350   42.3110    5.4600 C.3   420  GLN420      0.1566
     22  C        -34.4660   43.1180    4.3000 C.2   420  GLN420      0.2260
     23  O        -35.1210   42.5980    3.4300 O.2   420  GLN420     -0.2867
     24  CB       -32.5920   41.7580    5.0590 C.3   420  GLN420      0.0367
     25  CG       -31.9520   40.8680    6.0850 C.3   420  GLN420      0.0905
     26  CD       -30.8160   40.0870    5.4940 C.2   420  GLN420      0.2608
     27  OE1      -30.8740   38.8790    5.3970 O.2   420  GLN420     -0.2717
     28  NE2      -29.7830   40.7820    5.0760 N.am  420  GLN420     -0.0878
     29  N        -32.6410   45.3830    1.4730 N.3   422  TRP422     -0.1241
     30  CA       -31.3540   45.8060    0.9330 C.3   422  TRP422      0.1605
     31  C        -31.4440   47.1340    0.1980 C.2   422  TRP422      0.2264
     32  O        -30.4490   47.7220   -0.1340 O.2   422  TRP422     -0.2867
     33  CB       -30.7800   44.7410    0.0060 C.3   422  TRP422      0.0550
     34  CG       -30.6160   43.4310    0.6480 C.ar  422  TRP422      0.0003
     35  CD1      -30.5030   43.1960    1.9590 C.ar  422  TRP422      0.0946
     36  CD2      -30.5510   42.1570    0.0070 C.ar  422  TRP422      0.0152
     37  NE1      -30.3750   41.8660    2.1960 N.ar  422  TRP422     -0.2442
     38  CE2      -30.4020   41.2020    1.0060 C.ar  422  TRP422      0.0810
     39  CE3      -30.6140   41.7340   -1.3130 C.ar  422  TRP422      0.0012
     40  CZ2      -30.3020   39.8530    0.7320 C.ar  422  TRP422      0.0191
     41  CZ3      -30.5110   40.3920   -1.5780 C.ar  422  TRP422      0.0001
     42  CH2      -30.3690   39.4710   -0.5650 C.ar  422  TRP422      0.0015
     43  N        -32.4780   47.9980   -2.7980 N.3   424  GLN424     -0.1245
     44  CA       -32.2560   48.1110   -4.2290 C.3   424  GLN424      0.1566
     45  C        -33.5430   48.0710   -5.0410 C.2   424  GLN424      0.2260
     46  O        -34.4300   47.3320   -4.7010 O.2   424  GLN424     -0.2867
     47  CB       -31.3260   46.9960   -4.6670 C.3   424  GLN424      0.0367
     48  CG       -30.0240   46.9650   -3.8950 C.3   424  GLN424      0.0905
     49  CD       -29.5770   45.5700   -3.5980 C.2   424  GLN424      0.2608
     50  OE1      -30.2660   44.6250   -3.9120 O.2   424  GLN424     -0.2717
     51  NE2      -28.4090   45.4330   -3.0200 N.am  424  GLN424     -0.0878
     52  N        -17.9190   36.4100   -9.7380 N.3   455  ARG455     -0.1245
     53  CA       -18.6630   35.8800   -8.6470 C.3   455  ARG455      0.1563
     54  C        -19.9320   36.7000   -8.5350 C.2   455  ARG455      0.2260
     55  O        -19.8990   37.8950   -8.3450 O.2   455  ARG455     -0.2867
     56  CB       -17.8700   35.9900   -7.3620 C.3   455  ARG455      0.0307
     57  CG       -18.6670   35.6050   -6.1420 C.3   455  ARG455      0.0489
     58  CD       -18.1350   36.2830   -4.9080 C.3   455  ARG455      0.2205
     59  NE       -18.6740   35.6550   -3.7280 N.pl3 455  ARG455     -0.0865
     60  CZ       -19.6580   36.1520   -3.0140 C.cat 455  ARG455      0.5346
     61  NH1      -20.1970   37.2980   -3.3450 N.pl3 455  ARG455      0.1354
     62  NH2      -20.0860   35.4970   -1.9630 N.pl3 455  ARG455      0.1354
     63  N        -23.0830   37.6720   -6.6170 N.3   457  ASP457     -0.1225
     64  CA       -23.7180   37.7600   -5.3230 C.3   457  ASP457      0.1805
     65  C        -25.2010   37.4460   -5.4630 C.2   457  ASP457      0.2597
     66  O        -25.8280   37.9040   -6.3750 O.2   457  ASP457     -0.2718
     67  CB       -23.5260   39.1780   -4.8170 C.3   457  ASP457      0.1424
     68  CG       -24.1050   39.4030   -3.4450 C.2   457  ASP457      0.3668
     69  OD1      -23.9270   38.5560   -2.5810 O.co2 457  ASP457     -0.2456
     70  OD2      -24.7020   40.4610   -3.2310 O.co2 457  ASP457     -0.2456
     71  N        -25.7520   36.6840   -4.5320 N.am  458  HIS458     -0.1975
     72  CA       -27.1780   36.3810   -4.5820 C.3   458  HIS458      0.1656
     73  C        -27.6490   35.8100   -5.9310 C.2   458  HIS458      0.2291
     74  O        -28.4670   36.3890   -6.5970 O.2   458  HIS458     -0.2864
     75  CB       -28.0100   37.5960   -4.2090 C.3   458  HIS458      0.0771
     76  CG       -29.3960   37.2540   -3.7660 C.ar  458  HIS458      0.0820
     77  ND1      -29.6480   36.4350   -2.6900 N.ar  458  HIS458     -0.2267
     78  CD2      -30.6050   37.6110   -4.2550 C.ar  458  HIS458      0.1154
     79  CE1      -30.9510   36.3070   -2.5350 C.ar  458  HIS458      0.1986
     80  NE2      -31.5520   37.0120   -3.4700 N.ar  458  HIS458     -0.2212
     81  N        -23.1460   32.5010   -5.8520 N.3   505  GLU505     -0.1245
     82  CA       -23.1340   32.4120   -4.4380 C.3   505  GLU505      0.1567
     83  C        -24.4400   31.7550   -4.0750 C.2   505  GLU505      0.2260
     84  O        -25.5040   32.2600   -4.3960 O.2   505  GLU505     -0.2867
     85  CB       -22.9630   33.8070   -3.8690 C.3   505  GLU505      0.0388
     86  CG       -24.2450   34.5770   -3.7270 C.3   505  GLU505      0.1160
     87  CD       -24.7460   34.5040   -2.3250 C.2   505  GLU505      0.3649
     88  OE1      -24.8460   33.3870   -1.7870 O.co2 505  GLU505     -0.2457
     89  OE2      -25.0010   35.5660   -1.7680 O.co2 505  GLU505     -0.2457
     90  N        -15.6850   37.4080    3.4240 N.3   557  HIS557     -0.1226
     91  CA       -15.6540   38.7980    3.8800 C.3   557  HIS557      0.1752
     92  C        -16.7660   39.1250    4.8890 C.2   557  HIS557      0.2596
     93  O        -16.6480   40.1260    5.5650 O.2   557  HIS557     -0.2718
     94  CB       -15.7370   39.7610    2.6480 C.3   557  HIS557      0.0759
     95  CG       -16.9790   39.5830    1.8530 C.ar  557  HIS557      0.0818
     96  ND1      -17.1220   38.6370    0.8660 N.ar  557  HIS557     -0.2268
     97  CD2      -18.2000   40.1630    1.9930 C.ar  557  HIS557      0.1154
     98  CE1      -18.3580   38.6700    0.3980 C.ar  557  HIS557      0.1986
     99  NE2      -19.0350   39.5810    1.0820 N.ar  557  HIS557     -0.2212
    100  N        -17.8090   38.3110    4.9750 N.am  558  ASP558     -0.1974
    101  CA       -18.8690   38.5530    5.9590 C.3   558  ASP558      0.1709
    102  C        -18.6310   37.8310    7.3160 C.2   558  ASP558      0.2293
    103  O        -19.5100   37.8710    8.1730 O.2   558  ASP558     -0.2864
    104  CB       -20.2370   38.1230    5.3990 C.3   558  ASP558      0.1436
    105  CG       -20.7680   39.0730    4.3000 C.2   558  ASP558      0.3671
    106  OD1      -20.5140   40.2630    4.3980 O.co2 558  ASP558     -0.2456
    107  OD2      -21.4590   38.6100    3.3870 O.co2 558  ASP558     -0.2456
    108  N        -16.7730   43.0970    7.6840 N.3   658  ASN658     -0.1240
    109  CA       -18.2110   43.4200    7.7330 C.3   658  ASN658      0.1653
    110  C        -18.8710   42.5640    8.7940 C.2   658  ASN658      0.2266
    111  O        -18.5990   41.3440    8.8560 O.2   658  ASN658     -0.2867
    112  CB       -18.8540   43.0920    6.3760 C.3   658  ASN658      0.1155
    113  CG       -20.3630   43.4800    6.3030 C.2   658  ASN658      0.2627
    114  OD1      -20.7480   44.5570    6.7270 O.2   658  ASN658     -0.2716
    115  ND2      -21.1790   42.6050    5.7430 N.am  658  ASN658     -0.0877
    116  N        -22.5740   41.4680    9.2340 N.3   660  PRO660     -0.2116
    117  CA       -23.8950   41.6360    8.5840 C.3   660  PRO660      0.1372
    118  C        -24.9770   42.0840    9.5620 C.2   660  PRO660      0.2244
    119  O        -24.8860   41.7650   10.7700 O.2   660  PRO660     -0.2868
    120  CB       -24.1940   40.2340    7.9910 C.3   660  PRO660      0.0268
    121  CG       -22.8250   39.7360    7.6320 C.3   660  PRO660      0.0207
    122  CD       -21.9270   40.2140    8.7570 C.3   660  PRO660      0.0892
    123  N        -16.3630   47.6690    6.0930 N.3   670  TRP670     -0.1241
    124  CA       -15.7560   47.9980    4.8230 C.3   670  TRP670      0.1605
    125  C        -14.6170   48.9960    4.9380 C.2   670  TRP670      0.2264
    126  O        -14.1710   49.5270    3.9580 O.2   670  TRP670     -0.2867
    127  CB       -16.8000   48.4910    3.8400 C.3   670  TRP670      0.0550
    128  CG       -18.0300   47.6770    3.8290 C.ar  670  TRP670      0.0003
    129  CD1      -19.2570   48.0600    4.2420 C.ar  670  TRP670      0.0946
    130  CD2      -18.1640   46.3320    3.3760 C.ar  670  TRP670      0.0152
    131  NE1      -20.1460   47.0510    4.0790 N.ar  670  TRP670     -0.2442
    132  CE2      -19.4980   45.9710    3.5530 C.ar  670  TRP670      0.0810
    133  CE3      -17.2770   45.3920    2.8450 C.ar  670  TRP670      0.0012
    134  CZ2      -19.9760   44.7220    3.2270 C.ar  670  TRP670      0.0191
    135  CZ3      -17.7590   44.1580    2.5180 C.ar  670  TRP670      0.0001
    136  CH2      -19.0940   43.8300    2.7090 C.ar  670  TRP670      0.0015
@<TRIPOS>BOND
     1    52    53    1
     2    53    54    1
     3    53    56    1
     4    54    55    2
     5    16    15    2
     6    56    57    1
     7    15    14    1
     8    63    64    1
     9    74    73    2
    10    14    13    1
    11    14    17    1
    12    66    65    2
    13    57    58    1
    14    73    72    1
    15    18    17    1
    16    81    82    1
    17    65    64    1
    18    65    71   am
    19    64    67    1
    20    17    19    1
    21    45    46    2
    22    45    44    1
    23    58    59    1
    24    67    68    1
    25    47    44    1
    26    47    48    1
    27    72    71    1
    28    72    75    1
    29    82    83    1
    30    82    85    1
    31    84    83    2
    32    78    76   ar
    33    78    80   ar
    34    44    43    1
    35    75    76    1
    36    50    49    2
    37    48    49    1
    38    85    86    1
    39    76    77   ar
    40    59    60    2
    41    86    87    1
    42    49    51   am
    43    80    79   ar
    44    68    70   ar
    45    68    69   ar
    46    61    60    1
    47    60    62    1
    48    77    79   ar
    49     9     7   ar
    50     9    11   ar
    51     4     3    2
    52     7     6   ar
    53     3     2    1
    54    87    88   ar
    55    87    89   ar
    56     2     1    1
    57     2     5    1
    58    12    11    1
    59    11    10   ar
    60    41    39   ar
    61    41    42   ar
    62     6     5    1
    63     6     8   ar
    64    39    36   ar
    65    10     8   ar
    66    42    40   ar
    67    32    31    2
    68    33    34    1
    69    33    30    1
    70    36    34   ar
    71    36    38   ar
    72    31    30    1
    73    98    96   ar
    74    98    99   ar
    75    34    35   ar
    76    40    38   ar
    77    96    95   ar
    78    30    29    1
    79    38    37   ar
    80    99    97   ar
    81    95    97   ar
    82    95    94    1
    83    35    37   ar
    84   135   136   ar
    85   135   133   ar
    86    94    91    1
    87   136   134   ar
    88   133   130   ar
    89   134   132   ar
    90   130   132   ar
    91   130   128   ar
    92   107   105   ar
    93    90    91    1
    94    23    22    2
    95   132   131   ar
    96   128   127    1
    97   128   129   ar
    98   127   124    1
    99    91    92    1
   100   126   125    2
   101   131   129   ar
   102    22    21    1
   103   105   106   ar
   104   105   104    1
   105   124   125    1
   106   124   123    1
   107    92   100   am
   108    92    93    2
   109   100   101    1
   110    24    21    1
   111    24    25    1
   112    28    26   am
   113    27    26    2
   114   104   101    1
   115    21    20    1
   116    26    25    1
   117   115   113   am
   118   101   102    1
   119   113   112    1
   120   113   114    2
   121   112   109    1
   122   102   103    2
   123   121   120    1
   124   121   122    1
   125   108   109    1
   126   109   110    1
   127   120   117    1
   128   117   116    1
   129   117   118    1
   130   122   116    1
   131   110   111    2
   132   118   119    2
