@<TRIPOS>MOLECULE
tmp/5b6aA00.pdb
 93 87 0 0 0
SMALL
GASTEIGER

@<TRIPOS>ATOM
      1  N        -13.2810  -40.8440   -1.2910 N.3    12  SER12      -0.1217
      2  CA       -13.9640  -40.8750    0.0040 C.3    12  SER12       0.1889
      3  C        -14.4070  -39.5250    0.5660 C.2    12  SER12       0.2288
      4  O        -13.7840  -38.4820    0.3180 O.2    12  SER12      -0.2866
      5  CB       -13.0340  -41.5310    0.9980 C.3    12  SER12       0.2089
      6  OG       -12.8130  -42.8520    0.5450 O.3    12  SER12      -0.2183
      7  N        -15.5790  -37.8540    4.4170 N.3    14  VAL14      -0.1245
      8  CA       -15.7690  -38.0110    5.8650 C.3    14  VAL14       0.1561
      9  C        -16.5420  -36.8130    6.3730 C.2    14  VAL14       0.2260
     10  O        -16.3270  -35.6960    5.9070 O.2    14  VAL14      -0.2867
     11  CB       -14.4500  -38.2400    6.6500 C.3    14  VAL14       0.0252
     12  CG1      -13.8690  -39.6040    6.3010 C.3    14  VAL14       0.0019
     13  CG2      -13.4210  -37.1350    6.3860 C.3    14  VAL14       0.0019
     14  N        -10.0540  -36.3480    4.8320 N.3    19  ALA19      -0.1231
     15  CA        -9.4580  -37.4810    4.1280 C.3    19  ALA19       0.1694
     16  C        -10.1740  -37.5390    2.7960 C.2    19  ALA19       0.2592
     17  O        -11.3380  -37.1700    2.7240 O.2    19  ALA19      -0.2718
     18  CB        -9.6790  -38.7840    4.9030 C.3    19  ALA19       0.0304
     19  N         -9.4840  -38.0020    1.7490 N.am   20  GLY20      -0.1957
     20  CA       -10.0780  -38.1340    0.4050 C.3    20  GLY20       0.1869
     21  C        -10.5800  -36.7840   -0.0940 C.2    20  GLY20       0.2309
     22  O         -9.8600  -35.7840    0.0170 O.2    20  GLY20      -0.2863
     23  N        -17.8020  -42.9000   -0.7010 N.3    41  VAL41      -0.1245
     24  CA       -18.2640  -43.3730    0.5930 C.3    41  VAL41       0.1561
     25  C        -18.6020  -42.1390    1.4010 C.2    41  VAL41       0.2260
     26  O        -18.1250  -41.0470    1.0910 O.2    41  VAL41      -0.2867
     27  CB       -17.1830  -44.2250    1.3030 C.3    41  VAL41       0.0252
     28  CG1      -16.1600  -43.3730    2.0650 C.3    41  VAL41       0.0019
     29  CG2      -17.8640  -45.1760    2.2470 C.3    41  VAL41       0.0019
     30  N        -18.2920  -41.6260    5.4950 N.3    43  PHE43      -0.1241
     31  CA       -17.9990  -42.1370    6.8250 C.3    43  PHE43       0.1605
     32  C        -18.0850  -40.9850    7.8180 C.2    43  PHE43       0.2264
     33  O        -18.0040  -39.8100    7.4280 O.2    43  PHE43      -0.2867
     34  CB       -16.5830  -42.7720    6.8870 C.3    43  PHE43       0.0534
     35  CG       -16.4450  -44.1200    6.2030 C.ar   43  PHE43      -0.0203
     36  CD1      -17.5410  -44.9650    5.9710 C.ar   43  PHE43      -0.0042
     37  CD2      -15.1700  -44.5820    5.8510 C.ar   43  PHE43      -0.0042
     38  CE1      -17.3580  -46.2340    5.3840 C.ar   43  PHE43      -0.0003
     39  CE2      -14.9850  -45.8340    5.2470 C.ar   43  PHE43      -0.0003
     40  CZ       -16.0790  -46.6590    5.0150 C.ar   43  PHE43      -0.0000
     41  N        -12.2730  -40.4420    9.4110 N.3    46  HIS46      -0.1226
     42  CA       -11.3580  -41.3060    8.6500 C.3    46  HIS46       0.1752
     43  C        -11.0180  -42.5810    9.4310 C.2    46  HIS46       0.2597
     44  O        -11.2240  -42.6520   10.6620 O.2    46  HIS46      -0.2718
     45  CB       -10.1100  -40.5420    8.1400 C.3    46  HIS46       0.0759
     46  CG        -9.1670  -40.0850    9.2190 C.ar   46  HIS46       0.0818
     47  ND1       -8.5170  -40.9600   10.0700 N.ar   46  HIS46      -0.2268
     48  CD2       -8.7400  -38.8450    9.5630 C.ar   46  HIS46       0.1154
     49  CE1       -7.7510  -40.2790   10.9070 C.ar   46  HIS46       0.1986
     50  NE2       -7.8630  -38.9940   10.6140 N.ar   46  HIS46      -0.2212
     51  N        -10.4980  -43.5850    8.7340 N.am   47  THR47      -0.1939
     52  CA       -10.3110  -44.9030    9.3620 C.3    47  THR47       0.2028
     53  C         -9.1550  -45.0030   10.3590 C.2    47  THR47       0.2642
     54  O         -9.1320  -45.9430   11.1590 O.2    47  THR47      -0.2714
     55  CB       -10.1560  -46.0530    8.3280 C.3    47  THR47       0.1808
     56  OG1       -8.9990  -45.8120    7.5340 O.3    47  THR47      -0.2208
     57  CG2      -11.3920  -46.1760    7.4280 C.3    47  THR47       0.0379
     58  N         -8.2210  -44.0500   10.3190 N.am   48  GLN48      -0.1976
     59  CA        -7.0350  -44.1120   11.1860 C.3    48  GLN48       0.1601
     60  C         -7.3230  -43.8760   12.6620 C.2    48  GLN48       0.2287
     61  O         -6.4660  -44.1610   13.4900 O.2    48  GLN48      -0.2864
     62  CB        -5.8980  -43.2270   10.6760 C.3    48  GLN48       0.0394
     63  CG        -5.4360  -43.5990    9.2670 C.3    48  GLN48       0.0908
     64  CD        -5.3240  -45.0990    9.0680 C.2    48  GLN48       0.2608
     65  OE1       -5.9860  -45.6790    8.2010 O.2    48  GLN48      -0.2717
     66  NE2       -4.4900  -45.7380    9.8750 N.am   48  GLN48      -0.0878
     67  N         -7.6720  -43.3450   -2.9910 N.3    85  TYR85      -0.1241
     68  CA        -7.8700  -44.6680   -2.4120 C.3    85  TYR85       0.1605
     69  C         -9.0620  -45.3860   -3.0150 C.2    85  TYR85       0.2264
     70  O        -10.1320  -44.7890   -3.1700 O.2    85  TYR85      -0.2867
     71  CB        -8.0170  -44.5940   -0.8780 C.3    85  TYR85       0.0534
     72  CG        -8.2930  -45.9500   -0.2440 C.ar   85  TYR85      -0.0201
     73  CD1       -7.2610  -46.8850   -0.0740 C.ar   85  TYR85      -0.0009
     74  CD2       -9.5930  -46.3070    0.1750 C.ar   85  TYR85      -0.0009
     75  CE1       -7.5010  -48.1230    0.5010 C.ar   85  TYR85       0.0417
     76  CE2       -9.8490  -47.5580    0.7410 C.ar   85  TYR85       0.0417
     77  CZ        -8.8010  -48.4520    0.9010 C.ar   85  TYR85       0.1957
     78  OH        -9.0360  -49.6850    1.4630 O.3    85  TYR85      -0.2866
     79  N         -3.7850  -37.3180    8.5130 N.3   221  VAL221     -0.1245
     80  CA        -4.3090  -38.0610    7.3760 C.3   221  VAL221      0.1561
     81  C         -4.6670  -37.0660    6.2680 C.2   221  VAL221      0.2260
     82  O         -5.0190  -35.9130    6.5550 O.2   221  VAL221     -0.2867
     83  CB        -5.5060  -38.9310    7.8420 C.3   221  VAL221      0.0252
     84  CG1       -6.2220  -39.6510    6.6930 C.3   221  VAL221      0.0019
     85  CG2       -5.0040  -39.9570    8.8440 C.3   221  VAL221      0.0019
     86  N         -3.7130  -36.8150   -0.4500 N.3   225  ASP225     -0.1239
     87  CA        -4.9320  -36.3320   -1.1360 C.3   225  ASP225      0.1674
     88  C         -4.8120  -34.8270   -1.4270 C.2   225  ASP225      0.2266
     89  O         -5.1170  -34.3560   -2.5360 O.2   225  ASP225     -0.2867
     90  CB        -6.1990  -36.6280   -0.2950 C.3   225  ASP225      0.1410
     91  CG        -6.3290  -38.1180    0.1170 C.2   225  ASP225      0.3668
     92  OD1       -5.9460  -39.0120   -0.6890 O.co2 225  ASP225     -0.2456
     93  OD2       -6.8280  -38.4020    1.2480 O.co2 225  ASP225     -0.2456
@<TRIPOS>BOND
     1    70    69    2
     2    69    68    1
     3    67    68    1
     4    89    88    2
     5    68    71    1
     6    88    87    1
     7     1     2    1
     8    87    86    1
     9    87    90    1
    10    71    72    1
    11    23    24    1
    12    92    91   ar
    13    90    91    1
    14    72    73   ar
    15    72    74   ar
    16    21    22    2
    17    21    20    1
    18    73    75   ar
    19     2     3    1
    20     2     5    1
    21    91    93   ar
    22    74    76   ar
    23     4     3    2
    24    20    19    1
    25    75    77   ar
    26     6     5    1
    27    24    27    1
    28    24    25    1
    29    76    77   ar
    30    77    78    1
    31    26    25    2
    32    27    28    1
    33    27    29    1
    34    19    16   am
    35    17    16    2
    36    16    15    1
    37    15    14    1
    38    15    18    1
    39     7     8    1
    40    40    39   ar
    41    40    38   ar
    42    39    37   ar
    43    38    36   ar
    44    30    31    1
    45    37    35   ar
    46     8     9    1
    47     8    11    1
    48    10     9    2
    49    36    35   ar
    50    35    34    1
    51    81    82    2
    52    81    80    1
    53    12    11    1
    54    13    11    1
    55    84    83    1
    56    31    34    1
    57    31    32    1
    58    80    83    1
    59    80    79    1
    60    57    55    1
    61    33    32    2
    62    56    55    1
    63    83    85    1
    64    45    42    1
    65    45    46    1
    66    65    64    2
    67    55    52    1
    68    42    41    1
    69    42    43    1
    70    51    52    1
    71    51    43   am
    72    64    63    1
    73    64    66   am
    74    46    48   ar
    75    46    47   ar
    76    63    62    1
    77    52    53    1
    78    43    44    2
    79    48    50   ar
    80    47    49   ar
    81    58    53   am
    82    58    59    1
    83    53    54    2
    84    50    49   ar
    85    62    59    1
    86    59    60    1
    87    60    61    2
