@<TRIPOS>MOLECULE
tmp/5b6eA00.pdb
 169 161 0 0 0
SMALL
GASTEIGER

@<TRIPOS>ATOM
      1  N        -25.4980   48.4430  127.9130 N.3    26  PRO26      -0.2102
      2  CA       -24.8600   48.7120  129.1990 C.3    26  PRO26       0.1504
      3  C        -25.7370   49.6220  130.0530 C.2    26  PRO26       0.2575
      4  O        -26.2310   50.6390  129.5620 O.2    26  PRO26      -0.2718
      5  CB       -23.5510   49.4190  128.8160 C.3    26  PRO26       0.0282
      6  CG       -23.3470   49.1370  127.3690 C.3    26  PRO26       0.0208
      7  CD       -24.7150   48.9680  126.7840 C.3    26  PRO26       0.0893
      8  N        -25.9470   49.2330  131.3080 N.am   27  ARG27      -0.1980
      9  CA       -26.8200   49.9630  132.2260 C.3    27  ARG27       0.1597
     10  C        -28.2040   50.2330  131.6120 C.2    27  ARG27       0.2287
     11  O        -28.8460   51.2420  131.9140 O.2    27  ARG27      -0.2864
     12  CB       -26.1350   51.2580  132.6900 C.3    27  ARG27       0.0334
     13  CG       -24.7510   51.0090  133.2850 C.3    27  ARG27       0.0492
     14  CD       -24.2300   52.1650  134.1320 C.3    27  ARG27       0.2205
     15  NE       -24.0250   53.3800  133.3430 N.pl3  27  ARG27      -0.0865
     16  CZ       -24.6770   54.5320  133.5010 C.cat  27  ARG27       0.5346
     17  NH1      -25.6160   54.6810  134.4350 N.pl3  27  ARG27       0.1354
     18  NH2      -24.3870   55.5550  132.7080 N.pl3  27  ARG27       0.1354
     19  N        -17.2840   74.0200  128.3540 N.3    64  GLU64      -0.1245
     20  CA       -16.7880   72.7750  128.9490 C.3    64  GLU64       0.1567
     21  C        -15.2740   72.8340  129.1540 C.2    64  GLU64       0.2260
     22  O        -14.7710   72.4800  130.2230 O.2    64  GLU64      -0.2867
     23  CB       -17.1430   71.5650  128.0850 C.3    64  GLU64       0.0388
     24  CG       -16.8430   70.2320  128.7540 C.3    64  GLU64       0.1160
     25  CD       -16.9390   69.0600  127.8010 C.2    64  GLU64       0.3649
     26  OE1      -16.0570   68.9240  126.9240 O.co2  64  GLU64      -0.2457
     27  OE2      -17.8950   68.2750  127.9350 O.co2  64  GLU64      -0.2457
     28  N        -13.3110   72.8860  132.8020 N.3    68  TYR68      -0.1241
     29  CA       -12.1540   72.0600  133.1710 C.3    68  TYR68       0.1605
     30  C        -10.9760   72.9030  133.6730 C.2    68  TYR68       0.2264
     31  O        -10.4190   72.6160  134.7320 O.2    68  TYR68      -0.2867
     32  CB       -11.6810   71.1910  132.0030 C.3    68  TYR68       0.0534
     33  CG       -12.6560   70.1460  131.4900 C.ar   68  TYR68      -0.0201
     34  CD1      -13.7810   69.7590  132.2210 C.ar   68  TYR68      -0.0009
     35  CD2      -12.4190   69.5150  130.2740 C.ar   68  TYR68      -0.0009
     36  CE1      -14.6530   68.7930  131.7340 C.ar   68  TYR68       0.0417
     37  CE2      -13.2730   68.5480  129.7870 C.ar   68  TYR68       0.0417
     38  CZ       -14.3930   68.1940  130.5090 C.ar   68  TYR68       0.1957
     39  OH       -15.2390   67.2280  130.0010 O.3    68  TYR68      -0.2866
     40  N        -27.0280   67.6450  131.2440 N.3    85  ILE85      -0.1245
     41  CA       -25.9190   67.1470  132.0520 C.3    85  ILE85       0.1561
     42  C        -26.3350   66.9420  133.5180 C.2    85  ILE85       0.2260
     43  O        -25.6810   66.2160  134.2590 O.2    85  ILE85      -0.2867
     44  CB       -24.6810   68.0670  131.9080 C.3    85  ILE85       0.0252
     45  CG1      -23.3890   67.2670  132.1040 C.3    85  ILE85       0.0019
     46  CG2      -24.7620   69.2540  132.8530 C.3    85  ILE85       0.0019
     47  CD1      -22.1400   68.0410  131.7340 C.3    85  ILE85       0.0001
     48  N        -26.5350   63.4580  135.3200 N.3    88  TYR88      -0.1241
     49  CA       -25.3560   62.8140  135.8940 C.3    88  TYR88       0.1605
     50  C        -24.9790   63.3460  137.2730 C.2    88  TYR88       0.2264
     51  O        -23.9760   62.9200  137.8310 O.2    88  TYR88      -0.2867
     52  CB       -24.1710   62.9620  134.9400 C.3    88  TYR88       0.0534
     53  CG       -24.4540   62.3840  133.5800 C.ar   88  TYR88      -0.0201
     54  CD1      -24.2650   61.0280  133.3280 C.ar   88  TYR88      -0.0009
     55  CD2      -24.9420   63.1840  132.5500 C.ar   88  TYR88      -0.0009
     56  CE1      -24.5350   60.4880  132.0810 C.ar   88  TYR88       0.0417
     57  CE2      -25.2220   62.6520  131.3010 C.ar   88  TYR88       0.0417
     58  CZ       -25.0140   61.3050  131.0720 C.ar   88  TYR88       0.1957
     59  OH       -25.2880   60.7750  129.8310 O.3    88  TYR88      -0.2866
     60  N        -17.5660   61.9800  137.9990 N.3    97  GLY97      -0.1210
     61  CA       -16.7900   61.5250  136.8690 C.3    97  GLY97       0.1956
     62  C        -16.8850   62.4000  135.6090 C.2    97  GLY97       0.2612
     63  O        -16.0690   62.3280  134.7540 O.2    97  GLY97      -0.2717
     64  N        -17.9270   63.1980  135.5070 N.am   98  THR98      -0.1952
     65  CA       -18.0700   64.1340  134.3890 C.3    98  THR98       0.1897
     66  C        -17.1400   65.3500  134.5690 C.2    98  THR98       0.2313
     67  O        -16.7320   65.9810  133.5920 O.2    98  THR98      -0.2863
     68  CB       -19.5450   64.5700  134.2270 C.3    98  THR98       0.1794
     69  OG1      -20.3270   63.4370  133.8190 O.3    98  THR98      -0.2208
     70  CG2      -19.7050   65.6780  133.1910 C.3    98  THR98       0.0378
     71  N        -13.9270   66.7730  134.8360 N.3   100  TYR100     -0.1241
     72  CA       -12.4980   66.5060  134.6650 C.3   100  TYR100      0.1605
     73  C        -11.6230   67.5840  135.3080 C.2   100  TYR100      0.2264
     74  O        -10.4460   67.3470  135.5540 O.2   100  TYR100     -0.2867
     75  CB       -12.1390   66.3520  133.1860 C.3   100  TYR100      0.0534
     76  CG       -12.8060   65.1870  132.4700 C.ar  100  TYR100     -0.0201
     77  CD1      -13.2900   64.0770  133.1650 C.ar  100  TYR100     -0.0009
     78  CD2      -12.9220   65.1840  131.0830 C.ar  100  TYR100     -0.0009
     79  CE1      -13.8780   63.0130  132.4990 C.ar  100  TYR100      0.0417
     80  CE2      -13.5170   64.1280  130.4120 C.ar  100  TYR100      0.0417
     81  CZ       -13.9960   63.0480  131.1240 C.ar  100  TYR100      0.1957
     82  OH       -14.5830   61.9970  130.4550 O.3   100  TYR100     -0.2866
     83  N        -22.2710   58.4050  137.6880 N.3   148  ASP148     -0.1225
     84  CA       -21.3130   59.2630  136.9820 C.3   148  ASP148      0.1805
     85  C        -19.8640   58.8230  137.1870 C.2   148  ASP148      0.2597
     86  O        -19.1230   59.4240  137.9650 O.2   148  ASP148     -0.2718
     87  CB       -21.4970   60.7130  137.4290 C.3   148  ASP148      0.1424
     88  CG       -20.7690   61.6920  136.5430 C.2   148  ASP148      0.3668
     89  OD1      -20.5880   61.3930  135.3440 O.co2 148  ASP148     -0.2456
     90  OD2      -20.3800   62.7660  137.0400 O.co2 148  ASP148     -0.2456
     91  N        -19.4710   57.7830  136.4580 N.am  149  VAL149     -0.1980
     92  CA       -18.1210   57.2180  136.5280 C.3   149  VAL149      0.1595
     93  C        -17.3040   57.7650  135.3650 C.2   149  VAL149      0.2287
     94  O        -17.7400   57.6850  134.2180 O.2   149  VAL149     -0.2864
     95  CB       -18.1830   55.6760  136.4360 C.3   149  VAL149      0.0276
     96  CG1      -16.7900   55.0620  136.3630 C.3   149  VAL149      0.0022
     97  CG2      -18.9600   55.1170  137.6190 C.3   149  VAL149      0.0022
     98  N        -15.2930   58.3750  132.2130 N.3   151  CYS151     -0.1235
     99  CA       -15.0640   57.5020  131.0530 C.3   151  CYS151      0.1677
    100  C        -13.7370   57.7900  130.3440 C.2   151  CYS151      0.2270
    101  O        -13.3330   57.0500  129.4490 O.2   151  CYS151     -0.2867
    102  CB       -16.2470   57.5450  130.0800 C.3   151  CYS151      0.0956
    103  SG       -16.5360   59.1350  129.2970 S.3   151  CYS151     -0.0801
    104  N        -12.0970   54.7410  128.2640 N.3   171  ARG171     -0.1231
    105  CA       -12.6960   53.4030  128.3660 C.3   171  ARG171      0.1694
    106  C        -13.9650   53.3070  127.5190 C.2   171  ARG171      0.2592
    107  O        -14.3500   52.2180  127.1000 O.2   171  ARG171     -0.2718
    108  CB       -13.0080   53.0390  129.8230 C.3   171  ARG171      0.0321
    109  CG       -14.0650   53.9160  130.4760 C.3   171  ARG171      0.0489
    110  CD       -14.4770   53.4290  131.8590 C.3   171  ARG171      0.2205
    111  NE       -15.4800   54.3360  132.4110 N.pl3 171  ARG171     -0.0865
    112  CZ       -16.7730   54.3460  132.0860 C.cat 171  ARG171      0.5346
    113  NH1      -17.2810   53.4640  131.2250 N.pl3 171  ARG171      0.1354
    114  NH2      -17.5740   55.2480  132.6340 N.pl3 171  ARG171      0.1354
    115  N        -14.6090   54.4460  127.2840 N.am  172  ALA172     -0.1966
    116  CA       -15.8840   54.4920  126.5800 C.3   172  ALA172      0.1728
    117  C        -16.0950   55.8840  126.0150 C.2   172  ALA172      0.2616
    118  O        -15.6620   56.8680  126.6130 O.2   172  ALA172     -0.2715
    119  CB       -17.0210   54.1310  127.5290 C.3   172  ALA172      0.0334
    120  N        -16.7380   55.9750  124.8550 N.am  173  ASN173     -0.1958
    121  CA       -17.0380   57.2810  124.2670 C.3   173  ASN173      0.1819
    122  C        -18.2640   57.2020  123.3610 C.2   173  ASN173      0.2621
    123  O        -18.3480   56.3430  122.4970 O.2   173  ASN173     -0.2715
    124  CB       -15.8200   57.8040  123.4970 C.3   173  ASN173      0.1195
    125  CG       -15.8500   59.3090  123.2570 C.2   173  ASN173      0.2630
    126  OD1      -16.4990   60.0830  123.9820 O.2   173  ASN173     -0.2716
    127  ND2      -15.1280   59.7350  122.2370 N.am  173  ASN173     -0.0877
    128  N        -19.2150   58.0910  123.6180 N.am  174  ASP174     -0.1971
    129  CA       -20.3950   58.3010  122.7850 C.3   174  ASP174      0.1709
    130  C        -19.9520   58.9420  121.4660 C.2   174  ASP174      0.2293
    131  O        -19.5270   60.1040  121.4330 O.2   174  ASP174     -0.2864
    132  CB       -21.3530   59.2130  123.5600 C.3   174  ASP174      0.1436
    133  CG       -22.6100   59.5800  122.7940 C.2   174  ASP174      0.3671
    134  OD1      -22.7270   59.3220  121.5800 O.co2 174  ASP174     -0.2456
    135  OD2      -23.4960   60.1610  123.4490 O.co2 174  ASP174     -0.2456
    136  N        -20.9150   62.8040  122.8930 N.3   178  GLY178     -0.1225
    137  CA       -19.7580   63.0390  123.7550 C.3   178  GLY178      0.1811
    138  C        -18.4550   63.2870  123.0240 C.2   178  GLY178      0.2280
    139  O        -17.6930   64.1850  123.4000 O.2   178  GLY178     -0.2866
    140  N        -15.6360   66.0150  123.8320 N.3   182  ASP182     -0.1239
    141  CA       -14.4110   65.4460  124.3990 C.3   182  ASP182      0.1674
    142  C        -13.1970   65.7770  123.5410 C.2   182  ASP182      0.2266
    143  O        -12.1810   66.2390  124.0560 O.2   182  ASP182     -0.2867
    144  CB       -14.5320   63.9300  124.5870 C.3   182  ASP182      0.1410
    145  CG       -15.5530   63.5500  125.6400 C.2   182  ASP182      0.3668
    146  OD1      -15.7710   64.3330  126.5960 O.co2 182  ASP182     -0.2456
    147  OD2      -16.1500   62.4620  125.5200 O.co2 182  ASP182     -0.2456
    148  N        -19.6070   53.8800  120.7070 N.3   212  HIS212     -0.1241
    149  CA       -20.9910   53.4770  120.5170 C.3   212  HIS212      0.1621
    150  C        -21.8900   54.6450  120.1220 C.2   212  HIS212      0.2264
    151  O        -21.6200   55.7600  120.4450 O.2   212  HIS212     -0.2867
    152  CB       -21.5130   52.8740  121.7970 C.3   212  HIS212      0.0745
    153  CG       -21.1050   53.6330  123.0200 C.ar  212  HIS212      0.0817
    154  ND1      -19.9860   53.3220  123.7470 N.ar  212  HIS212     -0.2268
    155  CD2      -21.6270   54.7310  123.5950 C.ar  212  HIS212      0.1154
    156  CE1      -19.8510   54.1890  124.7280 C.ar  212  HIS212      0.1986
    157  NE2      -20.8290   55.0580  124.6530 N.ar  212  HIS212     -0.2212
    158  N        -25.8540   55.4540  120.8820 N.3   214  TYR214     -0.1241
    159  CA       -27.0580   55.0410  121.6000 C.3   214  TYR214      0.1605
    160  C        -28.2300   54.9780  120.6270 C.2   214  TYR214      0.2264
    161  O        -28.3570   55.8430  119.7610 O.2   214  TYR214     -0.2867
    162  CB       -27.3680   56.0090  122.7380 C.3   214  TYR214      0.0534
    163  CG       -26.3280   55.9830  123.8310 C.ar  214  TYR214     -0.0201
    164  CD1      -26.2260   54.8910  124.6870 C.ar  214  TYR214     -0.0009
    165  CD2      -25.4340   57.0370  123.9990 C.ar  214  TYR214     -0.0009
    166  CE1      -25.2720   54.8500  125.6890 C.ar  214  TYR214      0.0417
    167  CE2      -24.4730   57.0080  125.0000 C.ar  214  TYR214      0.0417
    168  CZ       -24.3980   55.9120  125.8420 C.ar  214  TYR214      0.1957
    169  OH       -23.4450   55.8660  126.8360 O.3   214  TYR214     -0.2866
@<TRIPOS>BOND
     1   161   160    2
     2   150   151    2
     3   150   149    1
     4   149   148    1
     5   149   152    1
     6   160   159    1
     7   158   159    1
     8   131   130    2
     9   130   129    1
    10   134   133   ar
    11   159   162    1
    12   152   153    1
    13   127   125   am
    14   123   122    2
    15   162   163    1
    16   129   132    1
    17   129   128    1
    18   133   135   ar
    19   133   132    1
    20   136   137    1
    21   153   155   ar
    22   153   154   ar
    23   138   139    2
    24   138   137    1
    25   125   124    1
    26   125   126    2
    27   122   128   am
    28   122   121    1
    29   124   121    1
    30   142   143    2
    31   142   141    1
    32   155   157   ar
    33   154   156   ar
    34   163   165   ar
    35   163   164   ar
    36   140   141    1
    37   165   167   ar
    38   121   120    1
    39   141   144    1
    40   144   145    1
    41   157   156   ar
    42   164   166   ar
    43   120   117   am
    44   167   168   ar
    45   147   145   ar
    46   145   146   ar
    47   166   168   ar
    48   168   169    1
    49   117   116    1
    50   117   118    2
    51   116   115    1
    52   116   119    1
    53     7     6    1
    54     7     1    1
    55    26    25   ar
    56   107   106    2
    57   115   106   am
    58     6     5    1
    59   106   105    1
    60    25    27   ar
    61    25    24    1
    62     1     2    1
    63    23    24    1
    64    23    20    1
    65   104   105    1
    66    19    20    1
    67   105   108    1
    68     5     2    1
    69    20    21    1
    70    21    22    2
    71     2     3    1
    72   103   102    1
    73   101   100    2
    74     4     3    2
    75    37    35   ar
    76    37    38   ar
    77   108   109    1
    78    59    58    1
    79    39    38    1
    80     3     8   am
    81   102    99    1
    82    35    33   ar
    83   100    99    1
    84    80    78   ar
    85    80    81   ar
    86    82    81    1
    87   109   110    1
    88    38    36   ar
    89    99    98    1
    90    58    57   ar
    91    58    56   ar
    92    78    76   ar
    93    81    79   ar
    94   113   112    1
    95    40    41    1
    96    57    55   ar
    97     8     9    1
    98    33    32    1
    99    33    34   ar
   100    10    11    2
   101    10     9    1
   102    47    45    1
   103    36    34   ar
   104   110   111    1
   105    44    41    1
   106    44    45    1
   107    44    46    1
   108    32    29    1
   109    41    42    1
   110    56    54   ar
   111   112   111    2
   112   112   114    1
   113     9    12    1
   114    76    77   ar
   115    76    75    1
   116    79    77   ar
   117    55    53   ar
   118    12    13    1
   119    18    16    1
   120    28    29    1
   121    29    30    1
   122    75    72    1
   123    70    68    1
   124    13    14    1
   125    54    53   ar
   126    15    16    2
   127    15    14    1
   128    16    17    1
   129    42    43    2
   130    53    52    1
   131    67    66    2
   132    30    31    2
   133    69    68    1
   134    94    93    2
   135    68    65    1
   136    65    66    1
   137    65    64    1
   138    72    71    1
   139    72    73    1
   140    63    62    2
   141    52    49    1
   142    73    74    2
   143    48    49    1
   144    89    88   ar
   145    93    92    1
   146    64    62   am
   147    62    61    1
   148    49    50    1
   149    96    95    1
   150    95    92    1
   151    95    97    1
   152    91    92    1
   153    91    85   am
   154    88    90   ar
   155    88    87    1
   156    61    60    1
   157    84    85    1
   158    84    87    1
   159    84    83    1
   160    85    86    2
   161    50    51    2
