@<TRIPOS>MOLECULE
tmp/5b6gA00.pdb
 240 227 0 0 0
SMALL
GASTEIGER

@<TRIPOS>ATOM
      1  N          2.4940   30.3330  110.7650 N.3    47  SER47      -0.1202
      2  CA         3.3600   29.2950  110.1910 C.3    47  SER47       0.2020
      3  C          3.1990   29.0530  108.6640 C.2    47  SER47       0.2618
      4  O          4.0990   28.5060  108.0290 O.2    47  SER47      -0.2717
      5  CB         3.2090   27.9680  110.9680 C.3    47  SER47       0.2103
      6  OG         2.0800   27.2390  110.5310 O.3    47  SER47      -0.2182
      7  N          2.0760   29.4700  108.0780 N.am   48  PHE48      -0.1975
      8  CA         1.8950   29.4290  106.6210 C.3    48  PHE48       0.1639
      9  C          2.7550   30.4310  105.8570 C.2    48  PHE48       0.2290
     10  O          3.0860   30.1880  104.6960 O.2    48  PHE48      -0.2864
     11  CB         0.4210   29.6280  106.2280 C.3    48  PHE48       0.0560
     12  CG        -0.4260   28.4160  106.4750 C.ar   48  PHE48      -0.0200
     13  CD1       -0.4120   27.3620  105.5760 C.ar   48  PHE48      -0.0042
     14  CD2       -1.2170   28.3160  107.6230 C.ar   48  PHE48      -0.0042
     15  CE1       -1.1820   26.2320  105.7980 C.ar   48  PHE48      -0.0003
     16  CE2       -1.9850   27.1840  107.8550 C.ar   48  PHE48      -0.0003
     17  CZ        -1.9790   26.1490  106.9410 C.ar   48  PHE48      -0.0000
     18  N          7.6170   31.9510  109.4800 N.3    53  ARG53      -0.1245
     19  CA         8.2610   30.6740  109.8250 C.3    53  ARG53       0.1563
     20  C          9.7000   30.8650  110.2790 C.2    53  ARG53       0.2260
     21  O         10.1200   30.2790  111.2830 O.2    53  ARG53      -0.2867
     22  CB         8.2710   29.7140  108.6350 C.3    53  ARG53       0.0307
     23  CG         6.9760   28.9860  108.4300 C.3    53  ARG53       0.0489
     24  CD         7.1750   27.7000  107.6410 C.3    53  ARG53       0.2205
     25  NE         7.5530   27.9600  106.2600 N.pl3  53  ARG53      -0.0865
     26  CZ         6.7410   28.4260  105.3050 C.cat  53  ARG53       0.5346
     27  NH1        5.4690   28.7260  105.5530 N.pl3  53  ARG53       0.1354
     28  NH2        7.2150   28.6270  104.0770 N.pl3  53  ARG53       0.1354
     29  N         -4.9300   19.6250  116.8940 N.3    89  ARG89      -0.1245
     30  CA        -5.0930   19.9200  115.4790 C.3    89  ARG89       0.1563
     31  C         -4.2730   21.1350  115.0670 C.2    89  ARG89       0.2260
     32  O         -3.5290   21.0710  114.0830 O.2    89  ARG89      -0.2867
     33  CB        -6.5700   20.1310  115.0960 C.3    89  ARG89       0.0307
     34  CG        -7.3810   18.8590  114.9790 C.3    89  ARG89       0.0489
     35  CD        -8.8370   19.1600  114.6300 C.3    89  ARG89       0.2205
     36  NE        -8.9030   19.7150  113.2880 N.pl3  89  ARG89      -0.0865
     37  CZ        -9.1490   20.9800  112.9590 C.cat  89  ARG89       0.5346
     38  NH1       -9.4500   21.9020  113.8660 N.pl3  89  ARG89       0.1354
     39  NH2       -9.1330   21.3230  111.6810 N.pl3  89  ARG89       0.1354
     40  N         -0.9290   21.0810  112.6220 N.3    93  MET93      -0.1245
     41  CA        -0.7890   21.9000  111.4170 C.3    93  MET93       0.1570
     42  C          0.4900   22.7640  111.4050 C.2    93  MET93       0.2261
     43  O          1.1790   22.8840  110.3810 O.2    93  MET93      -0.2867
     44  CB        -2.0030   22.8030  111.2600 C.3    93  MET93       0.0387
     45  CG        -3.3150   22.0940  110.9680 C.3    93  MET93       0.0595
     46  SD        -4.6640   23.2780  111.1750 S.3    93  MET93      -0.1393
     47  CE        -6.1010   22.2140  111.2100 C.3    93  MET93       0.0692
     48  N          3.4030   20.5420  110.7300 N.3    96  THR96      -0.1203
     49  CA         3.4510   20.2240  109.3090 C.3    96  THR96       0.1994
     50  C          4.1540   21.3260  108.5380 C.2    96  THR96       0.2617
     51  O          5.0950   21.0590  107.7950 O.2    96  THR96      -0.2717
     52  CB         2.0290   19.9800  108.7310 C.3    96  THR96       0.1784
     53  OG1        1.4210   18.8800  109.4260 O.3    96  THR96      -0.2211
     54  CG2        2.0790   19.7030  107.2410 C.3    96  THR96       0.0376
     55  N          3.7050   22.5610  108.7340 N.am   97  ASN97      -0.1974
     56  CA         4.3050   23.7130  108.0770 C.3    97  ASN97       0.1688
     57  C          5.7720   23.9170  108.4340 C.2    97  ASN97       0.2292
     58  O          6.5840   24.2570  107.5450 O.2    97  ASN97      -0.2864
     59  CB         3.5180   24.9730  108.3860 C.3    97  ASN97       0.1181
     60  CG         2.1190   24.9360  107.8060 C.2    97  ASN97       0.2629
     61  OD1        1.8260   24.1480  106.9060 O.2    97  ASN97      -0.2716
     62  ND2        1.2460   25.7760  108.3360 N.am   97  ASN97      -0.0877
     63  N          8.1870   21.1730  106.7850 N.3   100  PHE100     -0.1227
     64  CA         8.2480   21.1850  105.3270 C.3   100  PHE100      0.1736
     65  C          9.6010   21.7050  104.8490 C.2   100  PHE100      0.2596
     66  O          9.9290   22.8720  105.0670 O.2   100  PHE100     -0.2718
     67  CB         7.1100   22.0420  104.7280 C.3   100  PHE100      0.0547
     68  CG         7.1740   22.1790  103.2330 C.ar  100  PHE100     -0.0202
     69  CD1        6.9030   21.0940  102.4100 C.ar  100  PHE100     -0.0042
     70  CD2        7.5210   23.4010  102.6350 C.ar  100  PHE100     -0.0042
     71  CE1        6.9670   21.2190  101.0230 C.ar  100  PHE100     -0.0003
     72  CE2        7.5850   23.5300  101.2530 C.ar  100  PHE100     -0.0003
     73  CZ         7.3070   22.4370  100.4480 C.ar  100  PHE100     -0.0000
     74  N         10.3850   20.8180  104.2390 N.am  101  GLY101     -0.1957
     75  CA        11.6700   21.1800  103.6370 C.3   101  GLY101      0.1869
     76  C         12.7720   21.4750  104.6450 C.2   101  GLY101      0.2309
     77  O         13.8700   21.8520  104.2520 O.2   101  GLY101     -0.2863
     78  N         12.9560   18.5380  111.1170 N.3   106  LYS106     -0.1245
     79  CA        12.5860   17.1390  111.0000 C.3   106  LYS106      0.1561
     80  C         13.4240   16.2850  111.9400 C.2   106  LYS106      0.2260
     81  O         12.9120   15.3600  112.5730 O.2   106  LYS106     -0.2867
     82  CB        12.7540   16.6310  109.5580 C.3   106  LYS106      0.0271
     83  CG        11.7420   17.1450  108.5380 C.3   106  LYS106      0.0035
     84  CD        12.0720   16.5540  107.1710 C.3   106  LYS106      0.0206
     85  CE        11.3310   17.2380  106.0430 C.3   106  LYS106      0.1093
     86  NZ        11.6720   16.6610  104.7110 N.3   106  LYS106     -0.1314
     87  N        -10.2920   14.3800  111.1990 N.3   129  ASP129     -0.1239
     88  CA        -9.5320   15.5390  110.7760 C.3   129  ASP129      0.1674
     89  C         -8.1540   15.5760  111.4750 C.2   129  ASP129      0.2266
     90  O         -7.1330   15.8310  110.8160 O.2   129  ASP129     -0.2867
     91  CB       -10.3000   16.8290  110.9870 C.3   129  ASP129      0.1410
     92  CG        -9.6530   17.9760  110.2910 C.2   129  ASP129      0.3668
     93  OD1       -8.6810   18.5500  110.8380 O.co2 129  ASP129     -0.2456
     94  OD2      -10.0740   18.2660  109.1590 O.co2 129  ASP129     -0.2456
     95  N         -5.7380   13.2240  109.8540 N.3   132  GLN132     -0.1231
     96  CA        -5.1900   13.7690  108.6280 C.3   132  GLN132      0.1698
     97  C         -4.0250   14.7090  108.9520 C.2   132  GLN132      0.2592
     98  O         -2.9960   14.7000  108.2650 O.2   132  GLN132     -0.2718
     99  CB        -6.3020   14.4970  107.8280 C.3   132  GLN132      0.0381
    100  CG        -5.8770   15.0880  106.4880 C.3   132  GLN132      0.0905
    101  CD        -5.2670   16.4600  106.6120 C.2   132  GLN132      0.2608
    102  OE1       -5.6670   17.2460  107.4570 O.2   132  GLN132     -0.2717
    103  NE2       -4.2940   16.7590  105.7710 N.am  132  GLN132     -0.0878
    104  N         -4.2110   15.5350  109.9880 N.am  133  VAL133     -0.1980
    105  CA        -3.1960   16.4790  110.3830 C.3   133  VAL133      0.1595
    106  C         -1.9600   15.7170  110.8140 C.2   133  VAL133      0.2287
    107  O         -0.8680   16.0210  110.3580 O.2   133  VAL133     -0.2864
    108  CB        -3.6660   17.4420  111.5090 C.3   133  VAL133      0.0276
    109  CG1       -2.5060   18.2960  112.0250 C.3   133  VAL133      0.0022
    110  CG2       -4.7730   18.3430  111.0080 C.3   133  VAL133      0.0022
    111  N         -0.1470   14.1830  107.9670 N.3   136  SER136     -0.1217
    112  CA         0.5940   15.2170  107.2620 C.3   136  SER136      0.1889
    113  C          1.9590   15.4710  107.9110 C.2   136  SER136      0.2288
    114  O          2.9310   15.6560  107.1970 O.2   136  SER136     -0.2866
    115  CB        -0.1920   16.5200  107.1320 C.3   136  SER136      0.2089
    116  OG        -1.4030   16.2880  106.4170 O.3   136  SER136     -0.2183
    117  N          4.2020   12.4590  107.1350 N.3   139  ARG139     -0.1231
    118  CA         4.6130   12.5110  105.7480 C.3   139  ARG139      0.1694
    119  C          5.9000   13.3550  105.5560 C.2   139  ARG139      0.2592
    120  O          6.8250   12.9480  104.8350 O.2   139  ARG139     -0.2718
    121  CB         3.4710   13.0780  104.8840 C.3   139  ARG139      0.0321
    122  CG         3.8170   13.2170  103.4030 C.3   139  ARG139      0.0489
    123  CD         2.8300   14.0760  102.6410 C.3   139  ARG139      0.2205
    124  NE         3.2550   14.3350  101.2620 N.pl3 139  ARG139     -0.0865
    125  CZ         2.5710   15.0680  100.3850 C.cat 139  ARG139      0.5346
    126  NH1        1.4140   15.6410  100.7110 N.pl3 139  ARG139      0.1354
    127  NH2        3.0580   15.2510   99.1680 N.pl3 139  ARG139      0.1354
    128  N          5.9350   14.5250  106.1680 N.am  140  ASN140     -0.1974
    129  CA         7.0820   15.4130  106.0430 C.3   140  ASN140      0.1688
    130  C          8.2850   14.7810  106.7310 C.2   140  ASN140      0.2292
    131  O          9.3640   14.7740  106.1620 O.2   140  ASN140     -0.2864
    132  CB         6.7890   16.8360  106.5710 C.3   140  ASN140      0.1181
    133  CG         5.8340   17.6280  105.6610 C.2   140  ASN140      0.2629
    134  OD1        5.4190   17.1660  104.5940 O.2   140  ASN140     -0.2716
    135  ND2        5.4760   18.8200  106.0910 N.am  140  ASN140     -0.0877
    136  N          9.9290   12.0790  104.6740 N.3   143  TRP143     -0.1227
    137  CA        10.5350   12.5100  103.4220 C.3   143  TRP143      0.1737
    138  C         11.9710   12.9190  103.6880 C.2   143  TRP143      0.2595
    139  O         12.2070   13.8100  104.4940 O.2   143  TRP143     -0.2718
    140  CB         9.7800   13.6850  102.8170 C.3   143  TRP143      0.0564
    141  CG        10.3840   14.1410  101.5230 C.ar  143  TRP143      0.0003
    142  CD1       10.9910   15.3380  101.2710 C.ar  143  TRP143      0.0946
    143  CD2       10.4650   13.3910  100.3200 C.ar  143  TRP143      0.0152
    144  NE1       11.4170   15.3920   99.9590 N.ar  143  TRP143     -0.2442
    145  CE2       11.1110   14.2060   99.3520 C.ar  143  TRP143      0.0810
    146  CE3       10.0270   12.1230   99.9490 C.ar  143  TRP143      0.0012
    147  CZ2       11.3360   13.7800   98.0390 C.ar  143  TRP143      0.0191
    148  CZ3       10.2560   11.7020   98.6500 C.ar  143  TRP143      0.0001
    149  CH2       10.9090   12.5260   97.7050 C.ar  143  TRP143      0.0015
    150  N         12.9050   12.2740  102.9850 N.am  144  ARG144     -0.1980
    151  CA        14.3460   12.4990  103.1330 C.3   144  ARG144      0.1597
    152  C         14.8260   12.4160  104.5930 C.2   144  ARG144      0.2287
    153  O         15.6120   13.2560  105.0810 O.2   144  ARG144     -0.2864
    154  CB        14.7420   13.8170  102.4700 C.3   144  ARG144      0.0334
    155  CG        14.5840   13.7910  100.9630 C.3   144  ARG144      0.0492
    156  CD        15.2420   15.0000  100.3000 C.3   144  ARG144      0.2205
    157  NE        14.3450   15.6410   99.3300 N.pl3 144  ARG144     -0.0865
    158  CZ        14.5100   16.8530   98.7920 C.cat 144  ARG144      0.5346
    159  NH1       15.5790   17.5980   99.0750 N.pl3 144  ARG144      0.1354
    160  NH2       13.5930   17.3160   97.9400 N.pl3 144  ARG144      0.1354
    161  N         -9.3350   13.3870  101.7600 N.3   173  SER173     -0.1217
    162  CA        -8.2800   14.2260  102.3080 C.3   173  SER173      0.1889
    163  C         -7.4380   13.4570  103.3540 C.2   173  SER173      0.2288
    164  O         -6.2120   13.5180  103.3270 O.2   173  SER173     -0.2866
    165  CB        -8.8620   15.5270  102.8720 C.3   173  SER173      0.2089
    166  OG       -10.0440   15.2730  103.6010 O.3   173  SER173     -0.2183
    167  N         -5.3490   10.7200  101.5060 N.3   176  LYS176     -0.1231
    168  CA        -4.2010   11.2310  100.7760 C.3   176  LYS176      0.1693
    169  C         -3.0050   11.4180  101.6880 C.2   176  LYS176      0.2592
    170  O         -1.8960   11.0600  101.3230 O.2   176  LYS176     -0.2718
    171  CB        -4.4900   12.5800  100.1250 C.3   176  LYS176      0.0285
    172  CG        -3.4020   12.9350   99.1250 C.3   176  LYS176      0.0035
    173  CD        -2.9490   14.3840   99.1680 C.3   176  LYS176      0.0206
    174  CE        -3.7350   15.2680   98.2280 C.3   176  LYS176      0.1093
    175  NZ        -2.8150   16.2250   97.5460 N.3   176  LYS176     -0.1314
    176  N         -3.2210   12.0520  102.8430 N.am  177  SER177     -0.1952
    177  CA        -2.1200   12.2880  103.7700 C.3   177  SER177      0.1924
    178  C         -1.5410   10.9790  104.3150 C.2   177  SER177      0.2314
    179  O         -0.3150   10.8230  104.3880 O.2   177  SER177     -0.2863
    180  CB        -2.5610   13.1850  104.9260 C.3   177  SER177      0.2116
    181  OG        -2.8560   14.4840  104.4610 O.3   177  SER177     -0.2180
    182  N          0.2860    9.0820  101.4970 N.3   180  SER180     -0.1217
    183  CA         1.5600    9.7560  101.2080 C.3   180  SER180      0.1889
    184  C          2.6400    9.4130  102.2230 C.2   180  SER180      0.2288
    185  O          3.7880    9.1790  101.8490 O.2   180  SER180     -0.2866
    186  CB         1.3700   11.2700  101.1360 C.3   180  SER180      0.2089
    187  OG         0.4400   11.5840  100.1130 O.3   180  SER180     -0.2183
    188  N          3.7150    5.8290  101.6610 N.3   183  TRP183     -0.1227
    189  CA         4.5560    5.7050  100.4530 C.3   183  TRP183      0.1737
    190  C          6.0000    6.0710  100.8240 C.2   183  TRP183      0.2595
    191  O          6.9160    5.3120  100.5360 O.2   183  TRP183     -0.2718
    192  CB         3.9700    6.5410   99.3190 C.3   183  TRP183      0.0564
    193  CG         4.7300    6.4880   98.0190 C.ar  183  TRP183      0.0003
    194  CD1        5.7230    5.6070   97.6690 C.ar  183  TRP183      0.0946
    195  CD2        4.5370    7.3310   96.8990 C.ar  183  TRP183      0.0152
    196  NE1        6.1740    5.8750   96.4040 N.ar  183  TRP183     -0.2442
    197  CE2        5.4560    6.9260   95.9020 C.ar  183  TRP183      0.0810
    198  CE3        3.6720    8.3910   96.6260 C.ar  183  TRP183      0.0012
    199  CZ2        5.5380    7.5600   94.6620 C.ar  183  TRP183      0.0191
    200  CZ3        3.7500    9.0130   95.3970 C.ar  183  TRP183      0.0001
    201  CH2        4.6850    8.6030   94.4310 C.ar  183  TRP183      0.0015
    202  N          6.1930    7.1710  101.5600 N.am  184  ASN184     -0.1974
    203  CA         7.5390    7.5850  102.0130 C.3   184  ASN184      0.1688
    204  C          8.1720    6.5490  102.9260 C.2   184  ASN184      0.2292
    205  O          9.3180    6.1650  102.7240 O.2   184  ASN184     -0.2864
    206  CB         7.4910    8.9270  102.7620 C.3   184  ASN184      0.1181
    207  CG         7.2190   10.1130  101.8610 C.2   184  ASN184      0.2629
    208  OD1        7.3420   10.0320  100.6510 O.2   184  ASN184     -0.2716
    209  ND2        6.9150   11.2590  102.4720 N.am  184  ASN184     -0.0877
    210  N          9.5770    3.0540  101.4140 N.3   187  ALA187     -0.1245
    211  CA        10.9260    3.0650  100.8260 C.3   187  ALA187      0.1562
    212  C         12.0850    3.0130  101.8320 C.2   187  ALA187      0.2260
    213  O         13.2340    2.8560  101.4160 O.2   187  ALA187     -0.2867
    214  CB        11.0810    4.2900   99.9450 C.3   187  ALA187      0.0290
    215  N          4.2680   -0.6510   94.6570 N.3   230  ARG230     -0.1231
    216  CA         5.5430   -0.8930   93.9980 C.3   230  ARG230      0.1694
    217  C          6.6440   -1.1490   95.0370 C.2   230  ARG230      0.2592
    218  O          7.3940   -2.0940   94.9090 O.2   230  ARG230     -0.2718
    219  CB         5.9390    0.2490   93.0590 C.3   230  ARG230      0.0321
    220  CG         7.2530    0.0170   92.3170 C.3   230  ARG230      0.0489
    221  CD         8.4820    0.5410   93.0800 C.3   230  ARG230      0.2205
    222  NE         9.7200    0.5390   92.2870 N.pl3 230  ARG230     -0.0865
    223  CZ        10.4820   -0.5300   92.0130 C.cat 230  ARG230      0.5346
    224  NH1       11.5900   -0.3810   91.2660 N.pl3 230  ARG230      0.1354
    225  NH2       10.1540   -1.7550   92.4490 N.pl3 230  ARG230      0.1354
    226  N          6.6970   -0.3400   96.0840 N.am  231  ASN231     -0.1974
    227  CA         7.7130   -0.5380   97.1220 C.3   231  ASN231      0.1688
    228  C          7.6060   -1.8900   97.8590 C.2   231  ASN231      0.2292
    229  O          8.6080   -2.5090   98.1100 O.2   231  ASN231     -0.2864
    230  CB         7.7380    0.6280   98.1050 C.3   231  ASN231      0.1181
    231  CG         8.2270    1.9210   97.4640 C.2   231  ASN231      0.2629
    232  OD1        8.8260    1.9320   96.3860 O.2   231  ASN231     -0.2716
    233  ND2        7.9480    3.0120   98.1120 N.am  231  ASN231     -0.0877
    234  N          4.6010    9.1100   87.2980 N.3   265  THR265     -0.1218
    235  CA         4.5420    8.4360   88.6000 C.3   265  THR265      0.1862
    236  C          3.7390    7.1440   88.5060 C.2   265  THR265      0.2287
    237  O          4.1940    6.1000   88.9330 O.2   265  THR265     -0.2866
    238  CB         3.9690    9.3680   89.6940 C.3   265  THR265      0.1770
    239  OG1        4.8750   10.4550   89.9080 O.3   265  THR265     -0.2211
    240  CG2        3.7560    8.6360   91.0290 C.3   265  THR265      0.0375
@<TRIPOS>BOND
     1   234   235    1
     2   236   235    1
     3   236   237    2
     4   235   238    1
     5   238   239    1
     6   238   240    1
     7   224   223    1
     8   223   222    2
     9   223   225    1
    10   222   221    1
    11   220   219    1
    12   220   221    1
    13   219   216    1
    14   216   215    1
    15   216   217    1
    16   201   199   ar
    17   201   200   ar
    18   199   197   ar
    19   218   217    2
    20   217   226   am
    21   200   198   ar
    22   197   196   ar
    23   197   195   ar
    24   226   227    1
    25   232   231    2
    26   196   194   ar
    27   198   195   ar
    28   195   193   ar
    29   227   228    1
    30   227   230    1
    31   231   230    1
    32   231   233   am
    33   175   174    1
    34   194   193   ar
    35   149   147   ar
    36   149   148   ar
    37   228   229    2
    38   160   158    1
    39   193   192    1
    40   147   145   ar
    41   174   173    1
    42   148   146   ar
    43   158   159    1
    44   158   157    2
    45   172   173    1
    46   172   171    1
    47   127   125    1
    48   192   189    1
    49   157   156    1
    50   145   144   ar
    51   145   143   ar
    52   214   211    1
    53   146   143   ar
    54   144   142   ar
    55   187   186    1
    56   171   168    1
    57   156   155    1
    58   143   141   ar
    59   125   126    1
    60   125   124    2
    61    73    71   ar
    62    73    72   ar
    63   189   190    1
    64   189   188    1
    65   191   190    2
    66   208   207    2
    67   168   167    1
    68   168   169    1
    69   190   202   am
    70   211   210    1
    71   211   212    1
    72   155   154    1
    73    71    69   ar
    74   186   183    1
    75   183   182    1
    76   183   184    1
    77    72    70   ar
    78   124   123    1
    79   142   141   ar
    80   170   169    2
    81   213   212    2
    82   141   140    1
    83   202   203    1
    84   169   176   am
    85   161   162    1
    86   185   184    2
    87   207   209   am
    88   207   206    1
    89   203   206    1
    90   203   204    1
    91   162   165    1
    92   162   163    1
    93    69    68   ar
    94   154   151    1
    95    70    68   ar
    96   123   122    1
    97   205   204    2
    98   140   137    1
    99   176   177    1
   100   165   166    1
   101   150   151    1
   102   150   138   am
   103   151   152    1
   104    68    67    1
   105   164   163    2
   106   122   121    1
   107   137   138    1
   108   137   136    1
   109    75    74    1
   110    75    76    1
   111   138   139    2
   112   177   178    1
   113   177   180    1
   114    28    26    1
   115    74    65   am
   116    77    76    2
   117   178   179    2
   118   181   180    1
   119   152   153    2
   120   134   133    2
   121    10     9    2
   122    86    85    1
   123    67    64    1
   124   120   119    2
   125    65    66    2
   126    65    64    1
   127   121   118    1
   128    26    27    1
   129    26    25    2
   130    64    63    1
   131   119   118    1
   132   119   128   am
   133    13    15   ar
   134    13    12   ar
   135   133   135   am
   136   133   132    1
   137   118   117    1
   138   103   101   am
   139    15    17   ar
   140     9     8    1
   141   129   128    1
   142   129   132    1
   143   129   130    1
   144    85    84    1
   145   131   130    2
   146    11    12    1
   147    11     8    1
   148    25    24    1
   149   116   115    1
   150    12    14   ar
   151   100   101    1
   152   100    99    1
   153   101   102    2
   154     8     7    1
   155    61    60    2
   156    17    16   ar
   157   115   112    1
   158    84    83    1
   159   114   113    2
   160    54    52    1
   161   112   113    1
   162   112   111    1
   163    58    57    2
   164    14    16   ar
   165    24    23    1
   166    51    50    2
   167    60    62   am
   168    60    59    1
   169    99    96    1
   170     4     3    2
   171    56    59    1
   172    56    57    1
   173    56    55    1
   174     7     3   am
   175    98    97    2
   176    23    22    1
   177    50    55   am
   178    50    49    1
   179    83    82    1
   180    96    97    1
   181    96    95    1
   182    22    19    1
   183     3     2    1
   184    52    49    1
   185    52    53    1
   186    97   104   am
   187    94    92   ar
   188    49    48    1
   189    18    19    1
   190    82    79    1
   191    19    20    1
   192   104   105    1
   193     2     1    1
   194     2     5    1
   195    20    21    2
   196    92    93   ar
   197    92    91    1
   198   107   106    2
   199    43    42    2
   200   105   106    1
   201   105   108    1
   202     6     5    1
   203    88    91    1
   204    88    87    1
   205    88    89    1
   206    90    89    2
   207    45    46    1
   208    45    44    1
   209    79    78    1
   210    79    80    1
   211   110   108    1
   212    46    47    1
   213    44    41    1
   214    42    41    1
   215    41    40    1
   216   108   109    1
   217    39    37    1
   218    80    81    2
   219    37    36    2
   220    37    38    1
   221    36    35    1
   222    32    31    2
   223    35    34    1
   224    34    33    1
   225    31    30    1
   226    33    30    1
   227    30    29    1
