@<TRIPOS>MOLECULE
tmp/5b6hA00.pdb
 144 140 0 0 0
SMALL
GASTEIGER

@<TRIPOS>ATOM
      1  N          8.6940  -13.4160   -3.3820 N.3    24  ILE24      -0.1231
      2  CA         9.4330  -12.2370   -2.9780 C.3    24  ILE24       0.1692
      3  C          9.3340  -11.0900   -4.0430 C.2    24  ILE24       0.2592
      4  O          9.3830  -11.3280   -5.2580 O.2    24  ILE24      -0.2718
      5  CB        10.8920  -12.6120   -2.6170 C.3    24  ILE24       0.0266
      6  CG1       10.8890  -13.7900   -1.6240 C.3    24  ILE24       0.0019
      7  CG2       11.6170  -11.4080   -2.0770 C.3    24  ILE24       0.0020
      8  CD1       12.1770  -14.0380   -0.8550 C.3    24  ILE24       0.0001
      9  N          9.1220   -9.8640   -3.5600 N.am   25  LEU25      -0.1966
     10  CA         9.2250   -8.6800   -4.3730 C.3    25  LEU25       0.1728
     11  C         10.5730   -8.0840   -3.9480 C.2    25  LEU25       0.2616
     12  O         10.7260   -7.5780   -2.8230 O.2    25  LEU25      -0.2715
     13  CB         8.0930   -7.6960   -4.1290 C.3    25  LEU25       0.0311
     14  CG         6.6630   -8.1080   -4.4130 C.3    25  LEU25       0.0022
     15  CD1        5.6550   -7.2060   -3.6820 C.3    25  LEU25       0.0001
     16  CD2        6.3720   -8.0530   -5.8800 C.3    25  LEU25       0.0001
     17  N         11.5630   -8.1820   -4.8460 N.am   26  PHE26      -0.1960
     18  CA        12.9110   -7.7250   -4.4840 C.3    26  PHE26       0.1771
     19  C         12.9480   -6.2310   -4.7640 C.2    26  PHE26       0.2619
     20  O         12.5830   -5.8140   -5.8520 O.2    26  PHE26      -0.2715
     21  CB        13.9770   -8.4640   -5.2940 C.3    26  PHE26       0.0574
     22  CG        15.3630   -8.2240   -4.7950 C.ar   26  PHE26      -0.0200
     23  CD1       15.8440   -8.9320   -3.7110 C.ar   26  PHE26      -0.0042
     24  CD2       16.1520   -7.2450   -5.3380 C.ar   26  PHE26      -0.0042
     25  CE1       17.1290   -8.7340   -3.2280 C.ar   26  PHE26      -0.0003
     26  CE2       17.4680   -7.0210   -4.8480 C.ar   26  PHE26      -0.0003
     27  CZ        17.9410   -7.7980   -3.8240 C.ar   26  PHE26      -0.0000
     28  N         13.3770   -5.4300   -3.8070 N.am   27  ARG27      -0.1977
     29  CA        13.5510   -4.0300   -4.0010 C.3    27  ARG27       0.1597
     30  C         15.0260   -3.7610   -4.3390 C.2    27  ARG27       0.2287
     31  O         15.9060   -3.9510   -3.4910 O.2    27  ARG27      -0.2864
     32  CB        13.1520   -3.2520   -2.7180 C.3    27  ARG27       0.0334
     33  CG        11.8320   -3.7100   -2.1070 C.3    27  ARG27       0.0492
     34  CD        10.6610   -3.5160   -3.0670 C.3    27  ARG27       0.2205
     35  NE         9.4780   -4.0740   -2.4400 N.pl3  27  ARG27      -0.0865
     36  CZ         8.2190   -3.9260   -2.8640 C.cat  27  ARG27       0.5346
     37  NH1        7.2480   -4.4810   -2.1530 N.pl3  27  ARG27       0.1354
     38  NH2        7.9360   -3.2250   -3.9280 N.pl3  27  ARG27       0.1354
     39  N         25.9070   -4.3310    0.7070 N.3    64  ARG64      -0.1245
     40  CA        25.1030   -3.1720    0.2380 C.3    64  ARG64       0.1563
     41  C         24.9930   -2.1500    1.2910 C.2    64  ARG64       0.2260
     42  O         24.8990   -0.9640    0.9600 O.2    64  ARG64      -0.2867
     43  CB        23.7110   -3.5980   -0.1920 C.3    64  ARG64       0.0307
     44  CG        23.8180   -4.3470   -1.4790 C.3    64  ARG64       0.0489
     45  CD        22.4740   -4.4500   -2.2100 C.3    64  ARG64       0.2205
     46  NE        21.6420   -5.3690   -1.4460 N.pl3  64  ARG64      -0.0865
     47  CZ        21.3460   -6.6280   -1.7520 C.cat  64  ARG64       0.5346
     48  NH1       21.7760   -7.2370   -2.8700 N.pl3  64  ARG64       0.1354
     49  NH2       20.6060   -7.3410   -0.8810 N.pl3  64  ARG64       0.1354
     50  N         23.3130  -15.1690   14.2940 N.3    98  TYR98      -0.1241
     51  CA        21.9600  -14.7480   14.1610 C.3    98  TYR98       0.1605
     52  C         21.2530  -15.9310   13.3850 C.2    98  TYR98       0.2264
     53  O         21.8730  -16.5280   12.5210 O.2    98  TYR98      -0.2867
     54  CB        21.8050  -13.3850   13.4840 C.3    98  TYR98       0.0534
     55  CG        22.4000  -13.1780   12.1330 C.ar   98  TYR98      -0.0201
     56  CD1       23.7520  -12.8260   11.9440 C.ar   98  TYR98      -0.0009
     57  CD2       21.5870  -13.2380   11.0320 C.ar   98  TYR98      -0.0009
     58  CE1       24.2610  -12.6410   10.6240 C.ar   98  TYR98       0.0417
     59  CE2       22.0720  -13.0990    9.7520 C.ar   98  TYR98       0.0417
     60  CZ        23.4230  -12.7870    9.5460 C.ar   98  TYR98       0.1957
     61  OH        23.8140  -12.6940    8.2530 O.3    98  TYR98      -0.2866
     62  N         22.0220    0.9970    6.9430 N.3   124  ASP124     -0.1225
     63  CA        21.9360   -0.1500    6.0170 C.3   124  ASP124      0.1805
     64  C         21.0600    0.1460    4.8170 C.2   124  ASP124      0.2598
     65  O         20.3070    1.1310    4.8430 O.2   124  ASP124     -0.2718
     66  CB        21.3540   -1.3230    6.7780 C.3   124  ASP124      0.1424
     67  CG        21.7510   -2.7000    6.2250 C.2   124  ASP124      0.3668
     68  OD1       22.9100   -3.0740    5.7440 O.co2 124  ASP124     -0.2456
     69  OD2       20.8200   -3.5150    6.2500 O.co2 124  ASP124     -0.2456
     70  N         20.9690   -0.7710    3.8580 N.am  125  ASP125     -0.1960
     71  CA        20.1830   -0.4290    2.7140 C.3   125  ASP125      0.1840
     72  C         18.7080   -0.6760    3.0450 C.2   125  ASP125      0.2622
     73  O         17.8550    0.1050    2.6170 O.2   125  ASP125     -0.2715
     74  CB        20.5640   -1.2850    1.4540 C.3   125  ASP125      0.1450
     75  CG        20.6180   -2.8240    1.7490 C.2   125  ASP125      0.3671
     76  OD1       21.1160   -3.2700    2.7550 O.co2 125  ASP125     -0.2456
     77  OD2       20.1300   -3.7060    0.9730 O.co2 125  ASP125     -0.2456
     78  N         18.4300   -1.7810    3.6990 N.am  126  LEU126     -0.1963
     79  CA        17.0730   -2.2460    3.8250 C.3   126  LEU126      0.1728
     80  C         16.7970   -3.0270    5.1200 C.2   126  LEU126      0.2616
     81  O         17.5820   -3.9040    5.4990 O.2   126  LEU126     -0.2715
     82  CB        16.6440   -3.0860    2.6250 C.3   126  LEU126      0.0311
     83  CG        15.1960   -3.6160    2.5360 C.3   126  LEU126      0.0022
     84  CD1       14.8050   -3.7910    1.0860 C.3   126  LEU126      0.0001
     85  CD2       15.0320   -4.9860    3.2530 C.3   126  LEU126      0.0001
     86  N         15.6440   -2.7460    5.7330 N.am  127  LEU127     -0.1963
     87  CA        15.2140   -3.4780    6.9550 C.3   127  LEU127      0.1728
     88  C         14.1380   -4.4980    6.6330 C.2   127  LEU127      0.2616
     89  O         13.0570   -4.1290    6.1370 O.2   127  LEU127     -0.2715
     90  CB        14.7170   -2.5180    8.0670 C.3   127  LEU127      0.0311
     91  CG        14.1570   -3.0590    9.3270 C.3   127  LEU127      0.0022
     92  CD1       15.2690   -3.8670   10.0070 C.3   127  LEU127      0.0001
     93  CD2       13.6580   -1.8740   10.1710 C.3   127  LEU127      0.0001
     94  N         14.4780   -5.7740    6.8560 N.am  128  ALA128     -0.1963
     95  CA        13.4900   -6.8370    6.5650 C.3   128  ALA128      0.1728
     96  C         13.1110   -7.4890    7.8720 C.2   128  ALA128      0.2617
     97  O         12.2650   -6.9180    8.6130 O.2   128  ALA128     -0.2715
     98  CB        14.0500   -7.8050    5.5090 C.3   128  ALA128      0.0334
     99  N         13.8010   -8.5690    8.2410 N.am  129  THR129     -0.1937
    100  CA        13.5290   -9.2620    9.5070 C.3   129  THR129      0.2028
    101  C         14.2150   -8.6140   10.6500 C.2   129  THR129      0.2643
    102  O         13.7720   -8.7570   11.7870 O.2   129  THR129     -0.2714
    103  CB        14.0230  -10.6880    9.5070 C.3   129  THR129      0.1808
    104  OG1       15.4420  -10.7480    9.4020 O.3   129  THR129     -0.2208
    105  CG2       13.3960  -11.5010    8.3580 C.3   129  THR129      0.0379
    106  N         15.2690   -7.8470   10.3940 N.am  130  GLY130     -0.1939
    107  CA        16.0300   -7.2580   11.4460 C.3   130  GLY130      0.2014
    108  C         17.1070   -8.1640   12.0200 C.2   130  GLY130      0.2639
    109  O         17.8720   -7.7610   12.8660 O.2   130  GLY130     -0.2714
    110  N         17.2800   -9.3770   11.5430 N.am  131  GLY131     -0.1939
    111  CA        18.2520  -10.2210   12.1820 C.3   131  GLY131      0.2014
    112  C         19.6830   -9.6960   12.0570 C.2   131  GLY131      0.2640
    113  O         20.4700   -9.8260   13.0000 O.2   131  GLY131     -0.2714
    114  N         20.0940   -9.1710   10.8480 N.am  132  THR132     -0.1936
    115  CA        21.4520   -8.7040   10.7810 C.3   132  THR132      0.2028
    116  C         21.7200   -7.5280   11.6670 C.2   132  THR132      0.2642
    117  O         22.7780   -7.3910   12.1700 O.2   132  THR132     -0.2714
    118  CB        21.8760   -8.3320    9.3500 C.3   132  THR132      0.1808
    119  OG1       20.8120   -7.5950    8.7620 O.3   132  THR132     -0.2208
    120  CG2       21.8900   -9.5930    8.5310 C.3   132  THR132      0.0379
    121  N         20.7810   -6.5990   11.7430 N.am  133  ILE133     -0.1977
    122  CA        20.9380   -5.4000   12.5100 C.3   133  ILE133      0.1596
    123  C         20.9280   -5.6910   14.0400 C.2   133  ILE133      0.2287
    124  O         21.6820   -5.0910   14.8160 O.2   133  ILE133     -0.2864
    125  CB        19.8200   -4.3660   12.2100 C.3   133  ILE133      0.0276
    126  CG1       19.8030   -3.9670   10.7480 C.3   133  ILE133      0.0022
    127  CG2       20.1700   -3.0980   12.9930 C.3   133  ILE133      0.0022
    128  CD1       21.1610   -3.5420   10.2850 C.3   133  ILE133      0.0001
    129  N         10.7230   -2.7050    5.2460 N.3   156  LEU156     -0.1245
    130  CA         9.6140   -3.6040    4.8680 C.3   156  LEU156      0.1561
    131  C          8.8760   -3.9880    6.1640 C.2   156  LEU156      0.2260
    132  O          9.2040   -4.9570    6.7980 O.2   156  LEU156     -0.2867
    133  CB        10.0870   -4.8460    4.0860 C.3   156  LEU156      0.0270
    134  CG        10.9860   -4.5750    2.9040 C.3   156  LEU156      0.0019
    135  CD1       11.5460   -5.8610    2.3280 C.3   156  LEU156      0.0001
    136  CD2       10.2110   -3.8130    1.8230 C.3   156  LEU156      0.0001
    137  N          7.6390   -7.4960    7.4420 N.3   159  LEU159     -0.1245
    138  CA         8.5330   -8.5330    7.8800 C.3   159  LEU159      0.1561
    139  C          8.9750   -8.4180    9.3280 C.2   159  LEU159      0.2260
    140  O          9.7100   -9.2710    9.7730 O.2   159  LEU159     -0.2867
    141  CB         9.7500   -8.6460    6.9720 C.3   159  LEU159      0.0270
    142  CG         9.4040   -9.0240    5.5090 C.3   159  LEU159      0.0019
    143  CD1       10.6170   -8.8380    4.6370 C.3   159  LEU159      0.0001
    144  CD2        8.9070  -10.4460    5.3860 C.3   159  LEU159      0.0001
@<TRIPOS>BOND
     1    16    14    1
     2    20    19    2
     3    24    26   ar
     4    24    22   ar
     5    21    22    1
     6    21    18    1
     7     4     3    2
     8    26    27   ar
     9    17    18    1
    10    17    11   am
    11    22    23   ar
    12    19    18    1
    13    19    28   am
    14    14    13    1
    15    14    15    1
    16    10    13    1
    17    10    11    1
    18    10     9    1
    19    30    29    1
    20    30    31    2
    21     3     9   am
    22     3     2    1
    23    29    28    1
    24    29    32    1
    25    11    12    2
    26    38    36    1
    27    27    25   ar
    28    23    25   ar
    29     1     2    1
    30    34    35    1
    31    34    33    1
    32     2     5    1
    33    48    47    1
    34    36    35    2
    35    36    37    1
    36    32    33    1
    37     5     7    1
    38     5     6    1
    39    45    44    1
    40    45    46    1
    41    47    46    2
    42    47    49    1
    43     6     8    1
    44    44    43    1
    45    43    40    1
    46    40    39    1
    47    40    41    1
    48    42    41    2
    49    77    75   ar
    50    84    83    1
    51    74    75    1
    52    74    71    1
    53    75    76   ar
    54   136   134    1
    55   135   134    1
    56    83    82    1
    57    83    85    1
    58    73    72    2
    59    82    79    1
    60    71    72    1
    61    71    70    1
    62   134   133    1
    63    72    78   am
    64    78    79    1
    65    79    80    1
    66    70    64   am
    67   133   130    1
    68   143   142    1
    69    64    65    2
    70    64    63    1
    71   130   129    1
    72   130   131    1
    73    80    81    2
    74    80    86   am
    75   144   142    1
    76    98    95    1
    77   142   141    1
    78    86    87    1
    79    68    67   ar
    80    63    66    1
    81    63    62    1
    82    89    88    2
    83   131   132    2
    84    67    69   ar
    85    67    66    1
    86    95    94    1
    87    95    96    1
    88    88    94   am
    89    88    87    1
    90    87    90    1
    91   141   138    1
    92   137   138    1
    93    96    99   am
    94    96    97    2
    95   138   139    1
    96    90    91    1
    97    99   100    1
    98    61    60    1
    99   105   103    1
   100   120   118    1
   101   119   118    1
   102    91    92    1
   103    91    93    1
   104   139   140    2
   105   118   115    1
   106   104   103    1
   107   103   100    1
   108   100   101    1
   109    60    59   ar
   110    60    58   ar
   111    59    57   ar
   112   128   126    1
   113   106   101   am
   114   106   107    1
   115    58    56   ar
   116   101   102    2
   117   126   125    1
   118   115   114    1
   119   115   116    1
   120   114   112   am
   121    57    55   ar
   122   107   108    1
   123   110   108   am
   124   110   111    1
   125   116   121   am
   126   116   117    2
   127   121   122    1
   128    56    55   ar
   129   108   109    2
   130   112   111    1
   131   112   113    2
   132    55    54    1
   133   125   122    1
   134   125   127    1
   135   122   123    1
   136    53    52    2
   137    52    51    1
   138    54    51    1
   139   123   124    2
   140    51    50    1
