@<TRIPOS>MOLECULE
tmp/5b6iA01.pdb
 99 101 0 0 0
SMALL
GASTEIGER

@<TRIPOS>ATOM
      1  N         -7.0430   16.0830  -37.7590 N.3     9  ASP9       -0.1225
      2  CA        -7.9290   17.1560  -37.3180 C.3     9  ASP9        0.1805
      3  C         -7.7900   18.3910  -38.2070 C.2     9  ASP9        0.2597
      4  O         -8.1840   19.4760  -37.8150 O.2     9  ASP9       -0.2718
      5  CB        -7.6510   17.5210  -35.8540 C.3     9  ASP9        0.1424
      6  CG        -6.2730   18.1590  -35.6380 C.2     9  ASP9        0.3668
      7  OD1       -5.4230   18.1230  -36.5560 O.co2   9  ASP9       -0.2456
      8  OD2       -6.0370   18.6930  -34.5250 O.co2   9  ASP9       -0.2456
      9  N         -7.2710   18.2080  -39.4200 N.am   10  LEU10      -0.1979
     10  CA        -6.9700   19.3310  -40.3020 C.3    10  LEU10       0.1596
     11  C         -8.1990   19.9490  -40.9770 C.2    10  LEU10       0.2287
     12  O         -8.1090   21.0280  -41.5770 O.2    10  LEU10      -0.2864
     13  CB        -5.9670   18.8950  -41.3690 C.3    10  LEU10       0.0297
     14  CG        -4.5700   18.5420  -40.8520 C.3    10  LEU10       0.0022
     15  CD1       -3.6960   18.0200  -41.9810 C.3    10  LEU10       0.0001
     16  CD2       -3.9320   19.7580  -40.1480 C.3    10  LEU10       0.0001
     17  N        -10.6450   19.2070  -32.6700 N.3    42  PRO42      -0.2102
     18  CA        -9.2000   19.4300  -32.5230 C.3    42  PRO42       0.1504
     19  C         -8.7020   19.1300  -31.1120 C.2    42  PRO42       0.2575
     20  O         -9.3400   19.5100  -30.1440 O.2    42  PRO42      -0.2718
     21  CB        -9.0370   20.9190  -32.8630 C.3    42  PRO42       0.0282
     22  CG       -10.1470   21.1810  -33.8460 C.3    42  PRO42       0.0208
     23  CD       -11.3120   20.3180  -33.3750 C.3    42  PRO42       0.0893
     24  N         -7.5990   18.3910  -31.0330 N.am   43  TRP43      -0.1977
     25  CA        -6.8360   18.1580  -29.8040 C.3    43  TRP43       0.1640
     26  C         -7.5370   17.1760  -28.8550 C.2    43  TRP43       0.2290
     27  O         -7.0500   16.9280  -27.7540 O.2    43  TRP43      -0.2864
     28  CB        -6.5160   19.5010  -29.0900 C.3    43  TRP43       0.0576
     29  CG        -6.1780   20.6100  -30.0610 C.ar   43  TRP43       0.0006
     30  CD1       -5.2220   20.5750  -31.0420 C.ar   43  TRP43       0.0946
     31  CD2       -6.8100   21.8930  -30.1650 C.ar   43  TRP43       0.0152
     32  NE1       -5.2150   21.7620  -31.7440 N.ar   43  TRP43      -0.2442
     33  CE2       -6.1840   22.5850  -31.2280 C.ar   43  TRP43       0.0810
     34  CE3       -7.8490   22.5240  -29.4720 C.ar   43  TRP43       0.0012
     35  CZ2       -6.5510   23.8690  -31.5970 C.ar   43  TRP43       0.0191
     36  CZ3       -8.2230   23.8030  -29.8510 C.ar   43  TRP43       0.0001
     37  CH2       -7.5730   24.4620  -30.9020 C.ar   43  TRP43       0.0015
     38  N         -2.1890   17.3820  -33.4400 N.3    70  TYR70      -0.1228
     39  CA        -0.8180   17.6820  -32.9980 C.3    70  TYR70       0.1721
     40  C         -0.6980   19.0270  -32.2720 C.2    70  TYR70       0.2437
     41  O          0.0570   19.8960  -32.7130 O.2    70  TYR70      -0.2733
     42  CB         0.1460   17.6570  -34.2230 C.3    70  TYR70       0.0547
     43  CG         1.4540   16.8800  -34.0460 C.ar   70  TYR70      -0.0200
     44  CD1        2.3440   17.1910  -33.0190 C.ar   70  TYR70      -0.0009
     45  CD2        1.8040   15.8520  -34.9200 C.ar   70  TYR70      -0.0009
     46  CE1        3.5380   16.4850  -32.8490 C.ar   70  TYR70       0.0417
     47  CE2        3.0090   15.1320  -34.7590 C.ar   70  TYR70       0.0417
     48  CZ         3.8690   15.4590  -33.7220 C.ar   70  TYR70       0.1957
     49  OH         5.0640   14.7700  -33.5490 O.3    70  TYR70      -0.2866
     50  N         -1.4150   19.2040  -31.1440 N.am   71  PRO71      -0.2729
     51  CA        -1.3020   20.4960  -30.4420 C.3    71  PRO71       0.1401
     52  C          0.1210   20.8680  -29.9670 C.2    71  PRO71       0.2269
     53  O          0.3750   22.0460  -29.7020 O.2    71  PRO71      -0.2865
     54  CB        -2.2370   20.3280  -29.2250 C.3    71  PRO71       0.0296
     55  CG        -2.3890   18.8240  -29.0540 C.3    71  PRO71       0.0237
     56  CD        -2.3250   18.2640  -30.4510 C.3    71  PRO71       0.0939
     57  N          2.7110   20.6600  -31.8380 N.3    73  THR73      -0.1218
     58  CA         3.4770   20.9240  -33.0440 C.3    73  THR73       0.1862
     59  C          4.5240   22.0270  -32.8030 C.2    73  THR73       0.2287
     60  O          4.2480   23.0380  -32.1430 O.2    73  THR73      -0.2866
     61  CB         2.5430   21.3180  -34.2250 C.3    73  THR73       0.1770
     62  OG1        3.3290   21.6040  -35.3940 O.3    73  THR73      -0.2211
     63  CG2        1.6570   22.5340  -33.8610 C.3    73  THR73       0.0375
     64  N          4.4570   25.0630  -37.1740 N.3   148  THR148     -0.1203
     65  CA         3.0530   24.8370  -36.8450 C.3   148  THR148      0.1994
     66  C          2.4380   23.6540  -37.5930 C.2   148  THR148      0.2618
     67  O          1.2590   23.3600  -37.4150 O.2   148  THR148     -0.2717
     68  CB         2.1820   26.0890  -37.1220 C.3   148  THR148      0.1784
     69  OG1        2.2720   26.4700  -38.5030 O.3   148  THR148     -0.2211
     70  CG2        2.6170   27.2560  -36.2260 C.3   148  THR148      0.0376
     71  N          3.2110   22.9540  -38.4220 N.am  149  PHE149     -0.1961
     72  CA         2.5810   21.9240  -39.2400 C.3   149  PHE149      0.1771
     73  C          3.2190   20.5330  -39.0650 C.2   149  PHE149      0.2620
     74  O          3.4860   19.8470  -40.0450 O.2   149  PHE149     -0.2715
     75  CB         2.6010   22.3460  -40.7180 C.3   149  PHE149      0.0574
     76  CG         1.4340   21.8280  -41.5270 C.ar  149  PHE149     -0.0200
     77  CD1        0.6060   20.8280  -41.0330 C.ar  149  PHE149     -0.0042
     78  CD2        1.1820   22.3310  -42.7980 C.ar  149  PHE149     -0.0042
     79  CE1       -0.4580   20.3500  -41.7930 C.ar  149  PHE149     -0.0003
     80  CE2        0.1290   21.8520  -43.5590 C.ar  149  PHE149     -0.0003
     81  CZ        -0.6970   20.8600  -43.0450 C.ar  149  PHE149     -0.0000
     82  N          3.4510   20.1120  -37.8240 N.am  150  TYR150     -0.1960
     83  CA         3.9910   18.7650  -37.5890 C.3   150  TYR150      0.1771
     84  C          3.0700   17.6480  -38.1010 C.2   150  TYR150      0.2620
     85  O          3.5330   16.5350  -38.3510 O.2   150  TYR150     -0.2715
     86  CB         4.2650   18.5330  -36.0980 C.3   150  TYR150      0.0574
     87  CG         5.5980   19.0790  -35.5920 C.ar  150  TYR150     -0.0198
     88  CD1        6.2860   20.0770  -36.2780 C.ar  150  TYR150     -0.0009
     89  CD2        6.1650   18.5810  -34.4160 C.ar  150  TYR150     -0.0009
     90  CE1        7.5110   20.5710  -35.7950 C.ar  150  TYR150      0.0417
     91  CE2        7.3650   19.0530  -33.9430 C.ar  150  TYR150      0.0417
     92  CZ         8.0380   20.0470  -34.6320 C.ar  150  TYR150      0.1957
     93  OH         9.2370   20.5070  -34.1170 O.3   150  TYR150     -0.2866
     94  N          1.7690   17.9110  -38.2460 N.am  151  SER151     -0.1950
     95  CA         0.9070   16.8600  -38.7980 C.3   151  SER151      0.1924
     96  C          1.3490   16.5210  -40.2280 C.2   151  SER151      0.2314
     97  O          1.2520   15.3730  -40.6630 O.2   151  SER151     -0.2863
     98  CB        -0.5660   17.2640  -38.7680 C.3   151  SER151      0.2116
     99  OG        -1.0480   17.2720  -37.4340 O.3   151  SER151     -0.2180
@<TRIPOS>BOND
     1    80    81   ar
     2    80    78   ar
     3    81    79   ar
     4    78    76   ar
     5    15    14    1
     6    79    77   ar
     7    12    11    2
     8    76    77   ar
     9    76    75    1
    10    13    14    1
    11    13    10    1
    12    11    10    1
    13    14    16    1
    14    75    72    1
    15    97    96    2
    16    10     9    1
    17    96    95    1
    18    74    73    2
    19     9     3   am
    20    72    73    1
    21    72    71    1
    22    73    82   am
    23    95    98    1
    24    95    94    1
    25    98    99    1
    26    69    68    1
    27    71    66   am
    28    85    84    2
    29    94    84   am
    30     3     4    2
    31     3     2    1
    32    84    83    1
    33    82    83    1
    34     1     2    1
    35    66    67    2
    36    66    65    1
    37    83    86    1
    38     2     5    1
    39    64    65    1
    40    68    65    1
    41    68    70    1
    42     7     6   ar
    43    88    90   ar
    44    88    87   ar
    45    86    87    1
    46     5     6    1
    47    90    92   ar
    48     6     8   ar
    49    87    89   ar
    50    62    61    1
    51    45    47   ar
    52    45    43   ar
    53    47    48   ar
    54    92    93    1
    55    92    91   ar
    56    89    91   ar
    57    61    63    1
    58    61    58    1
    59    42    43    1
    60    42    39    1
    61    43    44   ar
    62    22    23    1
    63    22    21    1
    64    48    49    1
    65    48    46   ar
    66    38    39    1
    67    23    17    1
    68    58    59    1
    69    58    57    1
    70    44    46   ar
    71    39    40    1
    72    21    18    1
    73    59    60    2
    74    41    40    2
    75    17    18    1
    76    18    19    1
    77    40    50   am
    78    32    33   ar
    79    32    30   ar
    80    35    33   ar
    81    35    37   ar
    82    33    31   ar
    83    50    56    1
    84    50    51    1
    85    19    24   am
    86    19    20    2
    87    30    29   ar
    88    24    25    1
    89    37    36   ar
    90    56    55    1
    91    51    52    1
    92    51    54    1
    93    31    29   ar
    94    31    34   ar
    95    29    28    1
    96    52    53    2
    97    36    34   ar
    98    25    28    1
    99    25    26    1
   100    54    55    1
   101    26    27    2
