@<TRIPOS>MOLECULE
tmp/5b7bC00.pdb
 91 86 0 0 0
SMALL
GASTEIGER

@<TRIPOS>ATOM
      1  N        -20.4270   41.3120   74.1110 N.3   258  GLN258     -0.1245
      2  CA       -21.0150   42.2590   73.1530 C.3   258  GLN258      0.1566
      3  C        -20.0830   43.4170   72.9490 C.2   258  GLN258      0.2260
      4  O        -19.9230   43.8680   71.8180 O.2   258  GLN258     -0.2867
      5  CB       -22.3860   42.7930   73.5870 C.3   258  GLN258      0.0367
      6  CG       -23.5630   41.9690   73.0790 C.3   258  GLN258      0.0905
      7  CD       -23.9060   42.1810   71.6100 C.2   258  GLN258      0.2608
      8  OE1      -24.0690   41.2270   70.8610 O.2   258  GLN258     -0.2717
      9  NE2      -24.0390   43.4330   71.2020 N.am  258  GLN258     -0.0878
     10  N        -27.2660   33.4010   68.5320 N.3   298  ARG298     -0.1231
     11  CA       -26.1450   34.1300   67.9320 C.3   298  ARG298      0.1694
     12  C        -26.5630   35.2080   66.9370 C.2   298  ARG298      0.2593
     13  O        -25.8760   36.2240   66.8010 O.2   298  ARG298     -0.2718
     14  CB       -25.1500   33.1750   67.2780 C.3   298  ARG298      0.0321
     15  CG       -23.7190   33.5460   67.5980 C.3   298  ARG298      0.0489
     16  CD       -22.8100   33.2710   66.4320 C.3   298  ARG298      0.2205
     17  NE       -21.5650   34.0220   66.5470 N.pl3 298  ARG298     -0.0865
     18  CZ       -20.5720   33.9480   65.6640 C.cat 298  ARG298      0.5346
     19  NH1      -20.6680   33.1650   64.5770 N.pl3 298  ARG298      0.1354
     20  NH2      -19.4720   34.6610   65.8710 N.pl3 298  ARG298      0.1354
     21  N        -27.6890   34.9790   66.2590 N.am  299  GLY299     -0.1942
     22  CA       -28.1860   35.8770   65.2220 C.3   299  GLY299      0.2014
     23  C        -27.6250   35.6140   63.8370 C.2   299  GLY299      0.2639
     24  O        -28.1800   36.0850   62.8610 O.2   299  GLY299     -0.2714
     25  N        -26.5120   34.8920   63.7480 N.am  300  THR300     -0.1950
     26  CA       -25.9920   34.4070   62.4620 C.3   300  THR300      0.1897
     27  C        -25.8570   32.8810   62.5240 C.2   300  THR300      0.2313
     28  O        -25.9900   32.2950   63.5870 O.2   300  THR300     -0.2863
     29  CB       -24.6530   35.0820   62.0300 C.3   300  THR300      0.1794
     30  OG1      -23.5340   34.3540   62.5540 O.3   300  THR300     -0.2208
     31  CG2      -24.5730   36.5650   62.4680 C.3   300  THR300      0.0378
     32  N        -15.6490   37.9260   65.7260 N.3   330  GLU330     -0.1245
     33  CA       -17.0760   38.1880   65.9300 C.3   330  GLU330      0.1567
     34  C        -17.6850   37.3730   67.0940 C.2   330  GLU330      0.2260
     35  O        -18.1560   36.2320   66.9150 O.2   330  GLU330     -0.2867
     36  CB       -17.8540   37.9680   64.6270 C.3   330  GLU330      0.0388
     37  CG       -19.2990   38.4440   64.6870 C.3   330  GLU330      0.1160
     38  CD       -19.4570   39.8020   65.3590 C.2   330  GLU330      0.3649
     39  OE1      -18.9020   40.8160   64.8610 O.co2 330  GLU330     -0.2457
     40  OE2      -20.1430   39.8530   66.3980 O.co2 330  GLU330     -0.2457
     41  N        -20.0540   38.7100   69.3470 N.3   332  ARG332     -0.1231
     42  CA       -21.3630   39.2190   69.6880 C.3   332  ARG332      0.1694
     43  C        -22.4460   38.1960   69.3290 C.2   332  ARG332      0.2593
     44  O        -22.1680   37.2050   68.6260 O.2   332  ARG332     -0.2718
     45  CB       -21.6050   40.5530   68.9750 C.3   332  ARG332      0.0321
     46  CG       -20.5960   41.6510   69.2830 C.3   332  ARG332      0.0489
     47  CD       -20.8660   42.9190   68.4840 C.3   332  ARG332      0.2205
     48  NE       -20.5130   42.7730   67.0690 N.pl3 332  ARG332     -0.0865
     49  CZ       -20.6880   43.7100   66.1390 C.cat 332  ARG332      0.5346
     50  NH1      -21.2160   44.8880   66.4500 N.pl3 332  ARG332      0.1354
     51  NH2      -20.3340   43.4650   64.8860 N.pl3 332  ARG332      0.1354
     52  N        -23.6590   38.4520   69.8200 N.am  333  SER333     -0.1938
     53  CA       -24.8240   37.5880   69.6440 C.3   333  SER333      0.2055
     54  C        -26.0840   38.4430   69.6310 C.2   333  SER333      0.2642
     55  O        -26.1000   39.5310   70.2080 O.2   333  SER333     -0.2714
     56  CB       -24.8980   36.5450   70.7630 C.3   333  SER333      0.2130
     57  OG       -24.2230   36.9980   71.9380 O.3   333  SER333     -0.2179
     58  N        -27.1390   37.9740   68.9670 N.am  334  ARG334     -0.1977
     59  CA       -28.3660   38.7640   68.8930 C.3   334  ARG334      0.1597
     60  C        -29.1520   38.6990   70.1990 C.2   334  ARG334      0.2287
     61  O        -29.6550   39.7170   70.6560 O.2   334  ARG334     -0.2864
     62  CB       -29.2160   38.3690   67.6730 C.3   334  ARG334      0.0334
     63  CG       -30.5580   39.0940   67.5050 C.3   334  ARG334      0.0492
     64  CD       -30.4460   40.6210   67.5840 C.3   334  ARG334      0.2205
     65  NE       -31.6720   41.3160   67.1700 N.pl3 334  ARG334     -0.0865
     66  CZ       -32.6860   41.6670   67.9620 C.cat 334  ARG334      0.5346
     67  NH1      -32.6810   41.4110   69.2630 N.pl3 334  ARG334      0.1354
     68  NH2      -33.7180   42.3020   67.4320 N.pl3 334  ARG334      0.1354
     69  N        -33.3340   39.6000   75.4400 N.3   400  GLU400     -0.1231
     70  CA       -32.6130   40.7530   74.8900 C.3   400  GLU400      0.1699
     71  C        -31.4120   41.0890   75.7740 C.2   400  GLU400      0.2592
     72  O        -31.4930   40.9550   77.0030 O.2   400  GLU400     -0.2718
     73  CB       -33.5220   41.9780   74.7790 C.3   400  GLU400      0.0402
     74  CG       -34.8450   41.7850   74.0250 C.3   400  GLU400      0.1161
     75  CD       -34.7490   41.6720   72.4980 C.2   400  GLU400      0.3649
     76  OE1      -33.6360   41.6220   71.9190 O.co2 400  GLU400     -0.2457
     77  OE2      -35.8280   41.6260   71.8620 O.co2 400  GLU400     -0.2457
     78  N        -30.3090   41.5220   75.1520 N.am  401  LEU401     -0.1966
     79  CA       -29.0860   41.8880   75.8770 C.3   401  LEU401      0.1728
     80  C        -29.2530   43.0490   76.8570 C.2   401  LEU401      0.2616
     81  O        -28.3660   43.3310   77.6410 O.2   401  LEU401     -0.2715
     82  CB       -27.9620   42.2100   74.9000 C.3   401  LEU401      0.0311
     83  CG       -27.0900   41.0910   74.3420 C.3   401  LEU401      0.0022
     84  CD1      -26.5170   40.2090   75.4550 C.3   401  LEU401      0.0001
     85  CD2      -27.8320   40.2630   73.3080 C.3   401  LEU401      0.0001
     86  N        -30.3990   43.7160   76.8170 N.am  402  SER402     -0.1950
     87  CA       -30.7370   44.7480   77.7940 C.3   402  SER402      0.1924
     88  C        -31.5360   44.2240   78.9890 C.2   402  SER402      0.2314
     89  O        -31.8780   45.0170   79.8800 O.2   402  SER402     -0.2863
     90  CB       -31.5400   45.8570   77.1090 C.3   402  SER402      0.2116
     91  OG       -32.8410   45.4160   76.7720 O.3   402  SER402     -0.2180
@<TRIPOS>BOND
     1    29    26    1
     2    29    31    1
     3    29    30    1
     4    26    27    1
     5    26    25    1
     6    27    28    2
     7    24    23    2
     8    25    23   am
     9    23    22    1
    10    19    18    1
    11    36    37    1
    12    36    33    1
    13    37    38    1
    14    39    38   ar
    15    51    49    1
    16    22    21    1
    17    38    40   ar
    18    18    20    1
    19    18    17    2
    20    32    33    1
    21    33    34    1
    22    49    50    1
    23    49    48    2
    24    21    12   am
    25    16    17    1
    26    16    15    1
    27    13    12    2
    28    35    34    2
    29    12    11    1
    30    48    47    1
    31    65    64    1
    32    65    66    2
    33    14    15    1
    34    14    11    1
    35    68    66    1
    36    63    64    1
    37    63    62    1
    38    62    59    1
    39    11    10    1
    40    66    67    1
    41    47    46    1
    42    44    43    2
    43    59    58    1
    44    59    60    1
    45    58    54   am
    46    45    46    1
    47    45    42    1
    48    43    42    1
    49    43    52   am
    50    41    42    1
    51    54    53    1
    52    54    55    2
    53    53    52    1
    54    53    56    1
    55    60    61    2
    56    56    57    1
    57     8     7    2
    58     9     7   am
    59     7     6    1
    60     4     3    2
    61    77    75   ar
    62    76    75   ar
    63    75    74    1
    64     3     2    1
    65     6     5    1
    66     2     5    1
    67     2     1    1
    68    85    83    1
    69    74    73    1
    70    83    82    1
    71    83    84    1
    72    73    70    1
    73    70    69    1
    74    70    71    1
    75    82    79    1
    76    78    71   am
    77    78    79    1
    78    71    72    2
    79    79    80    1
    80    91    90    1
    81    86    80   am
    82    86    87    1
    83    80    81    2
    84    90    87    1
    85    87    88    1
    86    88    89    2
