@<TRIPOS>MOLECULE
tmp/5b7bA00.pdb
 127 120 0 0 0
SMALL
GASTEIGER

@<TRIPOS>ATOM
      1  N        -39.9950   26.6280   21.5420 N.3    35  ARG35      -0.1245
      2  CA       -39.9210   26.5960   22.9930 C.3    35  ARG35       0.1563
      3  C        -41.3000   26.3160   23.6390 C.2    35  ARG35       0.2260
      4  O        -41.4760   26.4890   24.8620 O.2    35  ARG35      -0.2867
      5  CB       -39.3550   27.9190   23.5050 C.3    35  ARG35       0.0307
      6  CG       -37.9040   28.2070   23.1590 C.3    35  ARG35       0.0489
      7  CD       -37.5670   29.6140   23.6270 C.3    35  ARG35       0.2205
      8  NE       -36.2250   30.0160   23.2370 N.pl3  35  ARG35      -0.0865
      9  CZ       -35.1410   29.8460   23.9820 C.cat  35  ARG35       0.5346
     10  NH1      -35.2240   29.2750   25.1800 N.pl3  35  ARG35       0.1354
     11  NH2      -33.9620   30.2400   23.5210 N.pl3  35  ARG35       0.1354
     12  N        -32.5050   24.4460   22.4050 N.3   234  SER234     -0.1202
     13  CA       -32.2680   25.8530   22.6790 C.3   234  SER234      0.2020
     14  C        -30.8290   26.0940   23.1050 C.2   234  SER234      0.2618
     15  O        -30.1960   27.0290   22.6060 O.2   234  SER234     -0.2717
     16  CB       -33.2430   26.3580   23.7350 C.3   234  SER234      0.2103
     17  OG       -34.5370   26.4220   23.1700 O.3   234  SER234     -0.2182
     18  N        -30.3110   25.2440   23.9930 N.am  235  ALA235     -0.1979
     19  CA       -28.9280   25.3740   24.4390 C.3   235  ALA235      0.1597
     20  C        -27.9340   25.1380   23.2960 C.2   235  ALA235      0.2287
     21  O        -26.9590   25.8890   23.1610 O.2   235  ALA235     -0.2864
     22  CB       -28.6400   24.4610   25.6210 C.3   235  ALA235      0.0319
     23  N        -27.7740   27.9790   20.9350 N.3   238  SER238     -0.1217
     24  CA       -27.0030   29.0700   21.5410 C.3   238  SER238      0.1889
     25  C        -25.4980   28.8980   21.4050 C.2   238  SER238      0.2288
     26  O        -24.7260   29.7510   21.8540 O.2   238  SER238     -0.2866
     27  CB       -27.3830   29.2540   22.9950 C.3   238  SER238      0.2089
     28  OG       -28.6550   29.8640   23.0530 O.3   238  SER238     -0.2183
     29  N        -23.8190   26.2430   22.6010 N.3   240  TYR240     -0.1241
     30  CA       -23.2740   25.5020   23.7660 C.3   240  TYR240      0.1605
     31  C        -22.6630   24.1400   23.4410 C.2   240  TYR240      0.2264
     32  O        -23.3050   23.2980   22.8030 O.2   240  TYR240     -0.2867
     33  CB       -24.3330   25.3310   24.8580 C.3   240  TYR240      0.0534
     34  CG       -23.7630   24.9050   26.1860 C.ar  240  TYR240     -0.0201
     35  CD1      -23.0590   25.8100   26.9940 C.ar  240  TYR240     -0.0009
     36  CD2      -23.9270   23.6020   26.6460 C.ar  240  TYR240     -0.0009
     37  CE1      -22.5350   25.4250   28.2200 C.ar  240  TYR240      0.0417
     38  CE2      -23.4230   23.2040   27.8710 C.ar  240  TYR240      0.0417
     39  CZ       -22.7250   24.1090   28.6550 C.ar  240  TYR240      0.1957
     40  OH       -22.2150   23.6940   29.8710 O.3   240  TYR240     -0.2866
     41  N        -21.9260   20.7350   24.5690 N.3   242  PHE242     -0.1241
     42  CA       -22.2710   19.7460   25.6010 C.3   242  PHE242      0.1605
     43  C        -21.2400   18.6710   25.7250 C.2   242  PHE242      0.2264
     44  O        -20.9350   18.2690   26.8450 O.2   242  PHE242     -0.2867
     45  CB       -23.6630   19.1440   25.4260 C.3   242  PHE242      0.0534
     46  CG       -24.7590   19.9980   25.9930 C.ar  242  PHE242     -0.0203
     47  CD1      -24.9740   20.0620   27.3700 C.ar  242  PHE242     -0.0042
     48  CD2      -25.5760   20.7560   25.1490 C.ar  242  PHE242     -0.0042
     49  CE1      -25.9810   20.8620   27.8930 C.ar  242  PHE242     -0.0003
     50  CE2      -26.5900   21.5480   25.6680 C.ar  242  PHE242     -0.0003
     51  CZ       -26.7940   21.6000   27.0430 C.ar  242  PHE242     -0.0000
     52  N        -21.6420   16.9810   30.9030 N.3   247  TYR247     -0.1241
     53  CA       -22.9950   17.1020   31.4670 C.3   247  TYR247      0.1605
     54  C        -23.3480   15.8860   32.3470 C.2   247  TYR247      0.2264
     55  O        -22.8690   14.7750   32.1250 O.2   247  TYR247     -0.2867
     56  CB       -24.0060   17.2920   30.3320 C.3   247  TYR247      0.0534
     57  CG       -25.4030   17.7410   30.7170 C.ar  247  TYR247     -0.0201
     58  CD1      -25.7660   19.0900   30.6920 C.ar  247  TYR247     -0.0009
     59  CD2      -26.3860   16.8010   31.0440 C.ar  247  TYR247     -0.0009
     60  CE1      -27.0650   19.4830   31.0080 C.ar  247  TYR247      0.0417
     61  CE2      -27.6780   17.1830   31.3660 C.ar  247  TYR247      0.0417
     62  CZ       -28.0180   18.5190   31.3460 C.ar  247  TYR247      0.1957
     63  OH       -29.3150   18.8490   31.6760 O.3   247  TYR247     -0.2866
     64  N        -25.8170   20.5230   36.5370 N.3   253  ASP253     -0.1239
     65  CA       -26.0670   20.7880   35.1180 C.3   253  ASP253      0.1674
     66  C        -27.5280   21.0690   34.7970 C.2   253  ASP253      0.2266
     67  O        -27.8020   22.1580   34.3280 O.2   253  ASP253     -0.2867
     68  CB       -25.4740   19.6960   34.2150 C.3   253  ASP253      0.1410
     69  CG       -23.9820   19.5050   34.4320 C.2   253  ASP253      0.3668
     70  OD1      -23.5970   18.5690   35.1680 O.co2 253  ASP253     -0.2456
     71  OD2      -23.1930   20.3030   33.8910 O.co2 253  ASP253     -0.2456
     72  N        -28.7590   24.2590   36.4360 N.3   256  ARG256     -0.1231
     73  CA       -28.0630   25.3720   35.8170 C.3   256  ARG256      0.1694
     74  C        -28.6700   25.6680   34.4510 C.2   256  ARG256      0.2591
     75  O        -28.7940   26.8240   34.0410 O.2   256  ARG256     -0.2718
     76  CB       -26.5850   25.0350   35.6990 C.3   256  ARG256      0.0321
     77  CG       -25.7130   26.1700   35.1990 C.3   256  ARG256      0.0489
     78  CD       -24.2570   25.9970   35.6050 C.3   256  ARG256      0.2205
     79  NE       -24.0360   26.4520   36.9850 N.pl3 256  ARG256     -0.0865
     80  CZ       -22.8610   26.8450   37.4860 C.cat 256  ARG256      0.5346
     81  NH1      -21.7690   26.8640   36.7230 N.pl3 256  ARG256      0.1354
     82  NH2      -22.7770   27.2280   38.7580 N.pl3 256  ARG256      0.1354
     83  N        -29.0730   24.6060   33.7670 N.am  257  LEU257     -0.1980
     84  CA       -29.6120   24.7080   32.4350 C.3   257  LEU257      0.1596
     85  C        -31.0110   25.2640   32.4850 C.2   257  LEU257      0.2287
     86  O        -31.3870   26.0110   31.5890 O.2   257  LEU257     -0.2864
     87  CB       -29.5800   23.3480   31.7530 C.3   257  LEU257      0.0297
     88  CG       -29.9490   23.2170   30.2890 C.3   257  LEU257      0.0022
     89  CD1      -29.0490   24.0780   29.4230 C.3   257  LEU257      0.0001
     90  CD2      -29.8430   21.7510   29.9010 C.3   257  LEU257      0.0001
     91  N        -32.1040   27.3980   34.7340 N.3   259  GLN259     -0.1231
     92  CA       -32.0390   28.7790   35.2140 C.3   259  GLN259      0.1698
     93  C        -32.1180   29.8320   34.1080 C.2   259  GLN259      0.2592
     94  O        -32.6200   30.9370   34.3240 O.2   259  GLN259     -0.2718
     95  CB       -30.7730   28.9850   36.0400 C.3   259  GLN259      0.0381
     96  CG       -30.9070   28.5500   37.4920 C.3   259  GLN259      0.0905
     97  CD       -31.8350   29.4320   38.3180 C.2   259  GLN259      0.2608
     98  OE1      -32.7770   28.9510   38.9410 O.2   259  GLN259     -0.2717
     99  NE2      -31.5630   30.7250   38.3290 N.am  259  GLN259     -0.0878
    100  N        -31.6260   29.4700   32.9280 N.am  260  ASN260     -0.1960
    101  CA       -31.4310   30.4050   31.8210 C.3   260  ASN260      0.1819
    102  C        -32.2260   29.9560   30.6190 C.2   260  ASN260      0.2622
    103  O        -32.1950   30.5940   29.5600 O.2   260  ASN260     -0.2715
    104  CB       -29.9560   30.4580   31.4250 C.3   260  ASN260      0.1195
    105  CG       -29.0500   29.9340   32.5020 C.2   260  ASN260      0.2630
    106  OD1      -28.8800   30.5580   33.5550 O.2   260  ASN260     -0.2716
    107  ND2      -28.4830   28.7600   32.2600 N.am  260  ASN260     -0.0877
    108  N        -32.9140   28.8360   30.7740 N.am  261  SER261     -0.1950
    109  CA       -33.7550   28.3500   29.7130 C.3   261  SER261      0.1924
    110  C        -35.0760   29.1090   29.6960 C.2   261  SER261      0.2314
    111  O        -35.2880   30.0200   30.5170 O.2   261  SER261     -0.2863
    112  CB       -33.9200   26.8460   29.8040 C.3   261  SER261      0.2116
    113  OG       -32.7990   26.2300   29.1810 O.3   261  SER261     -0.2180
    114  N        -27.0810   28.2500   43.7940 N.3   402  LEU402     -0.1231
    115  CA       -26.7680   28.0540   42.3680 C.3   402  LEU402      0.1693
    116  C        -25.3520   28.5370   42.0060 C.2   402  LEU402      0.2592
    117  O        -24.6580   27.9270   41.1880 O.2   402  LEU402     -0.2718
    118  CB       -27.8470   28.6750   41.4860 C.3   402  LEU402      0.0284
    119  CG       -29.1340   27.8410   41.4900 C.3   402  LEU402      0.0019
    120  CD1      -30.3610   28.7200   41.5200 C.3   402  LEU402      0.0001
    121  CD2      -29.1720   26.8860   40.3100 C.3   402  LEU402      0.0001
    122  N        -24.9240   29.6060   42.6780 N.am  403  SER403     -0.1952
    123  CA       -23.5320   30.0630   42.6920 C.3   403  SER403      0.1924
    124  C        -22.4840   29.0290   43.1830 C.2   403  SER403      0.2314
    125  O        -21.2840   29.2140   42.9550 O.2   403  SER403     -0.2863
    126  CB       -23.4310   31.3570   43.5060 C.3   403  SER403      0.2116
    127  OG       -24.2100   31.2740   44.6790 O.3   403  SER403     -0.2180
@<TRIPOS>BOND
     1    23    24    1
     2    25    24    1
     3    25    26    2
     4    24    27    1
     5     1     2    1
     6    12    13    1
     7    29    30    1
     8    15    14    2
     9    13    14    1
    10    13    16    1
    11    32    31    2
    12     2     5    1
    13     2     3    1
    14    27    28    1
    15    14    18   am
    16     6     5    1
    17     6     7    1
    18    21    20    2
    19    17    16    1
    20     8     7    1
    21     8     9    2
    22    20    19    1
    23    31    30    1
    24    11     9    1
    25     3     4    2
    26    30    33    1
    27     9    10    1
    28    18    19    1
    29    19    22    1
    30    41    42    1
    31    33    34    1
    32    48    50   ar
    33    48    46   ar
    34    45    42    1
    35    45    46    1
    36    42    43    1
    37    50    51   ar
    38    43    44    2
    39    46    47   ar
    40    34    36   ar
    41    34    35   ar
    42    36    38   ar
    43    35    37   ar
    44    51    49   ar
    45    47    49   ar
    46    38    39   ar
    47    37    39   ar
    48    39    40    1
    49   113   112    1
    50    89    88    1
    51   103   102    2
    52   110   109    1
    53   110   111    2
    54   109   112    1
    55   109   108    1
    56    90    88    1
    57    88    87    1
    58    56    57    1
    59    56    53    1
    60   102   108   am
    61   102   101    1
    62    58    57   ar
    63    58    60   ar
    64    57    59   ar
    65    52    53    1
    66    60    62   ar
    67    59    61   ar
    68    62    61   ar
    69    62    63    1
    70   104   101    1
    71   104   105    1
    72    53    54    1
    73    86    85    2
    74    87    84    1
    75   101   100    1
    76    55    54    2
    77   107   105   am
    78    84    85    1
    79    84    83    1
    80   105   106    2
    81   100    93   am
    82    83    74   am
    83    71    69   ar
    84    75    74    2
    85    93    94    2
    86    93    92    1
    87    68    69    1
    88    68    65    1
    89    67    66    2
    90    69    70   ar
    91    74    73    1
    92    91    92    1
    93    66    65    1
    94    65    64    1
    95    77    78    1
    96    77    76    1
    97    92    95    1
    98    78    79    1
    99    76    73    1
   100    73    72    1
   101    95    96    1
   102    81    80    1
   103    79    80    2
   104    80    82    1
   105    96    97    1
   106    97    99   am
   107    97    98    2
   108   121   119    1
   109   117   116    2
   110   118   119    1
   111   118   115    1
   112   119   120    1
   113   116   115    1
   114   116   122   am
   115   115   114    1
   116   122   123    1
   117   123   124    1
   118   123   126    1
   119   125   124    2
   120   126   127    1
