@<TRIPOS>MOLECULE
tmp/5b7gA00.pdb
 109 106 0 0 0
SMALL
GASTEIGER

@<TRIPOS>ATOM
      1  N         45.3790  -39.2990   10.5390 N.3    78  THR78      -0.1203
      2  CA        46.6470  -39.8630   10.1030 C.3    78  THR78       0.1994
      3  C         46.7970  -39.8080    8.5840 C.2    78  THR78       0.2618
      4  O         45.8190  -39.6490    7.8350 O.2    78  THR78      -0.2717
      5  CB        46.8000  -41.3260   10.5800 C.3    78  THR78       0.1784
      6  OG1       45.7200  -42.1220   10.0740 O.3    78  THR78      -0.2211
      7  CG2       46.7930  -41.3980   12.1020 C.3    78  THR78       0.0376
      8  N         48.0400  -39.9490    8.1350 N.am   79  ALA79      -0.1965
      9  CA        48.3700  -39.8730    6.7150 C.3    79  ALA79       0.1728
     10  C         49.6630  -40.6240    6.4450 C.2    79  ALA79       0.2616
     11  O         50.4530  -40.8650    7.3710 O.2    79  ALA79      -0.2715
     12  CB        48.5020  -38.4200    6.2730 C.3    79  ALA79       0.0334
     13  N         49.8890  -40.9790    5.1840 N.am   80  GLY80      -0.1955
     14  CA        51.1200  -41.6390    4.7760 C.3    80  GLY80       0.1869
     15  C         52.0340  -40.6800    4.0470 C.2    80  GLY80       0.2309
     16  O         51.5970  -39.9240    3.1930 O.2    80  GLY80      -0.2863
     17  N         42.5360  -44.3490   -1.4510 N.3   172  GLU172     -0.1231
     18  CA        43.7200  -45.1340   -1.7580 C.3   172  GLU172      0.1699
     19  C         44.6370  -45.2790   -0.5710 C.2   172  GLU172      0.2592
     20  O         44.7210  -44.3910    0.2830 O.2   172  GLU172     -0.2718
     21  CB        44.5300  -44.4870   -2.8910 C.3   172  GLU172      0.0402
     22  CG        43.8010  -44.3830   -4.2180 C.3   172  GLU172      0.1161
     23  CD        44.5730  -43.6200   -5.2750 C.2   172  GLU172      0.3649
     24  OE1       45.7500  -43.2470   -5.0580 O.co2 172  GLU172     -0.2457
     25  OE2       43.9940  -43.3860   -6.3550 O.co2 172  GLU172     -0.2457
     26  N         45.3300  -46.4100   -0.5470 N.am  173  TRP173     -0.1962
     27  CA        46.5240  -46.5610    0.2810 C.3   173  TRP173      0.1771
     28  C         47.6140  -47.0940   -0.6360 C.2   173  TRP173      0.2619
     29  O         47.6140  -48.2600   -1.0380 O.2   173  TRP173     -0.2715
     30  CB        46.2880  -47.4850    1.4800 C.3   173  TRP173      0.0590
     31  CG        47.3860  -47.4460    2.5390 C.ar  173  TRP173      0.0006
     32  CD1       48.7310  -47.6040    2.3440 C.ar  173  TRP173      0.0946
     33  CD2       47.2080  -47.2670    3.9530 C.ar  173  TRP173      0.0152
     34  NE1       49.3990  -47.5240    3.5460 N.ar  173  TRP173     -0.2442
     35  CE2       48.4850  -47.3200    4.5480 C.ar  173  TRP173      0.0810
     36  CE3       46.0910  -47.0630    4.7740 C.ar  173  TRP173      0.0012
     37  CZ2       48.6750  -47.1710    5.9240 C.ar  173  TRP173      0.0191
     38  CZ3       46.2830  -46.9190    6.1390 C.ar  173  TRP173      0.0001
     39  CH2       47.5640  -46.9770    6.6990 C.ar  173  TRP173      0.0015
     40  N         48.5200  -46.1920   -0.9980 N.am  174  ASN174     -0.1972
     41  CA        49.6030  -46.5020   -1.9330 C.3   174  ASN174      0.1688
     42  C         50.8360  -47.0080   -1.2230 C.2   174  ASN174      0.2292
     43  O         51.3590  -46.3240   -0.3460 O.2   174  ASN174     -0.2864
     44  CB        49.9980  -45.2710   -2.7450 C.3   174  ASN174      0.1181
     45  CG        48.9460  -44.8790   -3.7460 C.2   174  ASN174      0.2629
     46  OD1       48.8070  -45.5170   -4.7950 O.2   174  ASN174     -0.2716
     47  ND2       48.1870  -43.8270   -3.4330 N.am  174  ASN174     -0.0877
     48  N         49.5320  -38.4810    1.8760 N.3   192  GLU192     -0.1231
     49  CA        48.2480  -38.9460    1.3530 C.3   192  GLU192      0.1699
     50  C         47.3290  -39.4320    2.4600 C.2   192  GLU192      0.2592
     51  O         47.7690  -39.9750    3.4800 O.2   192  GLU192     -0.2718
     52  CB        48.4430  -40.0800    0.3370 C.3   192  GLU192      0.0402
     53  CG        48.9620  -41.3910    0.9560 C.3   192  GLU192      0.1161
     54  CD        48.9180  -42.5610   -0.0150 C.2   192  GLU192      0.3649
     55  OE1       49.2710  -42.3660   -1.2000 O.co2 192  GLU192     -0.2457
     56  OE2       48.5160  -43.6720    0.4090 O.co2 192  GLU192     -0.2457
     57  N         46.0410  -39.1930    2.2770 N.am  193  GLU193     -0.1966
     58  CA        45.0290  -39.7140    3.1810 C.3   193  GLU193      0.1733
     59  C         43.7130  -39.8090    2.4250 C.2   193  GLU193      0.2616
     60  O         43.6970  -39.6860    1.1980 O.2   193  GLU193     -0.2715
     61  CB        44.9010  -38.8440    4.4320 C.3   193  GLU193      0.0429
     62  CG        44.8850  -37.3520    4.1750 C.3   193  GLU193      0.1163
     63  CD        46.2580  -36.7090    4.3040 C.2   193  GLU193      0.3649
     64  OE1       47.2490  -37.1930    3.7540 O.co2 193  GLU193     -0.2457
     65  OE2       46.3670  -35.6750    4.9590 O.co2 193  GLU193     -0.2457
     66  N         42.6140  -40.0220    3.1380 N.am  194  MET194     -0.1977
     67  CA        41.3910  -40.4320    2.4640 C.3   194  MET194      0.1605
     68  C         40.1560  -39.5700    2.6990 C.2   194  MET194      0.2287
     69  O         39.0640  -39.9610    2.2810 O.2   194  MET194     -0.2864
     70  CB        41.0790  -41.8880    2.8590 C.3   194  MET194      0.0413
     71  CG        42.2570  -42.8450    2.6070 C.3   194  MET194      0.0598
     72  SD        41.9470  -44.5580    3.0930 S.3   194  MET194     -0.1393
     73  CE        40.6600  -45.0380    1.9280 C.3   194  MET194      0.0692
     74  N         47.2300  -33.0920    9.5760 N.3   214  ARG214     -0.1245
     75  CA        47.4790  -34.5270    9.4640 C.3   214  ARG214      0.1563
     76  C         48.8280  -34.9320    9.9990 C.2   214  ARG214      0.2260
     77  O         49.8460  -34.3400    9.6500 O.2   214  ARG214     -0.2867
     78  CB        47.3540  -34.9820    8.0130 C.3   214  ARG214      0.0307
     79  CG        45.9230  -34.9160    7.5320 C.3   214  ARG214      0.0489
     80  CD        45.1600  -36.1810    7.9110 C.3   214  ARG214      0.2205
     81  NE        43.7330  -36.0560    7.6070 N.pl3 214  ARG214     -0.0865
     82  CZ        42.8890  -37.0830    7.5510 C.cat 214  ARG214      0.5346
     83  NH1       43.3330  -38.3230    7.7080 N.pl3 214  ARG214      0.1354
     84  NH2       41.5990  -36.8700    7.3040 N.pl3 214  ARG214      0.1354
     85  N         51.3860  -41.1300   10.0780 N.3   217  SER217     -0.1202
     86  CA        51.3820  -42.3350   10.8910 C.3   217  SER217      0.2020
     87  C         52.3780  -43.3570   10.3780 C.2   217  SER217      0.2618
     88  O         52.6730  -44.3370   11.0620 O.2   217  SER217     -0.2717
     89  CB        49.9890  -42.9480   10.9250 C.3   217  SER217      0.2103
     90  OG        49.4660  -43.1000    9.6190 O.3   217  SER217     -0.2182
     91  N         52.8830  -43.1280    9.1720 N.am  218  ASN218     -0.1974
     92  CA        53.6910  -44.1060    8.4630 C.3   218  ASN218      0.1688
     93  C         54.2990  -43.4490    7.2490 C.2   218  ASN218      0.2292
     94  O         53.7780  -42.4470    6.7610 O.2   218  ASN218     -0.2864
     95  CB        52.8460  -45.3140    8.0320 C.3   218  ASN218      0.1181
     96  CG        51.7660  -44.9470    7.0210 C.2   218  ASN218      0.2629
     97  OD1       51.9000  -45.1890    5.8070 O.2   218  ASN218     -0.2716
     98  ND2       50.6930  -44.3670    7.5060 N.am  218  ASN218     -0.0877
     99  N         52.8610  -48.2180   10.2900 N.3   226  PHE226     -0.1241
    100  CA        51.7950  -47.5070   10.9970 C.3   226  PHE226      0.1605
    101  C         51.9410  -47.5770   12.5140 C.2   226  PHE226      0.2264
    102  O         52.0640  -48.6600   13.0890 O.2   226  PHE226     -0.2867
    103  CB        50.4300  -48.0690   10.5790 C.3   226  PHE226      0.0534
    104  CG        49.2570  -47.3280   11.1690 C.ar  226  PHE226     -0.0203
    105  CD1       48.7240  -46.2180   10.5280 C.ar  226  PHE226     -0.0042
    106  CD2       48.6710  -47.7590   12.3480 C.ar  226  PHE226     -0.0042
    107  CE1       47.6370  -45.5400   11.0670 C.ar  226  PHE226     -0.0003
    108  CE2       47.5910  -47.0860   12.8950 C.ar  226  PHE226     -0.0003
    109  CZ        47.0730  -45.9760   12.2530 C.ar  226  PHE226     -0.0000
@<TRIPOS>BOND
     1    25    23   ar
     2    23    24   ar
     3    23    22    1
     4    46    45    2
     5    22    21    1
     6    45    47   am
     7    45    44    1
     8    21    18    1
     9    44    41    1
    10    41    42    1
    11    41    40    1
    12    18    17    1
    13    18    19    1
    14    42    43    2
    15    55    54   ar
    16    29    28    2
    17    40    28   am
    18    28    27    1
    19    19    26   am
    20    19    20    2
    21    26    27    1
    22    54    56   ar
    23    54    53    1
    24    27    30    1
    25    52    53    1
    26    52    49    1
    27    60    59    2
    28    49    48    1
    29    49    50    1
    30    30    31    1
    31    73    72    1
    32    57    50   am
    33    57    58    1
    34    69    68    2
    35    32    31   ar
    36    32    34   ar
    37    59    66   am
    38    59    58    1
    39    50    51    2
    40    67    68    1
    41    67    70    1
    42    67    66    1
    43    31    33   ar
    44    71    70    1
    45    71    72    1
    46    58    61    1
    47    16    15    2
    48    34    35   ar
    49    64    63   ar
    50    33    35   ar
    51    33    36   ar
    52    15    14    1
    53    62    63    1
    54    62    61    1
    55    63    65   ar
    56    35    37   ar
    57    36    38   ar
    58    14    13    1
    59    13    10   am
    60    97    96    2
    61    37    39   ar
    62    38    39   ar
    63    12     9    1
    64    10     9    1
    65    10    11    2
    66     9     8    1
    67    94    93    2
    68    96    98   am
    69    96    95    1
    70    93    92    1
    71    84    82    1
    72    79    80    1
    73    79    78    1
    74    82    81    2
    75    82    83    1
    76    81    80    1
    77     4     3    2
    78    78    75    1
    79    95    92    1
    80     8     3   am
    81    92    91    1
    82     3     2    1
    83    91    87   am
    84    75    74    1
    85    75    76    1
    86    90    89    1
    87    77    76    2
    88     6     5    1
    89    85    86    1
    90     2     1    1
    91     2     5    1
    92    99   100    1
    93    87    86    1
    94    87    88    2
    95   105   107   ar
    96   105   104   ar
    97   103   100    1
    98   103   104    1
    99     5     7    1
   100    86    89    1
   101   100   101    1
   102   107   109   ar
   103   104   106   ar
   104   109   108   ar
   105   106   108   ar
   106   101   102    2
