@<TRIPOS>MOLECULE
tmp/5b7nA00.pdb
 147 141 0 0 0
SMALL
GASTEIGER

@<TRIPOS>ATOM
      1  N         38.5720  -40.0650   11.1410 N.3     9  ALA9       -0.1231
      2  CA        37.9030  -41.1600   10.4360 C.3     9  ALA9        0.1694
      3  C         37.7030  -42.3960   11.3090 C.2     9  ALA9        0.2591
      4  O         36.6210  -42.9980   11.3080 O.2     9  ALA9       -0.2718
      5  CB        38.6910  -41.5280    9.1830 C.3     9  ALA9        0.0304
      6  N         38.7550  -42.7730   12.0330 N.am   10  MET10      -0.1979
      7  CA        38.7970  -44.0190   12.8040 C.3    10  MET10       0.1605
      8  C         38.6500  -43.7640   14.2950 C.2    10  MET10       0.2287
      9  O         38.9150  -42.6610   14.7570 O.2    10  MET10      -0.2864
     10  CB        40.1120  -44.7550   12.5490 C.3    10  MET10       0.0413
     11  CG        40.3790  -45.0930   11.0820 C.3    10  MET10       0.0598
     12  SD        41.9390  -45.9740   10.8450 S.3    10  MET10      -0.1393
     13  CE        43.1370  -44.6780   11.1410 C.3    10  MET10       0.0692
     14  N         41.4870  -42.1900   15.9780 N.3    13  GLU13      -0.1245
     15  CA        41.6870  -40.7840   15.6240 C.3    13  GLU13       0.1567
     16  C         40.6840  -39.8400   16.2970 C.2    13  GLU13       0.2260
     17  O         40.7700  -38.6170   16.1280 O.2    13  GLU13      -0.2867
     18  CB        41.6220  -40.6090   14.0970 C.3    13  GLU13       0.0388
     19  CG        42.8000  -41.2390   13.3550 C.3    13  GLU13       0.1160
     20  CD        42.5180  -41.4490   11.8840 C.2    13  GLU13       0.3649
     21  OE1       41.3410  -41.7080   11.5450 O.co2  13  GLU13      -0.2457
     22  OE2       43.4700  -41.3620   11.0690 O.co2  13  GLU13      -0.2457
     23  N         35.6540  -43.8920    6.7300 N.3    51  VAL51      -0.1245
     24  CA        36.8360  -43.7820    5.8730 C.3    51  VAL51       0.1561
     25  C         36.5080  -43.4940    4.4100 C.2    51  VAL51       0.2260
     26  O         35.5670  -44.0660    3.8660 O.2    51  VAL51      -0.2867
     27  CB        37.6750  -45.0800    5.9390 C.3    51  VAL51       0.0252
     28  CG1       38.8160  -45.0630    4.9050 C.3    51  VAL51       0.0019
     29  CG2       38.2260  -45.2960    7.3500 C.3    51  VAL51       0.0019
     30  N         45.4920  -39.4180   10.5980 N.3    77  THR77      -0.1203
     31  CA        46.7770  -39.9740   10.1800 C.3    77  THR77       0.1994
     32  C         46.9390  -40.0090    8.6690 C.2    77  THR77       0.2618
     33  O         45.9640  -39.9450    7.9250 O.2    77  THR77      -0.2717
     34  CB        46.9510  -41.4000   10.7090 C.3    77  THR77       0.1784
     35  OG1       45.9020  -42.2240   10.1740 O.3    77  THR77      -0.2211
     36  CG2       46.8980  -41.4040   12.2420 C.3    77  THR77       0.0376
     37  N         48.1810  -40.1310    8.2210 N.am   78  ALA78      -0.1965
     38  CA        48.4760  -40.1030    6.8010 C.3    78  ALA78       0.1728
     39  C         49.7770  -40.8430    6.5240 C.2    78  ALA78       0.2616
     40  O         50.5380  -41.1570    7.4540 O.2    78  ALA78      -0.2715
     41  CB        48.5590  -38.6560    6.3100 C.3    78  ALA78       0.0334
     42  N         50.0340  -41.1090    5.2470 N.am   79  GLY79      -0.1955
     43  CA        51.2660  -41.7450    4.8170 C.3    79  GLY79       0.1869
     44  C         52.1700  -40.7610    4.1020 C.2    79  GLY79       0.2309
     45  O         51.7070  -39.9810    3.2780 O.2    79  GLY79      -0.2863
     46  N         42.6750  -44.4410   -1.6280 N.3   171  GLU171     -0.1231
     47  CA        43.8520  -45.2470   -1.9230 C.3   171  GLU171      0.1699
     48  C         44.7630  -45.3480   -0.7220 C.2   171  GLU171      0.2592
     49  O         44.9050  -44.3950    0.0370 O.2   171  GLU171     -0.2718
     50  CB        44.6660  -44.6470   -3.0770 C.3   171  GLU171      0.0402
     51  CG        43.9280  -44.5020   -4.3840 C.3   171  GLU171      0.1161
     52  CD        44.7310  -43.7620   -5.4440 C.2   171  GLU171      0.3649
     53  OE1       45.8990  -43.3940   -5.1800 O.co2 171  GLU171     -0.2457
     54  OE2       44.1920  -43.5390   -6.5550 O.co2 171  GLU171     -0.2457
     55  N         45.3910  -46.5040   -0.5710 N.am  172  TRP172     -0.1962
     56  CA        46.5760  -46.6220    0.2700 C.3   172  TRP172      0.1771
     57  C         47.6770  -47.1540   -0.6370 C.2   172  TRP172      0.2619
     58  O         47.6650  -48.3370   -0.9930 O.2   172  TRP172     -0.2715
     59  CB        46.3410  -47.5480    1.4710 C.3   172  TRP172      0.0590
     60  CG        47.4760  -47.5210    2.4940 C.ar  172  TRP172      0.0006
     61  CD1       48.8160  -47.6060    2.2340 C.ar  172  TRP172      0.0946
     62  CD2       47.3540  -47.4130    3.9250 C.ar  172  TRP172      0.0152
     63  NE1       49.5360  -47.5640    3.4100 N.ar  172  TRP172     -0.2442
     64  CE2       48.6620  -47.4470    4.4610 C.ar  172  TRP172      0.0810
     65  CE3       46.2680  -47.3060    4.8050 C.ar  172  TRP172      0.0012
     66  CZ2       48.9140  -47.3520    5.8350 C.ar  172  TRP172      0.0191
     67  CZ3       46.5230  -47.2090    6.1720 C.ar  172  TRP172      0.0001
     68  CH2       47.8340  -47.2430    6.6710 C.ar  172  TRP172      0.0015
     69  N         48.5910  -46.2670   -1.0380 N.am  173  ASN173     -0.1972
     70  CA        49.7020  -46.6230   -1.9260 C.3   173  ASN173      0.1688
     71  C         50.9240  -47.1180   -1.1810 C.2   173  ASN173      0.2292
     72  O         51.4050  -46.4500   -0.2770 O.2   173  ASN173     -0.2864
     73  CB        50.1170  -45.4200   -2.7780 C.3   173  ASN173      0.1181
     74  CG        49.0440  -45.0020   -3.7470 C.2   173  ASN173      0.2629
     75  OD1       48.8520  -45.6390   -4.7850 O.2   173  ASN173     -0.2716
     76  ND2       48.3310  -43.9290   -3.4190 N.am  173  ASN173     -0.0877
     77  N         49.6800  -38.6240    1.9210 N.3   191  GLU191     -0.1231
     78  CA        48.4310  -39.1190    1.3500 C.3   191  GLU191      0.1699
     79  C         47.4850  -39.6260    2.4340 C.2   191  GLU191      0.2592
     80  O         47.9120  -40.1820    3.4580 O.2   191  GLU191     -0.2718
     81  CB        48.6900  -40.2460    0.3410 C.3   191  GLU191      0.0402
     82  CG        49.1630  -41.5630    0.9760 C.3   191  GLU191      0.1161
     83  CD        49.0670  -42.7340    0.0120 C.2   191  GLU191      0.3649
     84  OE1       49.4390  -42.5510   -1.1630 O.co2 191  GLU191     -0.2457
     85  OE2       48.6030  -43.8230    0.4280 O.co2 191  GLU191     -0.2457
     86  N         46.1980  -39.3750    2.2260 N.am  192  GLU192     -0.1966
     87  CA        45.1530  -39.9150    3.0820 C.3   192  GLU192      0.1733
     88  C         43.8590  -40.0020    2.2840 C.2   192  GLU192      0.2616
     89  O         43.8720  -39.8800    1.0520 O.2   192  GLU192     -0.2715
     90  CB        44.9720  -39.0670    4.3400 C.3   192  GLU192      0.0429
     91  CG        44.9390  -37.5750    4.0980 C.3   192  GLU192      0.1163
     92  CD        46.2890  -36.9100    4.2990 C.2   192  GLU192      0.3649
     93  OE1       47.3160  -37.3860    3.8020 O.co2 192  GLU192     -0.2457
     94  OE2       46.3370  -35.8770    4.9650 O.co2 192  GLU192     -0.2457
     95  N         42.7380  -40.2150    2.9660 N.am  193  MET193     -0.1963
     96  CA        41.5140  -40.5670    2.2440 C.3   193  MET193      0.1736
     97  C         40.2760  -39.7060    2.5120 C.2   193  MET193      0.2616
     98  O         39.1950  -40.0440    2.0340 O.2   193  MET193     -0.2715
     99  CB        41.1820  -42.0440    2.5450 C.3   193  MET193      0.0427
    100  CG        42.3670  -42.9880    2.2610 C.3   193  MET193      0.0599
    101  SD        42.1460  -44.6770    2.8590 S.3   193  MET193     -0.1393
    102  CE        40.7870  -45.2070    1.8060 C.3   193  MET193      0.0692
    103  N         40.4150  -38.5870    3.2250 N.am  194  GLU194     -0.1977
    104  CA        39.2300  -37.7840    3.5640 C.3   194  GLU194      0.1602
    105  C         39.3350  -36.2860    3.3030 C.2   194  GLU194      0.2287
    106  O         38.3280  -35.6380    3.0250 O.2   194  GLU194     -0.2864
    107  CB        38.8700  -37.9530    5.0480 C.3   194  GLU194      0.0415
    108  CG        38.4280  -39.3570    5.4530 C.3   194  GLU194      0.1163
    109  CD        39.5830  -40.2910    5.7650 C.2   194  GLU194      0.3649
    110  OE1       40.6400  -39.8210    6.2330 O.co2 194  GLU194     -0.2457
    111  OE2       39.4360  -41.5120    5.5400 O.co2 194  GLU194     -0.2457
    112  N         47.3460  -33.2400    9.6040 N.3   213  ARG213     -0.1245
    113  CA        47.5850  -34.6790    9.5160 C.3   213  ARG213      0.1563
    114  C         48.9520  -35.0970   10.0240 C.2   213  ARG213      0.2260
    115  O         49.9690  -34.5490    9.6050 O.2   213  ARG213     -0.2867
    116  CB        47.4380  -35.1560    8.0720 C.3   213  ARG213      0.0307
    117  CG        46.0280  -35.0960    7.5840 C.3   213  ARG213      0.0489
    118  CD        45.2780  -36.3690    7.9440 C.3   213  ARG213      0.2205
    119  NE        43.8520  -36.2680    7.6240 N.pl3 213  ARG213     -0.0865
    120  CZ        43.0480  -37.3190    7.4980 C.cat 213  ARG213      0.5346
    121  NH1       43.5430  -38.5430    7.6260 N.pl3 213  ARG213      0.1354
    122  NH2       41.7540  -37.1490    7.2370 N.pl3 213  ARG213      0.1354
    123  N         51.4770  -41.3630   10.2220 N.3   216  SER216     -0.1202
    124  CA        51.5090  -42.5580   11.0700 C.3   216  SER216      0.2020
    125  C         52.3900  -43.6180   10.4460 C.2   216  SER216      0.2618
    126  O         52.7080  -44.6420   11.0670 O.2   216  SER216     -0.2717
    127  CB        50.1030  -43.1140   11.2840 C.3   216  SER216      0.2103
    128  OG        49.5310  -43.5340   10.0560 O.3   216  SER216     -0.2182
    129  N         52.7780  -43.3630    9.2050 N.am  217  ASN217     -0.1974
    130  CA        53.5500  -44.3170    8.4260 C.3   217  ASN217      0.1688
    131  C         54.2020  -43.6200    7.2500 C.2   217  ASN217      0.2292
    132  O         53.7050  -42.5950    6.7850 O.2   217  ASN217     -0.2864
    133  CB        52.6580  -45.4700    7.9290 C.3   217  ASN217      0.1181
    134  CG        51.5150  -44.9990    7.0180 C.2   217  ASN217      0.2629
    135  OD1       51.6100  -45.0590    5.7860 O.2   217  ASN217     -0.2716
    136  ND2       50.4270  -44.5450    7.6240 N.am  217  ASN217     -0.0877
    137  N         52.9750  -48.4030   10.4770 N.3   225  PHE225     -0.1241
    138  CA        51.9420  -47.7530   11.2810 C.3   225  PHE225      0.1605
    139  C         52.2200  -47.7610   12.7880 C.2   225  PHE225      0.2264
    140  O         52.4930  -48.8050   13.3810 O.2   225  PHE225     -0.2867
    141  CB        50.5910  -48.4200   11.0060 C.3   225  PHE225      0.0534
    142  CG        49.5000  -47.9950   11.9470 C.ar  225  PHE225     -0.0203
    143  CD1       48.9190  -46.7470   11.8360 C.ar  225  PHE225     -0.0042
    144  CD2       49.0440  -48.8550   12.9310 C.ar  225  PHE225     -0.0042
    145  CE1       47.9120  -46.3560   12.7000 C.ar  225  PHE225     -0.0003
    146  CE2       48.0410  -48.4700   13.7940 C.ar  225  PHE225     -0.0003
    147  CZ        47.4730  -47.2210   13.6740 C.ar  225  PHE225     -0.0000
@<TRIPOS>BOND
     1    54    52   ar
     2    52    53   ar
     3    52    51    1
     4    75    74    2
     5    51    50    1
     6    74    76   am
     7    74    73    1
     8    50    47    1
     9    73    70    1
    10    70    71    1
    11    70    69    1
    12    47    46    1
    13    47    48    1
    14    71    72    2
    15    84    83   ar
    16    69    57   am
    17    58    57    2
    18    48    55   am
    19    48    49    2
    20    57    56    1
    21    55    56    1
    22    83    85   ar
    23    83    82    1
    24    56    59    1
    25    81    82    1
    26    81    78    1
    27    89    88    2
    28    78    77    1
    29    78    79    1
    30    59    60    1
    31   102   101    1
    32    98    97    2
    33    86    79   am
    34    86    87    1
    35    61    60   ar
    36    61    63   ar
    37    96    97    1
    38    96    99    1
    39    96    95    1
    40   100    99    1
    41   100   101    1
    42    88    95   am
    43    88    87    1
    44    79    80    2
    45    60    62   ar
    46    97   103   am
    47   106   105    2
    48    87    90    1
    49   103   104    1
    50    45    44    2
    51   105   104    1
    52    63    64   ar
    53   104   107    1
    54    93    92   ar
    55    26    25    2
    56    62    64   ar
    57    62    65   ar
    58    91    92    1
    59    91    90    1
    60    44    43    1
    61    92    94   ar
    62    25    24    1
    63    64    66   ar
    64    65    67   ar
    65    43    42    1
    66    28    27    1
    67   107   108    1
    68    42    39   am
    69   108   109    1
    70   111   109   ar
    71   109   110   ar
    72   135   134    2
    73    66    68   ar
    74    24    27    1
    75    24    23    1
    76    27    29    1
    77    67    68   ar
    78    41    38    1
    79    39    38    1
    80    39    40    2
    81   132   131    2
    82    38    37    1
    83   134   136   am
    84   134   133    1
    85   122   120    1
    86   131   130    1
    87   120   119    2
    88   120   121    1
    89   117   118    1
    90   117   116    1
    91   119   118    1
    92    33    32    2
    93   133   130    1
    94   116   113    1
    95    37    32   am
    96   130   129    1
    97    32    31    1
    98     5     2    1
    99   129   125   am
   100   113   112    1
   101   113   114    1
   102   115   114    2
   103   128   127    1
   104    35    34    1
   105    31    30    1
   106    31    34    1
   107   123   124    1
   108     2     1    1
   109     2     3    1
   110   125   126    2
   111   125   124    1
   112   137   138    1
   113    34    36    1
   114    12    11    1
   115    12    13    1
   116   141   138    1
   117   141   142    1
   118    22    20   ar
   119   124   127    1
   120    11    10    1
   121   138   139    1
   122     4     3    2
   123     3     6   am
   124    21    20   ar
   125   143   142   ar
   126   143   145   ar
   127    20    19    1
   128   142   144   ar
   129     6     7    1
   130    10     7    1
   131   145   147   ar
   132   139   140    2
   133     7     8    1
   134   144   146   ar
   135    19    18    1
   136   147   146   ar
   137    18    15    1
   138     8     9    2
   139    15    14    1
   140    15    16    1
   141    17    16    2
