@<TRIPOS>MOLECULE
tmp/5b7qB00.pdb
 147 141 0 0 0
SMALL
GASTEIGER

@<TRIPOS>ATOM
      1  N        -23.9260   35.7460  -12.3300 N.3     9  ALA9       -0.1231
      2  CA       -25.0960   34.9490  -11.9620 C.3     9  ALA9        0.1694
      3  C        -25.1530   33.6130  -12.6700 C.2     9  ALA9        0.2591
      4  O        -25.4120   32.6020  -12.0510 O.2     9  ALA9       -0.2718
      5  CB       -26.3770   35.7220  -12.2290 C.3     9  ALA9        0.0304
      6  N        -24.9110   33.6340  -13.9690 N.am   10  MET10      -0.1979
      7  CA       -25.0970   32.4630  -14.8130 C.3    10  MET10       0.1605
      8  C        -23.7730   31.8760  -15.2290 C.2    10  MET10       0.2287
      9  O        -22.7470   32.5280  -15.1630 O.2    10  MET10      -0.2864
     10  CB       -25.9150   32.8530  -16.0300 C.3    10  MET10       0.0413
     11  CG       -27.3370   33.1820  -15.6000 C.3    10  MET10       0.0598
     12  SD       -28.4790   33.2690  -16.9590 S.3    10  MET10      -0.1393
     13  CE       -27.7280   34.5820  -17.9020 C.3    10  MET10       0.0692
     14  N        -21.6560   33.8490  -17.5670 N.3    13  GLU13      -0.1245
     15  CA       -21.1290   35.0770  -16.9970 C.3    13  GLU13       0.1567
     16  C        -19.9440   34.8280  -16.0670 C.2    13  GLU13       0.2260
     17  O        -19.3870   35.7860  -15.5380 O.2    13  GLU13      -0.2867
     18  CB       -22.2340   35.8280  -16.2370 C.3    13  GLU13       0.0388
     19  CG       -23.3550   36.3820  -17.1150 C.3    13  GLU13       0.1160
     20  CD       -24.5780   36.8200  -16.3290 C.2    13  GLU13       0.3649
     21  OE1      -24.9120   36.1330  -15.3520 O.co2  13  GLU13      -0.2457
     22  OE2      -25.2140   37.8490  -16.6760 O.co2  13  GLU13      -0.2457
     23  N        -29.4930   33.5270   -9.8780 N.3    51  VAL51      -0.1245
     24  CA       -30.2010   34.6960  -10.3850 C.3    51  VAL51       0.1561
     25  C        -31.1580   35.3300   -9.3810 C.2    51  VAL51       0.2260
     26  O        -31.8770   34.6260   -8.6860 O.2    51  VAL51      -0.2867
     27  CB       -30.9790   34.2980  -11.6720 C.3    51  VAL51       0.0252
     28  CG1      -31.8290   35.4280  -12.1720 C.3    51  VAL51       0.0019
     29  CG2      -30.0090   33.8770  -12.7650 C.3    51  VAL51       0.0019
     30  N        -24.6350   40.6130  -17.3860 N.3    77  THR77      -0.1203
     31  CA       -25.3370   41.3490  -18.4260 C.3    77  THR77       0.1994
     32  C        -26.5990   42.0130  -17.8940 C.2    77  THR77       0.2618
     33  O        -27.0670   41.7270  -16.7920 O.2    77  THR77      -0.2717
     34  CB       -25.6810   40.4520  -19.6350 C.3    77  THR77       0.1784
     35  OG1      -26.7560   39.5910  -19.2920 O.3    77  THR77      -0.2211
     36  CG2      -24.4650   39.6290  -20.0680 C.3    77  THR77       0.0376
     37  N        -27.1200   42.9250  -18.6970 N.am   78  ALA78      -0.1965
     38  CA       -28.2310   43.7680  -18.3160 C.3    78  ALA78       0.1728
     39  C        -28.9760   44.2270  -19.5620 C.2    78  ALA78       0.2616
     40  O        -28.4670   44.0920  -20.6940 O.2    78  ALA78      -0.2715
     41  CB       -27.7240   44.9810  -17.5100 C.3    78  ALA78       0.0334
     42  N        -30.1630   44.7900  -19.3500 N.am   79  GLY79      -0.1955
     43  CA       -30.9760   45.3100  -20.4410 C.3    79  GLY79       0.1869
     44  C        -31.0080   46.8190  -20.4100 C.2    79  GLY79       0.2309
     45  O        -31.1400   47.4200  -19.3470 O.2    79  GLY79      -0.2863
     46  N        -37.0030   41.2090  -12.0410 N.3   171  GLU171     -0.1231
     47  CA       -37.8480   41.4930  -13.1980 C.3   171  GLU171      0.1699
     48  C        -37.0460   41.4270  -14.4770 C.2   171  GLU171      0.2592
     49  O        -35.8750   41.7730  -14.4950 O.2   171  GLU171     -0.2718
     50  CB       -38.4400   42.9110  -13.1180 C.3   171  GLU171      0.0402
     51  CG       -39.2920   43.1830  -11.8960 C.3   171  GLU171      0.1161
     52  CD       -39.7080   44.6380  -11.7560 C.2   171  GLU171      0.3649
     53  OE1      -40.3070   44.9950  -10.7140 O.co2 171  GLU171     -0.2457
     54  OE2      -39.4300   45.4330  -12.6820 O.co2 171  GLU171     -0.2457
     55  N        -37.6960   40.9940  -15.5480 N.am  172  TRP172     -0.1962
     56  CA       -37.2190   41.2420  -16.9060 C.3   172  TRP172      0.1771
     57  C        -38.3680   41.9360  -17.6320 C.2   172  TRP172      0.2619
     58  O        -39.3460   41.3040  -18.0100 O.2   172  TRP172     -0.2715
     59  CB       -36.8210   39.9550  -17.6100 C.3   172  TRP172      0.0590
     60  CG       -36.0490   40.1680  -18.8830 C.ar  172  TRP172      0.0006
     61  CD1      -36.4010   40.9750  -19.9350 C.ar  172  TRP172      0.0946
     62  CD2      -34.7940   39.5740  -19.2430 C.ar  172  TRP172      0.0152
     63  NE1      -35.4500   40.9070  -20.9270 N.ar  172  TRP172     -0.2442
     64  CE2      -34.4570   40.0480  -20.5300 C.ar  172  TRP172      0.0810
     65  CE3      -33.9270   38.6730  -18.6060 C.ar  172  TRP172      0.0012
     66  CZ2      -33.2910   39.6560  -21.1870 C.ar  172  TRP172      0.0191
     67  CZ3      -32.7580   38.2970  -19.2540 C.ar  172  TRP172      0.0001
     68  CH2      -32.4520   38.7910  -20.5320 C.ar  172  TRP172      0.0015
     69  N        -38.2320   43.2460  -17.8130 N.am  173  ASN173     -0.1972
     70  CA       -39.2440   44.0650  -18.4520 C.3   173  ASN173      0.1688
     71  C        -39.0540   44.1310  -19.9560 C.2   173  ASN173      0.2292
     72  O        -37.9750   44.4800  -20.4150 O.2   173  ASN173     -0.2864
     73  CB       -39.1650   45.4800  -17.9000 C.3   173  ASN173      0.1181
     74  CG       -39.6140   45.5630  -16.4740 C.2   173  ASN173      0.2629
     75  OD1      -40.7980   45.4140  -16.1780 O.2   173  ASN173     -0.2716
     76  ND2      -38.6700   45.7980  -15.5660 N.am  173  ASN173     -0.0877
     77  N        -31.3080   47.6940  -16.5040 N.3   191  GLU191     -0.1231
     78  CA       -31.8920   46.8290  -15.4880 C.3   191  GLU191      0.1699
     79  C        -31.2130   45.4530  -15.4560 C.2   191  GLU191      0.2592
     80  O        -30.8150   44.8990  -16.4900 O.2   191  GLU191     -0.2718
     81  CB       -33.3980   46.6520  -15.7290 C.3   191  GLU191      0.0402
     82  CG       -33.7770   45.8850  -17.0030 C.3   191  GLU191      0.1161
     83  CD       -35.2580   45.5160  -17.0630 C.2   191  GLU191      0.3649
     84  OE1      -36.1030   46.4080  -16.8370 O.co2 191  GLU191     -0.2457
     85  OE2      -35.5640   44.3300  -17.3390 O.co2 191  GLU191     -0.2457
     86  N        -31.1000   44.9130  -14.2510 N.am  192  GLU192     -0.1966
     87  CA       -30.6910   43.5380  -14.0600 C.3   192  GLU192      0.1733
     88  C        -31.2360   43.0560  -12.7080 C.2   192  GLU192      0.2616
     89  O        -32.0870   43.7020  -12.1370 O.2   192  GLU192     -0.2715
     90  CB       -29.1830   43.4160  -14.1780 C.3   192  GLU192      0.0429
     91  CG       -28.4460   44.5060  -13.4850 C.3   192  GLU192      0.1163
     92  CD       -28.5650   44.3630  -12.0220 C.2   192  GLU192      0.3649
     93  OE1      -27.9020   43.4470  -11.4660 O.co2 192  GLU192     -0.2457
     94  OE2      -29.3430   45.1330  -11.4320 O.co2 192  GLU192     -0.2457
     95  N        -30.7510   41.9180  -12.2190 N.am  193  MET193     -0.1963
     96  CA       -31.4490   41.2110  -11.1550 C.3   193  MET193      0.1736
     97  C        -30.6200   40.9270   -9.9160 C.2   193  MET193      0.2616
     98  O        -31.1100   40.2760   -8.9960 O.2   193  MET193     -0.2715
     99  CB       -32.0540   39.9130  -11.7120 C.3   193  MET193      0.0427
    100  CG       -32.9720   40.1590  -12.9040 C.3   193  MET193      0.0599
    101  SD       -33.6330   38.6480  -13.6580 S.3   193  MET193     -0.1393
    102  CE       -34.6670   38.0500  -12.3420 C.3   193  MET193      0.0692
    103  N        -29.3890   41.4280   -9.8390 N.am  194  GLU194     -0.1977
    104  CA       -28.5390   41.1440   -8.6710 C.3   194  GLU194      0.1602
    105  C        -27.8320   42.3330   -8.0060 C.2   194  GLU194      0.2287
    106  O        -27.5440   42.2750   -6.8210 O.2   194  GLU194     -0.2864
    107  CB       -27.4500   40.1340   -9.0240 C.3   194  GLU194      0.0415
    108  CG       -27.9640   38.7740   -9.5060 C.3   194  GLU194      0.1163
    109  CD       -28.3690   38.7300  -10.9800 C.2   194  GLU194      0.3649
    110  OE1      -27.7990   39.4630  -11.8060 O.co2 194  GLU194     -0.2457
    111  OE2      -29.2680   37.9300  -11.3250 O.co2 194  GLU194     -0.2457
    112  N        -21.7740   46.1780  -15.7140 N.3   213  ARG213     -0.1245
    113  CA       -22.7580   45.4470  -16.5030 C.3   213  ARG213      0.1563
    114  C        -22.6850   45.7940  -17.9820 C.2   213  ARG213      0.2260
    115  O        -22.7620   46.9680  -18.3640 O.2   213  ARG213     -0.2867
    116  CB       -24.1690   45.7740  -15.9980 C.3   213  ARG213      0.0307
    117  CG       -24.4760   45.1980  -14.6210 C.3   213  ARG213      0.0489
    118  CD       -24.7880   43.7180  -14.7350 C.3   213  ARG213      0.2205
    119  NE       -24.8800   43.0780  -13.4310 N.pl3 213  ARG213     -0.0865
    120  CZ       -25.5260   41.9440  -13.1920 C.cat 213  ARG213      0.5346
    121  NH1      -26.1870   41.3400  -14.1600 N.pl3 213  ARG213      0.1354
    122  NH2      -25.5250   41.4220  -11.9680 N.pl3 213  ARG213      0.1354
    123  N        -26.5150   43.2500  -22.7830 N.3   216  SER216     -0.1202
    124  CA       -26.6570   42.1200  -23.7030 C.3   216  SER216      0.2020
    125  C        -27.8750   42.2630  -24.6030 C.2   216  SER216      0.2618
    126  O        -28.0350   41.4980  -25.5450 O.2   216  SER216     -0.2717
    127  CB       -26.7590   40.8150  -22.9280 C.3   216  SER216      0.2103
    128  OG       -27.8700   40.8570  -22.0530 O.3   216  SER216     -0.2182
    129  N        -28.7350   43.2260  -24.2960 N.am  217  ASN217     -0.1974
    130  CA       -29.9890   43.4210  -24.9910 C.3   217  ASN217      0.1688
    131  C        -30.5200   44.8080  -24.7030 C.2   217  ASN217      0.2292
    132  O        -30.2430   45.3940  -23.6630 O.2   217  ASN217     -0.2864
    133  CB       -31.0450   42.3660  -24.5500 C.3   217  ASN217      0.1181
    134  CG       -31.3350   42.3750  -23.0330 C.2   217  ASN217      0.2629
    135  OD1      -32.3640   42.8990  -22.5740 O.2   217  ASN217     -0.2716
    136  ND2      -30.4570   41.7670  -22.2700 N.am  217  ASN217     -0.0877
    137  N        -30.9790   39.5000  -27.1640 N.3   225  PHE225     -0.1241
    138  CA       -29.9020   38.9710  -26.3460 C.3   225  PHE225      0.1605
    139  C        -28.7540   38.3660  -27.1540 C.2   225  PHE225      0.2264
    140  O        -28.9700   37.5040  -27.9980 O.2   225  PHE225     -0.2867
    141  CB       -30.4740   37.9180  -25.3970 C.3   225  PHE225      0.0534
    142  CG       -29.4640   37.3370  -24.4620 C.ar  225  PHE225     -0.0203
    143  CD1      -29.1430   37.9900  -23.2840 C.ar  225  PHE225     -0.0042
    144  CD2      -28.8540   36.1260  -24.7460 C.ar  225  PHE225     -0.0042
    145  CE1      -28.2140   37.4530  -22.4080 C.ar  225  PHE225     -0.0003
    146  CE2      -27.9220   35.5770  -23.8760 C.ar  225  PHE225     -0.0003
    147  CZ       -27.6040   36.2410  -22.7050 C.ar  225  PHE225     -0.0000
@<TRIPOS>BOND
     1   140   139    2
     2   137   138    1
     3   139   138    1
     4   138   141    1
     5   126   125    2
     6   141   142    1
     7   130   131    1
     8   130   133    1
     9   130   129    1
    10   144   142   ar
    11   144   146   ar
    12   131   132    2
    13   125   129   am
    14   125   124    1
    15   133   134    1
    16   142   143   ar
    17   146   147   ar
    18   124   127    1
    19   124   123    1
    20   143   145   ar
    21   134   135    2
    22   134   136   am
    23   127   128    1
    24   147   145   ar
    25    66    68   ar
    26    66    64   ar
    27    63    64   ar
    28    63    61   ar
    29    40    39    2
    30    68    67   ar
    31    64    62   ar
    32    43    44    1
    33    43    42    1
    34    72    71    2
    35    44    45    2
    36    36    34    1
    37    71    70    1
    38    61    60   ar
    39    34    35    1
    40    34    31    1
    41    39    42   am
    42    39    38    1
    43    67    65   ar
    44    62    60   ar
    45    62    65   ar
    46    60    59    1
    47    37    38    1
    48    37    32   am
    49    70    73    1
    50    70    69    1
    51    31    32    1
    52    31    30    1
    53   115   114    2
    54    38    41    1
    55    58    57    2
    56   114   113    1
    57    13    12    1
    58    73    74    1
    59    32    33    2
    60    69    57   am
    61    57    56    1
    62    59    56    1
    63    14    15    1
    64    85    83   ar
    65    19    20    1
    66    19    18    1
    67    83    82    1
    68    83    84   ar
    69    82    81    1
    70    15    18    1
    71    15    16    1
    72    12    11    1
    73    56    55    1
    74    22    20   ar
    75    77    78    1
    76   113   116    1
    77   113   112    1
    78    80    79    2
    79    74    75    2
    80    74    76   am
    81    20    21   ar
    82    16    17    2
    83    10    11    1
    84    10     7    1
    85   116   117    1
    86    81    78    1
    87    55    48   am
    88    78    79    1
    89    79    86   am
    90     8     9    2
    91     8     7    1
    92     7     6    1
    93   118   117    1
    94   118   119    1
    95    49    48    2
    96    48    47    1
    97    86    87    1
    98    90    87    1
    99    90    91    1
   100   121   120    1
   101    87    88    1
   102     6     3   am
   103   101   100    1
   104   101   102    1
   105    91    92    1
   106   119   120    2
   107    47    50    1
   108    47    46    1
   109   120   122    1
   110    50    51    1
   111   100    99    1
   112    29    27    1
   113    88    95   am
   114    88    89    2
   115    54    52   ar
   116     3     4    2
   117     3     2    1
   118     1     2    1
   119     5     2    1
   120    95    96    1
   121    28    27    1
   122    92    93   ar
   123    92    94   ar
   124    51    52    1
   125   110   109   ar
   126    52    53   ar
   127    99    96    1
   128    27    24    1
   129   111   109   ar
   130    96    97    1
   131   109   108    1
   132    24    23    1
   133    24    25    1
   134    97   103   am
   135    97    98    2
   136   103   104    1
   137   108   107    1
   138    25    26    2
   139   107   104    1
   140   104   105    1
   141   105   106    2
