@<TRIPOS>MOLECULE
tmp/5b7vB00.pdb
 178 167 0 0 0
SMALL
GASTEIGER

@<TRIPOS>ATOM
      1  N         72.4820    1.3000   -2.2830 N.3    21  LYS21      -0.1245
      2  CA        71.0810    1.6620   -2.4830 C.3    21  LYS21       0.1561
      3  C         70.4310    2.4050   -1.3130 C.2    21  LYS21       0.2260
      4  O         70.5980    1.9890   -0.1630 O.2    21  LYS21      -0.2867
      5  CB        70.2290    0.4300   -2.8680 C.3    21  LYS21       0.0271
      6  CG        70.1960   -0.6870   -1.8270 C.3    21  LYS21       0.0035
      7  CD        69.0660   -1.6750   -2.1300 C.3    21  LYS21       0.0206
      8  CE        67.9000   -1.5230   -1.1560 C.3    21  LYS21       0.1093
      9  NZ        66.7470   -2.3570   -1.6030 N.3    21  LYS21      -0.1314
     10  N         67.7210    3.4120    1.4760 N.3    23  LEU23      -0.1245
     11  CA        66.7710    2.6490    2.2830 C.3    23  LEU23       0.1561
     12  C         65.5780    3.5150    2.6700 C.2    23  LEU23       0.2260
     13  O         64.5240    2.9830    3.0130 O.2    23  LEU23      -0.2867
     14  CB        67.4360    2.0500    3.5330 C.3    23  LEU23       0.0270
     15  CG        68.4460    0.9120    3.3330 C.3    23  LEU23       0.0019
     16  CD1       69.0800    0.5420    4.6490 C.3    23  LEU23       0.0001
     17  CD2       67.8060   -0.3280    2.6520 C.3    23  LEU23       0.0001
     18  N         68.9020    7.4840    4.7960 N.3    28  VAL28      -0.1245
     19  CA        69.5550    6.2410    5.2060 C.3    28  VAL28       0.1561
     20  C         69.8710    5.4060    3.9510 C.2    28  VAL28       0.2260
     21  O         69.0280    5.2880    3.0700 O.2    28  VAL28      -0.2867
     22  CB        68.7360    5.4690    6.2890 C.3    28  VAL28       0.0252
     23  CG1       69.4120    4.1550    6.6950 C.3    28  VAL28       0.0019
     24  CG2       68.4840    6.3380    7.5230 C.3    28  VAL28       0.0019
     25  N         73.4950   -0.1590    7.7220 N.3    46  ALA46      -0.1245
     26  CA        72.6230    0.9660    7.3710 C.3    46  ALA46       0.1562
     27  C         73.3810    2.2440    7.7350 C.2    46  ALA46       0.2260
     28  O         73.9730    2.3270    8.8050 O.2    46  ALA46      -0.2867
     29  CB        71.2980    0.8840    8.1140 C.3    46  ALA46       0.0290
     30  N         73.2200    6.3770    8.0880 N.3    48  LYS48      -0.1245
     31  CA        72.4360    7.5970    8.1580 C.3    48  LYS48       0.1561
     32  C         73.3760    8.7770    7.9230 C.2    48  LYS48       0.2260
     33  O         74.4620    8.8590    8.5070 O.2    48  LYS48      -0.2867
     34  CB        71.6640    7.7020    9.4870 C.3    48  LYS48       0.0271
     35  CG        70.7260    8.9000    9.5560 C.3    48  LYS48       0.0035
     36  CD        69.8960    8.8150   10.7710 C.3    48  LYS48       0.0206
     37  CE        68.7870    9.8270   10.8090 C.3    48  LYS48       0.1093
     38  NZ        67.7120    9.3710   11.7380 N.3    48  LYS48      -0.1314
     39  N         72.2480   12.4770   17.9200 N.3    65  GLU65      -0.1245
     40  CA        71.6950   11.1380   17.7050 C.3    65  GLU65       0.1567
     41  C         72.8020   10.0960   17.8720 C.2    65  GLU65       0.2260
     42  O         72.6160    9.1330   18.6090 O.2    65  GLU65      -0.2867
     43  CB        71.0290   11.0290   16.3090 C.3    65  GLU65       0.0388
     44  CG        70.6140    9.6050   15.9700 C.3    65  GLU65       0.1160
     45  CD        69.8540    9.3590   14.6840 C.2    65  GLU65       0.3649
     46  OE1       69.4500   10.3370   14.0230 O.co2  65  GLU65      -0.2457
     47  OE2       69.6670    8.1740   14.3310 O.co2  65  GLU65      -0.2457
     48  N         73.9520    9.9450   21.6420 N.3    68  MET68      -0.1230
     49  CA        73.0410    9.2160   22.5220 C.3    68  MET68       0.1702
     50  C         73.0970    7.7100   22.2420 C.2    68  MET68       0.2592
     51  O         72.9910    6.9380   23.1880 O.2    68  MET68      -0.2718
     52  CB        71.6110    9.7980   22.5340 C.3    68  MET68       0.0401
     53  CG        70.7790    9.5060   21.3070 C.3    68  MET68       0.0596
     54  SD        69.5360    8.2250   21.6290 S.3    68  MET68      -0.1393
     55  CE        68.2110    9.2290   22.2960 C.3    68  MET68       0.0692
     56  N         73.3810    7.2930   20.9810 N.am   69  MET69      -0.1979
     57  CA        73.5200    5.8660   20.6640 C.3    69  MET69       0.1605
     58  C         74.7260    5.2630   21.3800 C.2    69  MET69       0.2287
     59  O         74.6370    4.1350   21.8690 O.2    69  MET69      -0.2864
     60  CB        73.5460    5.5880   19.1510 C.3    69  MET69       0.0413
     61  CG        72.1910    5.7690   18.4990 C.3    69  MET69       0.0598
     62  SD        72.1600    5.4030   16.7410 S.3    69  MET69      -0.1393
     63  CE        71.7280    3.6620   16.7770 C.3    69  MET69       0.0692
     64  N         68.1550   -1.0920   17.4900 N.3    79  ILE79      -0.1245
     65  CA        69.0910   -0.8690   16.3790 C.3    79  ILE79       0.1561
     66  C         70.3620   -0.3300   17.0520 C.2    79  ILE79       0.2260
     67  O         70.2940    0.6830   17.7660 O.2    79  ILE79      -0.2867
     68  CB        68.5390    0.0770   15.2700 C.3    79  ILE79       0.0252
     69  CG1       67.3800   -0.5800   14.4620 C.3    79  ILE79       0.0019
     70  CG2       69.6700    0.5820   14.3420 C.3    79  ILE79       0.0019
     71  CD1       67.7510   -1.8020   13.4740 C.3    79  ILE79       0.0001
     72  N         76.7350    7.8480   10.0900 N.3    93  VAL93      -0.1245
     73  CA        76.3730    7.2180   11.3690 C.3    93  VAL93       0.1561
     74  C         76.0390    5.7960   10.9720 C.2    93  VAL93       0.2260
     75  O         75.0340    5.5700   10.2960 O.2    93  VAL93      -0.2867
     76  CB        75.2010    7.9570   12.0820 C.3    93  VAL93       0.0252
     77  CG1       74.7660    7.2110   13.3420 C.3    93  VAL93       0.0019
     78  CG2       75.5970    9.3960   12.4260 C.3    93  VAL93       0.0019
     79  N         74.9630    2.0750   11.4450 N.3    95  VAL95      -0.1231
     80  CA        74.1140    1.2930   12.3430 C.3    95  VAL95       0.1692
     81  C         73.7940   -0.0780   11.7480 C.2    95  VAL95       0.2592
     82  O         74.1310   -0.3340   10.5930 O.2    95  VAL95      -0.2718
     83  CB        72.8240    2.0850   12.7780 C.3    95  VAL95       0.0266
     84  CG1       73.1650    3.4610   13.3710 C.3    95  VAL95       0.0020
     85  CG2       71.8290    2.2230   11.6280 C.3    95  VAL95       0.0020
     86  N         73.1210   -0.9420   12.5290 N.am   96  GLU96      -0.1966
     87  CA        72.7010   -2.2870   12.1060 C.3    96  GLU96       0.1733
     88  C         71.6330   -2.2390   11.0310 C.2    96  GLU96       0.2616
     89  O         70.7200   -1.4220   11.1010 O.2    96  GLU96      -0.2715
     90  CB        72.1770   -3.1040   13.2970 C.3    96  GLU96       0.0429
     91  CG        73.2360   -3.5500   14.2820 C.3    96  GLU96       0.1163
     92  CD        72.6870   -4.2400   15.5160 C.2    96  GLU96       0.3649
     93  OE1       71.6420   -3.7930   16.0470 O.co2  96  GLU96      -0.2457
     94  OE2       73.3220   -5.2190   15.9690 O.co2  96  GLU96      -0.2457
     95  N         71.7450   -3.1280   10.0430 N.am   97  TYR97      -0.1960
     96  CA        70.7910   -3.2470    8.9530 C.3    97  TYR97       0.1771
     97  C         69.7930   -4.3750    9.2350 C.2    97  TYR97       0.2619
     98  O         70.1830   -5.4650    9.6580 O.2    97  TYR97      -0.2715
     99  CB        71.5330   -3.4680    7.6320 C.3    97  TYR97       0.0574
    100  CG        70.6610   -3.7840    6.4380 C.ar   97  TYR97      -0.0198
    101  CD1       69.7360   -2.8590    5.9600 C.ar   97  TYR97      -0.0009
    102  CD2       70.8390   -4.9600    5.7130 C.ar   97  TYR97      -0.0009
    103  CE1       68.9550   -3.1290    4.8390 C.ar   97  TYR97       0.0417
    104  CE2       70.0700   -5.2370    4.5830 C.ar   97  TYR97       0.0417
    105  CZ        69.1380   -4.3110    4.1420 C.ar   97  TYR97       0.1957
    106  OH        68.3710   -4.5630    3.0300 O.3    97  TYR97      -0.2866
    107  N         68.5050   -4.0870    9.0160 N.am   98  ALA98      -0.1963
    108  CA        67.3880   -5.0090    9.1860 C.3    98  ALA98       0.1728
    109  C         66.7920   -5.2710    7.8000 C.2    98  ALA98       0.2617
    110  O         65.9790   -4.4840    7.3110 O.2    98  ALA98      -0.2715
    111  CB        66.3540   -4.3960   10.1090 C.3    98  ALA98       0.0334
    112  N         67.2390   -6.3670    7.1550 N.am   99  SER99      -0.1936
    113  CA        66.8630   -6.7790    5.7910 C.3    99  SER99       0.2055
    114  C         65.3660   -6.9370    5.5300 C.2    99  SER99       0.2643
    115  O         64.9220   -6.6730    4.4110 O.2    99  SER99      -0.2714
    116  CB        67.5830   -8.0700    5.4020 C.3    99  SER99       0.2130
    117  OG        67.2420   -9.1540    6.2530 O.3    99  SER99      -0.2179
    118  N         64.5920   -7.3680    6.5330 N.am  100  LYS100     -0.1963
    119  CA        63.1540   -7.6080    6.3510 C.3   100  LYS100      0.1728
    120  C         62.2520   -6.3560    6.5970 C.2   100  LYS100      0.2617
    121  O         61.0240   -6.4890    6.6700 O.2   100  LYS100     -0.2715
    122  CB        62.6960   -8.8210    7.1920 C.3   100  LYS100      0.0311
    123  CG        63.3220  -10.1450    6.7370 C.3   100  LYS100      0.0038
    124  CD        62.6800  -11.3440    7.4220 C.3   100  LYS100      0.0206
    125  CE        63.1980  -12.6720    6.9090 C.3   100  LYS100      0.1093
    126  NZ        62.7120  -12.9800    5.5360 N.3   100  LYS100     -0.1314
    127  N         62.8710   -5.1710    6.6550 N.am  101  GLY101     -0.1940
    128  CA        62.2030   -3.8790    6.8210 C.3   101  GLY101      0.2014
    129  C         61.4300   -3.6700    8.1060 C.2   101  GLY101      0.2638
    130  O         61.6550   -4.3800    9.0830 O.2   101  GLY101     -0.2714
    131  N         60.4880   -2.6980    8.1030 N.am  102  ASN102     -0.1972
    132  CA        59.6750   -2.3550    9.2780 C.3   102  ASN102      0.1688
    133  C         58.5840   -3.3890    9.5610 C.2   102  ASN102      0.2292
    134  O         58.1460   -4.0950    8.6460 O.2   102  ASN102     -0.2864
    135  CB        59.1190   -0.9240    9.2070 C.3   102  ASN102      0.1181
    136  CG        57.9510   -0.7160    8.2690 C.2   102  ASN102      0.2629
    137  OD1       56.8290   -1.1700    8.5150 O.2   102  ASN102     -0.2716
    138  ND2       58.1720    0.0470    7.2150 N.am  102  ASN102     -0.0877
    139  N         62.0540   -2.5490   13.4000 N.3   151  LEU151     -0.1245
    140  CA        62.6690   -3.1410   12.2190 C.3   151  LEU151      0.1561
    141  C         62.8860   -4.6310   12.4530 C.2   151  LEU151      0.2260
    142  O         63.0440   -5.0480   13.5960 O.2   151  LEU151     -0.2867
    143  CB        63.9850   -2.4240   11.8410 C.3   151  LEU151      0.0270
    144  CG        63.8510   -0.9700   11.3300 C.3   151  LEU151      0.0019
    145  CD1       65.1920   -0.3150   11.2160 C.3   151  LEU151      0.0001
    146  CD2       63.1650   -0.9130    9.9540 C.3   151  LEU151      0.0001
    147  N         63.8160    1.0220   16.4400 N.3   161  ALA161     -0.1231
    148  CA        64.5720    2.0040   15.6730 C.3   161  ALA161      0.1694
    149  C         64.0430    3.4010   15.9910 C.2   161  ALA161      0.2592
    150  O         62.9160    3.5390   16.4850 O.2   161  ALA161     -0.2718
    151  CB        64.3970    1.7280   14.1920 C.3   161  ALA161      0.0304
    152  N         64.8590    4.4340   15.6720 N.am  162  ASP162     -0.1960
    153  CA        64.5520    5.8620   15.7760 C.3   162  ASP162      0.1840
    154  C         64.0510    6.2970   17.1560 C.2   162  ASP162      0.2622
    155  O         63.1660    7.1410   17.2640 O.2   162  ASP162     -0.2715
    156  CB        63.5740    6.3020   14.6560 C.3   162  ASP162      0.1450
    157  CG        64.0470    5.9840   13.2440 C.2   162  ASP162      0.3671
    158  OD1       65.2190    6.3100   12.9140 O.co2 162  ASP162     -0.2456
    159  OD2       63.2450    5.4250   12.4620 O.co2 162  ASP162     -0.2456
    160  N         64.6400    5.7320   18.2010 N.am  163  PHE163     -0.1974
    161  CA        64.3450    6.0710   19.5940 C.3   163  PHE163      0.1639
    162  C         65.0120    7.4060   19.9180 C.2   163  PHE163      0.2290
    163  O         66.1590    7.6320   19.5220 O.2   163  PHE163     -0.2864
    164  CB        64.7990    4.9570   20.5510 C.3   163  PHE163      0.0560
    165  CG        66.1460    4.3270   20.2480 C.ar  163  PHE163     -0.0200
    166  CD1       66.2470    3.2460   19.3750 C.ar  163  PHE163     -0.0042
    167  CD2       67.3070    4.7890   20.8680 C.ar  163  PHE163     -0.0042
    168  CE1       67.4870    2.6740   19.0880 C.ar  163  PHE163     -0.0003
    169  CE2       68.5470    4.2120   20.5820 C.ar  163  PHE163     -0.0003
    170  CZ        68.6280    3.1530   19.6990 C.ar  163  PHE163     -0.0000
    171  N         64.1380   10.5540   18.7690 N.3   165  LEU165     -0.1245
    172  CA        64.3500   11.3870   17.5780 C.3   165  LEU165      0.1561
    173  C         63.1980   12.3600   17.2100 C.2   165  LEU165      0.2260
    174  O         63.4090   13.2610   16.3850 O.2   165  LEU165     -0.2867
    175  CB        64.6940   10.5040   16.3580 C.3   165  LEU165      0.0270
    176  CG        65.9410    9.5960   16.4300 C.3   165  LEU165      0.0019
    177  CD1       66.2490    9.0130   15.0730 C.3   165  LEU165      0.0001
    178  CD2       67.1700   10.3470   16.9590 C.3   165  LEU165      0.0001
@<TRIPOS>BOND
     1     5     2    1
     2     5     6    1
     3     2     1    1
     4     2     3    1
     5     7     6    1
     6     7     8    1
     7     9     8    1
     8     3     4    2
     9    10    11    1
    10    11    12    1
    11    11    14    1
    12    17    15    1
    13    12    13    2
    14   106   105    1
    15    21    20    2
    16    15    14    1
    17    15    16    1
    18    20    19    1
    19   105   104   ar
    20   105   103   ar
    21   115   114    2
    22   104   102   ar
    23    18    19    1
    24   103   101   ar
    25    19    22    1
    26   116   113    1
    27   116   117    1
    28   114   113    1
    29   114   118   am
    30   126   125    1
    31   102   100   ar
    32   113   112    1
    33   101   100   ar
    34    22    23    1
    35    22    24    1
    36   119   118    1
    37   119   120    1
    38   119   122    1
    39   100    99    1
    40   120   127   am
    41   120   121    2
    42   127   128    1
    43   123   122    1
    44   123   124    1
    45   128   129    1
    46   125   124    1
    47   112   109   am
    48   138   136   am
    49   110   109    2
    50    26    25    1
    51    26    27    1
    52    26    29    1
    53    99    96    1
    54    27    28    2
    55   109   108    1
    56    32    31    1
    57    32    33    2
    58    30    31    1
    59   131   129   am
    60   131   132    1
    61   129   130    2
    62    31    34    1
    63   136   137    2
    64   136   135    1
    65   134   133    2
    66    96    97    1
    67    96    95    1
    68   107   108    1
    69   107    97   am
    70   108   111    1
    71   135   132    1
    72    97    98    2
    73   132   133    1
    74    34    35    1
    75    35    36    1
    76   146   144    1
    77    95    88   am
    78    72    73    1
    79    75    74    2
    80    82    81    2
    81    36    37    1
    82    37    38    1
    83    74    73    1
    84    88    89    2
    85    88    87    1
    86   145   144    1
    87   144   143    1
    88    73    76    1
    89    79    80    1
    90    85    83    1
    91    81    80    1
    92    81    86   am
    93   143   140    1
    94    76    78    1
    95    76    77    1
    96    87    86    1
    97    87    90    1
    98   140   141    1
    99   140   139    1
   100    80    83    1
   101   141   142    2
   102   159   157   ar
   103    83    84    1
   104   158   157   ar
   105   157   156    1
   106    90    91    1
   107    71    69    1
   108    46    45   ar
   109   151   148    1
   110    91    92    1
   111    47    45   ar
   112    70    68    1
   113    69    68    1
   114   156   153    1
   115    45    44    1
   116   177   176    1
   117    68    65    1
   118    92    94   ar
   119    92    93   ar
   120   152   153    1
   121   152   149   am
   122   148   149    1
   123   148   147    1
   124   153   154    1
   125    44    43    1
   126   149   150    2
   127    43    40    1
   128   175   176    1
   129   175   172    1
   130    65    66    1
   131    65    64    1
   132   174   173    2
   133   176   178    1
   134    62    63    1
   135    62    61    1
   136    66    67    2
   137   154   155    2
   138   154   160   am
   139   173   172    1
   140   172   171    1
   141    40    41    1
   142    40    39    1
   143    41    42    2
   144   160   161    1
   145    61    60    1
   146   168   166   ar
   147   168   170   ar
   148    60    57    1
   149   166   165   ar
   150   163   162    2
   151   161   162    1
   152   161   164    1
   153   170   169   ar
   154   165   164    1
   155   165   167   ar
   156   169   167   ar
   157    57    56    1
   158    57    58    1
   159    56    50   am
   160    53    54    1
   161    53    52    1
   162    58    59    2
   163    54    55    1
   164    48    49    1
   165    50    49    1
   166    50    51    2
   167    49    52    1
