@<TRIPOS>MOLECULE
tmp/5b89B00.pdb
 120 111 0 0 0
SMALL
GASTEIGER

@<TRIPOS>ATOM
      1  N        -14.8140   -3.1190   16.3310 N.3    28  THR28      -0.1203
      2  CA       -16.0660   -3.8800   16.5870 C.3    28  THR28       0.1994
      3  C        -16.8240   -3.1790   17.6870 C.2    28  THR28       0.2617
      4  O        -18.1050   -3.1570   17.6390 O.2    28  THR28      -0.2717
      5  CB       -15.7570   -5.3280   16.8730 C.3    28  THR28       0.1784
      6  OG1      -15.2600   -5.8520   15.6310 O.3    28  THR28      -0.2211
      7  CG2      -16.9710   -6.0860   17.2240 C.3    28  THR28       0.0376
      8  N        -16.1440   -2.5890   18.6960 N.am   29  ALA29      -0.1979
      9  CA       -16.7870   -1.9190   19.7970 C.3    29  ALA29       0.1597
     10  C        -17.3300   -0.6000   19.3230 C.2    29  ALA29       0.2287
     11  O        -18.5050   -0.2780   19.6200 O.2    29  ALA29      -0.2864
     12  CB       -15.8710   -1.7170   20.9500 C.3    29  ALA29       0.0319
     13  N        -29.5770    2.8750   19.0820 N.3    90  ASN90      -0.1225
     14  CA       -28.5770    1.8660   18.7570 C.3    90  ASN90       0.1785
     15  C        -29.2500    0.5860   18.2460 C.2    90  ASN90       0.2598
     16  O        -30.4200    0.4970   18.2330 O.2    90  ASN90      -0.2718
     17  CB       -27.6780    1.5390   19.9800 C.3    90  ASN90       0.1169
     18  CG       -28.4630    1.1000   21.2100 C.2    90  ASN90       0.2627
     19  OD1      -29.4750    0.5270   21.1340 O.2    90  ASN90      -0.2716
     20  ND2      -27.9370    1.4460   22.3500 N.am   90  ASN90      -0.0877
     21  N        -28.4340   -0.3690   17.8600 N.am   91  THR91      -0.1939
     22  CA       -28.9710   -1.6700   17.3520 C.3    91  THR91       0.2028
     23  C        -29.7860   -2.3380   18.3850 C.2    91  THR91       0.2639
     24  O        -30.8210   -2.9370   18.1230 O.2    91  THR91      -0.2714
     25  CB       -27.8480   -2.5890   16.8970 C.3    91  THR91       0.1808
     26  OG1      -27.1650   -2.0450   15.7630 O.3    91  THR91      -0.2208
     27  CG2      -28.3030   -3.9430   16.5670 C.3    91  THR91       0.0379
     28  N        -29.3190   -2.2780   19.6430 N.am   92  SER92      -0.2003
     29  CA       -29.9860   -2.9690   20.7540 C.3    92  SER92       0.1610
     30  C        -31.4370   -2.4270   20.9040 C.3    92  SER92       0.2063
     31  O        -32.3990   -3.2880   21.0050 O.3    92  SER92      -0.2184
     32  CB       -29.2570   -2.7730   22.0400 C.3    92  SER92       0.2063
     33  OG       -27.9260   -3.3230   21.9120 O.3    92  SER92      -0.2184
     34  N        -25.0250  -11.9750   19.6310 N.3   119  HIS119     -0.1241
     35  CA       -24.6900  -11.0000   20.6410 C.3   119  HIS119      0.1621
     36  C        -25.9540  -10.9640   21.5280 C.2   119  HIS119      0.2264
     37  O        -27.0170  -11.2380   21.0510 O.2   119  HIS119     -0.2867
     38  CB       -24.4530   -9.6530   19.9430 C.3   119  HIS119      0.0745
     39  CG       -24.3320   -8.4720   20.8420 C.ar  119  HIS119      0.0817
     40  ND1      -23.1490   -7.8120   21.0510 N.ar  119  HIS119     -0.2268
     41  CD2      -25.2670   -7.7740   21.5010 C.ar  119  HIS119      0.1154
     42  CE1      -23.3620   -6.7810   21.8390 C.ar  119  HIS119      0.1986
     43  NE2      -24.6360   -6.7390   22.1270 N.ar  119  HIS119     -0.2212
     44  N        -27.8440   -8.6880   22.5250 N.3   121  SER121     -0.1217
     45  CA       -28.9510   -7.8470   22.0780 C.3   121  SER121      0.1889
     46  C        -29.8320   -8.5010   21.0320 C.2   121  SER121      0.2288
     47  O        -30.9160   -8.1090   20.8600 O.2   121  SER121     -0.2866
     48  CB       -28.4650   -6.5100   21.5730 C.3   121  SER121      0.2089
     49  OG       -27.9770   -5.7430   22.6140 O.3   121  SER121     -0.2183
     50  N        -27.6650  -12.7050   12.9340 N.3   166  GLN166     -0.1245
     51  CA       -26.6820  -11.6890   12.8030 C.3   166  GLN166      0.1566
     52  C        -26.0500  -11.8710   11.4320 C.2   166  GLN166      0.2260
     53  O        -25.9250  -12.9110   10.9660 O.2   166  GLN166     -0.2867
     54  CB       -25.6140  -11.8310   13.8810 C.3   166  GLN166      0.0367
     55  CG       -24.7620  -13.0360   13.6900 C.3   166  GLN166      0.0905
     56  CD       -23.9030  -13.4150   14.8790 C.2   166  GLN166      0.2608
     57  OE1      -23.9130  -12.7900   15.9050 O.2   166  GLN166     -0.2717
     58  NE2      -23.1490  -14.4420   14.6960 N.am  166  GLN166     -0.0878
     59  N        -22.8680  -10.6490   10.7330 N.3   168  VAL168     -0.1245
     60  CA       -21.4860  -10.9340   11.1790 C.3   168  VAL168      0.1561
     61  C        -21.4480  -11.0480   12.6560 C.2   168  VAL168      0.2260
     62  O        -21.9780  -10.2600   13.3810 O.2   168  VAL168     -0.2867
     63  CB       -20.5850   -9.7350   10.7510 C.3   168  VAL168      0.0252
     64  CG1      -19.1050   -9.8990   11.2660 C.3   168  VAL168      0.0019
     65  CG2      -20.5870   -9.5510    9.2460 C.3   168  VAL168      0.0019
     66  N        -19.7230  -10.5720   16.1740 N.3   170  ASN170     -0.1240
     67  CA       -18.7880   -9.6440   16.7910 C.3   170  ASN170      0.1653
     68  C        -17.6920  -10.3520   17.5640 C.2   170  ASN170      0.2266
     69  O        -16.7890   -9.7030   17.9990 O.2   170  ASN170     -0.2867
     70  CB       -19.5630   -8.7080   17.7160 C.3   170  ASN170      0.1155
     71  CG       -20.1750   -9.4310   18.9030 C.2   170  ASN170      0.2627
     72  OD1      -20.9190  -10.4370   18.7240 O.2   170  ASN170     -0.2716
     73  ND2      -19.8960   -8.9490   20.0900 N.am  170  ASN170     -0.0877
     74  N        -29.6130   -8.6150   12.2150 N.3   195  ASP195     -0.1239
     75  CA       -28.7460   -7.7730   13.0570 C.3   195  ASP195      0.1674
     76  C        -27.5210   -7.4720   12.2390 C.2   195  ASP195      0.2266
     77  O        -26.6000   -8.3320   12.0870 O.2   195  ASP195     -0.2867
     78  CB       -28.3870   -8.4850   14.3830 C.3   195  ASP195      0.1410
     79  CG       -27.3130   -7.7740   15.2460 C.2   195  ASP195      0.3668
     80  OD1      -26.8090   -6.7530   14.7400 O.co2 195  ASP195     -0.2456
     81  OD2      -26.9230   -8.3580   16.3030 O.co2 195  ASP195     -0.2456
     82  N        -25.3490   -5.0010   12.8330 N.3   197  ALA197     -0.1231
     83  CA       -24.5240   -4.0430   13.6090 C.3   197  ALA197      0.1694
     84  C        -23.0830   -4.1980   13.2040 C.2   197  ALA197      0.2591
     85  O        -22.3730   -3.1870   13.2460 O.2   197  ALA197     -0.2718
     86  CB       -24.7080   -4.2620   15.0690 C.3   197  ALA197      0.0304
     87  N        -22.6040   -5.3770   12.8730 N.am  198  GLN198     -0.1979
     88  CA       -21.1770   -5.5500   12.5250 C.3   198  GLN198      0.1601
     89  C        -20.8910   -5.5800   11.0810 C.2   198  GLN198      0.2287
     90  O        -19.6910   -5.5440   10.6650 O.2   198  GLN198     -0.2864
     91  CB       -20.6150   -6.7580   13.1690 C.3   198  GLN198      0.0394
     92  CG       -20.4680   -6.6230   14.5730 C.3   198  GLN198      0.0908
     93  CD       -19.6100   -5.3830   15.0000 C.2   198  GLN198      0.2608
     94  OE1      -18.7010   -4.7880   14.2660 O.2   198  GLN198     -0.2717
     95  NE2      -19.9210   -4.9670   16.2280 N.am  198  GLN198     -0.0878
     96  N        -26.0440    0.1160   13.9150 N.3   218  SER218     -0.1217
     97  CA       -25.6060    1.2310   14.8110 C.3   218  SER218      0.1889
     98  C        -24.7460    2.2040   14.0810 C.2   218  SER218      0.2288
     99  O        -23.7630    1.7750   13.4300 O.2   218  SER218     -0.2866
    100  CB       -24.7790    0.7270   16.0150 C.3   218  SER218      0.2089
    101  OG       -25.6480   -0.0890   16.8850 O.3   218  SER218     -0.2183
    102  N        -22.5020    4.2310   15.2260 N.3   220  HIS220     -0.1226
    103  CA       -21.1620    4.3920   15.8050 C.3   220  HIS220      0.1752
    104  C        -20.1170    3.3630   15.4650 C.2   220  HIS220      0.2595
    105  O        -18.9970    3.4820   15.7890 O.2   220  HIS220     -0.2718
    106  CB       -21.2270    4.5240   17.3220 C.3   220  HIS220      0.0759
    107  CG       -21.6120    3.2700   18.0340 C.ar  220  HIS220      0.0818
    108  ND1      -20.6810    2.4110   18.5360 N.ar  220  HIS220     -0.2268
    109  CD2      -22.8110    2.7260   18.3150 C.ar  220  HIS220      0.1154
    110  CE1      -21.2860    1.3880   19.0860 C.ar  220  HIS220      0.1986
    111  NE2      -22.5830    1.5550   18.9760 N.ar  220  HIS220     -0.2212
    112  N        -20.5890    2.3420   14.7930 N.am  221  LYS221     -0.1980
    113  CA       -19.7350    1.2480   14.3610 C.3   221  LYS221      0.1596
    114  C        -19.1970    1.4680   12.9490 C.2   221  LYS221      0.2287
    115  O        -18.6430    2.4650   12.7340 O.2   221  LYS221     -0.2864
    116  CB       -20.4380   -0.0970   14.5540 C.3   221  LYS221      0.0298
    117  CG       -20.5950   -0.4570   16.0520 C.3   221  LYS221      0.0038
    118  CD       -21.3220   -1.7430   16.3260 C.3   221  LYS221      0.0206
    119  CE       -21.4450   -2.0510   17.8260 C.3   221  LYS221      0.1093
    120  NZ       -21.5020   -3.5160   17.9000 N.3   221  LYS221     -0.1314
@<TRIPOS>BOND
     1    65    63    1
     2    90    89    2
     3    59    60    1
     4    63    60    1
     5    63    64    1
     6    53    52    2
     7    89    88    1
     8    60    61    1
     9    52    51    1
    10    77    76    2
    11    74    75    1
    12    76    75    1
    13    88    87    1
    14    88    91    1
    15    61    62    2
    16   115   114    2
    17    51    50    1
    18    51    54    1
    19    82    83    1
    20    87    84   am
    21   114   113    1
    22    75    78    1
    23    91    92    1
    24    84    85    2
    25    84    83    1
    26    99    98    2
    27    83    86    1
    28    55    54    1
    29    55    56    1
    30    96    97    1
    31    98    97    1
    32    94    93    2
    33   113   116    1
    34   113   112    1
    35    78    79    1
    36   116   117    1
    37    92    93    1
    38    58    56   am
    39    80    79   ar
    40   112   104   am
    41    97   100    1
    42    56    57    2
    43    93    95   am
    44   102   103    1
    45    79    81   ar
    46   104   105    2
    47   104   103    1
    48     6     5    1
    49    26    25    1
    50   103   106    1
    51   100   101    1
    52   117   118    1
    53    66    67    1
    54   118   119    1
    55     1     2    1
    56    27    25    1
    57     2     5    1
    58     2     3    1
    59    67    68    1
    60    67    70    1
    61     5     7    1
    62    25    22    1
    63   106   107    1
    64    22    21    1
    65    22    23    1
    66    68    69    2
    67     4     3    2
    68     3     8   am
    69    70    71    1
    70   119   120    1
    71    21    15   am
    72   107   109   ar
    73   107   108   ar
    74    24    23    2
    75    16    15    2
    76    15    14    1
    77   109   111   ar
    78    23    28   am
    79   108   110   ar
    80     8     9    1
    81    72    71    2
    82    14    13    1
    83    14    17    1
    84    71    73   am
    85   111   110   ar
    86    10    11    2
    87    10     9    1
    88    34    35    1
    89    28    29    1
    90     9    12    1
    91    38    35    1
    92    38    39    1
    93    17    18    1
    94    35    36    1
    95    29    30    1
    96    29    32    1
    97    39    40   ar
    98    39    41   ar
    99    47    46    2
   100    30    31    1
   101    46    45    1
   102    40    42   ar
   103    37    36    2
   104    19    18    2
   105    18    20   am
   106    41    43   ar
   107    48    45    1
   108    48    49    1
   109    42    43   ar
   110    33    32    1
   111    45    44    1
