@<TRIPOS>MOLECULE
tmp/5b8dA00.pdb
 98 96 0 0 0
SMALL
GASTEIGER

@<TRIPOS>ATOM
      1  N          7.8680    4.8990   17.4740 N.3    33  GLU33      -0.1231
      2  CA         6.8760    4.1220   16.6850 C.3    33  GLU33       0.1699
      3  C          7.4920    3.5180   15.3820 C.2    33  GLU33       0.2592
      4  O          7.1320    3.9020   14.2570 O.2    33  GLU33      -0.2718
      5  CB         5.6400    5.0080   16.3240 C.3    33  GLU33       0.0402
      6  CG         4.7910    5.3960   17.5350 C.3    33  GLU33       0.1161
      7  CD         3.7080    6.4500   17.2900 C.2    33  GLU33       0.3649
      8  OE1        3.2870    6.6920   16.1170 O.co2  33  GLU33      -0.2457
      9  OE2        3.2650    7.0600   18.3020 O.co2  33  GLU33      -0.2457
     10  N          8.3560    2.5160   15.5170 N.am   34  ASN34      -0.1960
     11  CA         9.1170    1.9630   14.3890 C.3    34  ASN34       0.1819
     12  C          8.4560    0.7130   13.7820 C.2    34  ASN34       0.2621
     13  O          7.7140   -0.0250   14.4440 O.2    34  ASN34      -0.2715
     14  CB        10.5660    1.6450   14.8290 C.3    34  ASN34       0.1195
     15  CG        11.3640    2.9150   15.1440 C.2    34  ASN34       0.2630
     16  OD1       11.3350    3.8710   14.3820 O.2    34  ASN34      -0.2716
     17  ND2       12.0420    2.9440   16.2790 N.am   34  ASN34      -0.0877
     18  N          8.7740    0.5260   12.5020 N.am   35  TRP35      -0.1974
     19  CA         8.3750   -0.6070   11.6710 C.3    35  TRP35       0.1640
     20  C          9.6360   -1.3130   11.1680 C.2    35  TRP35       0.2290
     21  O         10.6950   -0.6580   11.0040 O.2    35  TRP35      -0.2864
     22  CB         7.5570   -0.1240   10.4520 C.3    35  TRP35       0.0576
     23  CG         6.2580    0.5930   10.7180 C.ar   35  TRP35       0.0006
     24  CD1        6.1120    1.9160   11.0380 C.ar   35  TRP35       0.0946
     25  CD2        4.9220    0.0550   10.6310 C.ar   35  TRP35       0.0152
     26  NE1        4.7840    2.2330   11.1670 N.ar   35  TRP35      -0.2442
     27  CE2        4.0310    1.1080   10.9200 C.ar   35  TRP35       0.0810
     28  CE3        4.3870   -1.1960   10.2840 C.ar   35  TRP35       0.0012
     29  CZ2        2.6300    0.9290   10.9300 C.ar   35  TRP35       0.0191
     30  CZ3        2.9980   -1.3640   10.2740 C.ar   35  TRP35       0.0001
     31  CH2        2.1400   -0.3090   10.5990 C.ar   35  TRP35       0.0015
     32  N          7.4530    5.5370   11.8680 N.3    46  GLY46      -0.1210
     33  CA         6.1140    5.6830   11.2880 C.3    46  GLY46       0.1956
     34  C          5.7480    7.1050   10.8500 C.2    46  GLY46       0.2612
     35  O          6.4580    8.1100   11.1260 O.2    46  GLY46      -0.2717
     36  N          4.5950    7.2020   10.1760 N.am   47  ARG47      -0.1965
     37  CA         4.1700    8.4540    9.5400 C.3    47  ARG47       0.1729
     38  C          3.8860    9.5910   10.5350 C.2    47  ARG47       0.2616
     39  O          3.9540   10.7710   10.1390 O.2    47  ARG47      -0.2715
     40  CB         2.9560    8.2200    8.6270 C.3    47  ARG47       0.0348
     41  CG         1.6450    7.9440    9.3230 C.3    47  ARG47       0.0492
     42  CD         0.6300    7.4590    8.3060 C.3    47  ARG47       0.2205
     43  NE        -0.6590    7.1590    8.8840 N.pl3  47  ARG47      -0.0865
     44  CZ        -1.6670    6.6090    8.2120 C.cat  47  ARG47       0.5346
     45  NH1       -1.5300    6.2510    6.9330 N.pl3  47  ARG47       0.1354
     46  NH2       -2.8140    6.3740    8.8360 N.pl3  47  ARG47       0.1354
     47  N          3.5480    9.2520   11.7860 N.am   48  TYR48      -0.1974
     48  CA         3.2640   10.2770   12.8090 C.3    48  TYR48       0.1639
     49  C          4.5310   10.8110   13.4900 C.2    48  TYR48       0.2290
     50  O          4.4740   11.8360   14.1850 O.2    48  TYR48      -0.2864
     51  CB         2.2440    9.7680   13.8570 C.3    48  TYR48       0.0560
     52  CG         0.9130    9.3220   13.2480 C.ar   48  TYR48      -0.0198
     53  CD1        0.1900   10.1530   12.3980 C.ar   48  TYR48      -0.0009
     54  CD2        0.3900    8.0590   13.5150 C.ar   48  TYR48      -0.0009
     55  CE1       -0.9970    9.7290   11.8140 C.ar   48  TYR48       0.0417
     56  CE2       -0.8040    7.6230   12.9430 C.ar   48  TYR48       0.0417
     57  CZ        -1.4960    8.4650   12.0830 C.ar   48  TYR48       0.1957
     58  OH        -2.6870    8.0730   11.4670 O.3    48  TYR48      -0.2866
     59  N          4.7090   -3.7640   12.3280 N.3    67  SER67      -0.1217
     60  CA         4.7560   -2.7550   13.4190 C.3    67  SER67       0.1889
     61  C          5.3970   -3.3420   14.6810 C.2    67  SER67       0.2288
     62  O          4.9690   -4.3920   15.1880 O.2    67  SER67      -0.2866
     63  CB         3.3290   -2.3430   13.7800 C.3    67  SER67       0.2089
     64  OG         3.2960   -1.6000   15.0100 O.3    67  SER67      -0.2183
     65  N          5.0030   -1.7550   17.4920 N.3    69  ILE69      -0.1231
     66  CA         4.0150   -1.4190   18.5430 C.3    69  ILE69       0.1692
     67  C          3.0230   -2.5660   18.7540 C.2    69  ILE69       0.2592
     68  O          2.7460   -2.9420   19.9050 O.2    69  ILE69      -0.2718
     69  CB         3.2550   -0.0920   18.2140 C.3    69  ILE69       0.0266
     70  CG1        4.1990    1.1150   18.2610 C.3    69  ILE69       0.0019
     71  CG2        2.0380    0.1360   19.1170 C.3    69  ILE69       0.0020
     72  CD1        4.3980    1.7180   19.6170 C.3    69  ILE69       0.0001
     73  N          2.4420   -3.0920   17.6570 N.am   70  ASP70      -0.1974
     74  CA         1.3050   -4.0360   17.7940 C.3    70  ASP70       0.1709
     75  C          1.3350   -5.2470   16.8600 C.2    70  ASP70       0.2293
     76  O          0.3580   -6.0260   16.8440 O.2    70  ASP70      -0.2864
     77  CB        -0.0470   -3.2840   17.6670 C.3    70  ASP70       0.1436
     78  CG        -0.1320   -2.5140   16.3730 C.2    70  ASP70       0.3671
     79  OD1        0.3670   -3.0250   15.3400 O.co2  70  ASP70      -0.2456
     80  OD2       -0.5970   -1.3450   16.3790 O.co2  70  ASP70      -0.2456
     81  N          0.9710   -5.5790   13.7130 N.3    72  SER72      -0.1217
     82  CA         0.2000   -5.5220   12.4720 C.3    72  SER72       0.1889
     83  C          1.1320   -5.4420   11.2520 C.2    72  SER72       0.2288
     84  O          2.2380   -4.9000   11.3370 O.2    72  SER72      -0.2866
     85  CB        -0.7760   -4.3560   12.4840 C.3    72  SER72       0.2089
     86  OG        -0.1490   -3.1250   12.5850 O.3    72  SER72      -0.2183
     87  N         -4.1730   -3.6210    5.8380 N.3    81  TYR81      -0.1241
     88  CA        -3.5230   -4.6430    6.6680 C.3    81  TYR81       0.1605
     89  C         -3.7640   -6.0330    6.0510 C.2    81  TYR81       0.2264
     90  O         -4.8290   -6.2710    5.4210 O.2    81  TYR81      -0.2867
     91  CB        -4.0360   -4.5910    8.1140 C.3    81  TYR81       0.0534
     92  CG        -3.7800   -3.2590    8.8420 C.ar   81  TYR81      -0.0201
     93  CD1       -2.5340   -2.9460    9.3670 C.ar   81  TYR81      -0.0009
     94  CD2       -4.8050   -2.3240    8.9870 C.ar   81  TYR81      -0.0009
     95  CE1       -2.3350   -1.7090   10.0220 C.ar   81  TYR81       0.0417
     96  CE2       -4.6300   -1.1130    9.6400 C.ar   81  TYR81       0.0417
     97  CZ        -3.3990   -0.8030   10.1510 C.ar   81  TYR81       0.1957
     98  OH        -3.2390    0.4090   10.8170 O.3    81  TYR81      -0.2866
@<TRIPOS>BOND
     1    90    89    2
     2    87    88    1
     3    89    88    1
     4    88    91    1
     5    45    44    1
     6    91    92    1
     7    44    46    1
     8    44    43    2
     9    42    43    1
    10    42    41    1
    11    40    41    1
    12    40    37    1
    13    92    94   ar
    14    92    93   ar
    15    94    96   ar
    16    93    95   ar
    17    37    36    1
    18    37    38    1
    19    96    97   ar
    20    95    97   ar
    21    39    38    2
    22    97    98    1
    23    36    34   am
    24    30    28   ar
    25    30    31   ar
    26    28    25   ar
    27    22    23    1
    28    22    19    1
    29    38    47   am
    30    31    29   ar
    31    25    23   ar
    32    25    27   ar
    33    23    24   ar
    34    34    35    2
    35    34    33    1
    36    27    29   ar
    37    27    26   ar
    38    21    20    2
    39    24    26   ar
    40    20    19    1
    41    83    84    2
    42    83    82    1
    43    33    32    1
    44    58    57    1
    45    19    18    1
    46    47    48    1
    47    55    57   ar
    48    55    53   ar
    49    57    56   ar
    50    59    60    1
    51    53    52   ar
    52    82    85    1
    53    82    81    1
    54    85    86    1
    55    18    12   am
    56    48    49    1
    57    48    51    1
    58    56    54   ar
    59    52    54   ar
    60    52    51    1
    61    60    63    1
    62    60    61    1
    63    49    50    2
    64    63    64    1
    65    12    11    1
    66    12    13    2
    67     4     3    2
    68    16    15    2
    69    11    14    1
    70    11    10    1
    71    61    62    2
    72    14    15    1
    73    15    17   am
    74    79    78   ar
    75     3    10   am
    76     3     2    1
    77     8     7   ar
    78     5     2    1
    79     5     6    1
    80    78    80   ar
    81    78    77    1
    82     2     1    1
    83    76    75    2
    84    75    74    1
    85     7     6    1
    86     7     9   ar
    87    65    66    1
    88    73    74    1
    89    73    67   am
    90    77    74    1
    91    69    70    1
    92    69    66    1
    93    69    71    1
    94    70    72    1
    95    66    67    1
    96    67    68    2
