@<TRIPOS>MOLECULE
tmp/5b8fC00.pdb
 88 84 0 0 0
SMALL
GASTEIGER

@<TRIPOS>ATOM
      1  N          6.7650    8.1900    9.3470 N.3   107  ALA107     -0.1231
      2  CA         5.5360    7.7850    8.6750 C.3   107  ALA107      0.1694
      3  C          4.8560    6.6770    9.4610 C.2   107  ALA107      0.2591
      4  O          5.5150    5.7430    9.9100 O.2   107  ALA107     -0.2718
      5  CB         5.8350    7.3160    7.2440 C.3   107  ALA107      0.0304
      6  N          3.5300    6.7610    9.5950 N.am  108  GLN108     -0.1979
      7  CA         2.8050    5.7510   10.3400 C.3   108  GLN108      0.1601
      8  C          2.5710    4.5480    9.4420 C.2   108  GLN108      0.2287
      9  O          2.5060    3.4070    9.9180 O.2   108  GLN108     -0.2864
     10  CB         1.4720    6.3260   10.8490 C.3   108  GLN108      0.0394
     11  CG         0.7350    5.4380   11.8570 C.3   108  GLN108      0.0908
     12  CD         1.5220    5.2750   13.1610 C.2   108  GLN108      0.2608
     13  OE1        2.0870    6.2470   13.6700 O.2   108  GLN108     -0.2717
     14  NE2        1.5750    4.0540   13.6920 N.am  108  GLN108     -0.0878
     15  N          2.8500    3.6980    4.7410 N.3   110  PRO110     -0.2102
     16  CA         3.0650    2.2540    4.7600 C.3   110  PRO110      0.1504
     17  C          4.3990    1.8910    5.4320 C.2   110  PRO110      0.2576
     18  O          5.1760    2.7870    5.8120 O.2   110  PRO110     -0.2718
     19  CB         3.0880    1.8900    3.2740 C.3   110  PRO110      0.0282
     20  CG         3.6670    3.1320    2.6080 C.3   110  PRO110      0.0208
     21  CD         3.1560    4.2900    3.4200 C.3   110  PRO110      0.0893
     22  N          4.6750    0.5950    5.5550 N.am  111  LYS111     -0.1966
     23  CA         5.9500    0.1450    6.1140 C.3   111  LYS111      0.1728
     24  C          7.0680    0.4390    5.1170 C.2   111  LYS111      0.2616
     25  O          6.9190    0.1800    3.9240 O.2   111  LYS111     -0.2715
     26  CB         5.9240   -1.3550    6.4480 C.3   111  LYS111      0.0311
     27  CG         5.1770   -1.6910    7.7150 C.3   111  LYS111      0.0038
     28  CD         5.9100   -1.1480    8.9220 C.3   111  LYS111      0.0206
     29  CE         5.1160   -1.3530   10.1900 C.3   111  LYS111      0.1093
     30  NZ         3.8390   -0.5970   10.1400 N.3   111  LYS111     -0.1314
     31  N          8.1800    0.9940    5.6080 N.am  112  MET112     -0.1963
     32  CA         9.3140    1.3490    4.7640 C.3   112  MET112      0.1736
     33  C         10.3580    0.2620    4.6600 C.2   112  MET112      0.2616
     34  O         11.0890    0.2110    3.6960 O.2   112  MET112     -0.2715
     35  CB         9.9870    2.6180    5.2920 C.3   112  MET112      0.0427
     36  CG         9.0500    3.8090    5.3770 C.3   112  MET112      0.0599
     37  SD         8.4400    4.2630    3.7440 S.3   112  MET112     -0.1393
     38  CE         7.0010    5.2240    4.1980 C.3   112  MET112      0.0692
     39  N         10.4060   -0.6170    5.6450 N.am  113  ALA113     -0.1977
     40  CA        11.5000   -1.6000    5.7780 C.3   113  ALA113      0.1597
     41  C         11.8850   -2.3730    4.4960 C.2   113  ALA113      0.2287
     42  O         13.0810   -2.4690    4.1900 O.2   113  ALA113     -0.2864
     43  CB        11.1620   -2.6110    6.9080 C.3   113  ALA113      0.0319
     44  N         14.1110   -0.0970    2.0570 N.3   116  ILE116     -0.1245
     45  CA        15.2470    0.6950    2.5350 C.3   116  ILE116      0.1561
     46  C         16.5200    0.4230    1.7340 C.2   116  ILE116      0.2260
     47  O         17.2070    1.3470    1.2990 O.2   116  ILE116     -0.2867
     48  CB        15.5260    0.4090    4.0240 C.3   116  ILE116      0.0252
     49  CG1       14.3760    0.8650    4.9170 C.3   116  ILE116      0.0019
     50  CG2       16.8590    1.0240    4.4540 C.3   116  ILE116      0.0019
     51  CD1       14.2160    2.3320    4.9630 C.3   116  ILE116      0.0001
     52  N         16.6420    5.2980    7.6190 N.3   137  LYS137     -0.1231
     53  CA        15.8530    4.5600    8.5860 C.3   137  LYS137      0.1693
     54  C         14.4580    5.1460    8.6290 C.2   137  LYS137      0.2592
     55  O         14.1700    6.1640    7.9970 O.2   137  LYS137     -0.2718
     56  CB        16.5080    4.5620    9.9640 C.3   137  LYS137      0.0285
     57  CG        16.9250    5.8830   10.4730 C.3   137  LYS137      0.0035
     58  CD        18.1720    5.7810   11.4470 C.3   137  LYS137      0.0206
     59  CE        18.4830    7.1400   12.0820 C.3   137  LYS137      0.1093
     60  NZ        18.6270    8.2130   11.0580 N.3   137  LYS137     -0.1314
     61  N         13.5900    4.4930    9.3850 N.am  138  ALA138     -0.1966
     62  CA        12.2210    4.9260    9.4680 C.3   138  ALA138      0.1728
     63  C         11.7300    4.8090   10.8800 C.2   138  ALA138      0.2617
     64  O         12.2350    4.0070   11.6660 O.2   138  ALA138     -0.2715
     65  CB        11.3510    4.1200    8.5290 C.3   138  ALA138      0.0334
     66  N         10.7430    5.6200   11.2100 N.am  139  THR139     -0.1937
     67  CA        10.1180    5.5040   12.5120 C.3   139  THR139      0.2028
     68  C          8.6700    5.9720   12.4470 C.2   139  THR139      0.2642
     69  O          8.3010    6.7940   11.5990 O.2   139  THR139     -0.2714
     70  CB        10.8890    6.3040   13.5740 C.3   139  THR139      0.1808
     71  OG1       10.3910    5.9660   14.8730 O.3   139  THR139     -0.2208
     72  CG2       10.7760    7.7920   13.3770 C.3   139  THR139      0.0379
     73  N          7.8450    5.4380   13.3410 N.am  140  THR140     -0.1950
     74  CA         6.5130    5.9940   13.5190 C.3   140  THR140      0.1897
     75  C          6.5470    6.9460   14.7020 C.2   140  THR140      0.2313
     76  O          7.5140    6.9820   15.4620 O.2   140  THR140     -0.2863
     77  CB         5.4250    4.9270   13.7840 C.3   140  THR140      0.1794
     78  OG1        5.5400    4.4620   15.1320 O.3   140  THR140     -0.2208
     79  CG2        5.5350    3.7470   12.8030 C.3   140  THR140      0.0378
     80  N          3.9920    6.5750   16.8360 N.3   142  GLU142     -0.1245
     81  CA         3.0620    5.8400   17.7040 C.3   142  GLU142      0.1567
     82  C          1.6550    6.4630   17.6780 C.2   142  GLU142      0.2260
     83  O          0.9950    6.6120   18.7110 O.2   142  GLU142     -0.2867
     84  CB         3.6110    5.7760   19.1350 C.3   142  GLU142      0.0388
     85  CG         5.0210    5.2070   19.2060 C.3   142  GLU142      0.1160
     86  CD         5.0870    3.7340   18.8660 C.2   142  GLU142      0.3649
     87  OE1        4.0520    3.0430   19.0050 O.co2 142  GLU142     -0.2457
     88  OE2        6.1800    3.2600   18.4700 O.co2 142  GLU142     -0.2457
@<TRIPOS>BOND
     1    47    46    2
     2    46    45    1
     3    44    45    1
     4    45    48    1
     5    20    19    1
     6    20    21    1
     7    19    16    1
     8    21    15    1
     9    34    33    2
    10    37    38    1
    11    37    36    1
    12    25    24    2
    13    48    50    1
    14    48    49    1
    15    42    41    2
    16    41    40    1
    17    33    32    1
    18    33    39   am
    19    15    16    1
    20    16    17    1
    21    32    35    1
    22    32    31    1
    23    49    51    1
    24    24    31   am
    25    24    23    1
    26    35    36    1
    27    17    22   am
    28    17    18    2
    29    22    23    1
    30    39    40    1
    31    40    43    1
    32    23    26    1
    33    26    27    1
    34     5     2    1
    35    52    53    1
    36    27    28    1
    37    55    54    2
    38    65    62    1
    39    53    54    1
    40    53    56    1
    41    54    61   am
    42     2     1    1
    43     2     3    1
    44    28    29    1
    45    61    62    1
    46     8     9    2
    47     8     7    1
    48     3     6   am
    49     3     4    2
    50    62    63    1
    51     6     7    1
    52    56    57    1
    53    30    29    1
    54     7    10    1
    55    57    58    1
    56    10    11    1
    57    63    66   am
    58    63    64    2
    59    60    59    1
    60    66    67    1
    61    58    59    1
    62    69    68    2
    63    11    12    1
    64    68    67    1
    65    68    73   am
    66    67    70    1
    67    79    77    1
    68    12    13    2
    69    12    14   am
    70    73    74    1
    71    72    70    1
    72    74    77    1
    73    74    75    1
    74    70    71    1
    75    77    78    1
    76    75    76    2
    77    80    81    1
    78    82    81    1
    79    82    83    2
    80    81    84    1
    81    88    86   ar
    82    86    87   ar
    83    86    85    1
    84    84    85    1
