@<TRIPOS>MOLECULE
tmp/5b8hA00.pdb
 81 77 0 0 0
SMALL
GASTEIGER

@<TRIPOS>ATOM
      1  N         16.7260   22.2710   31.3400 N.3    10  GLY10      -0.1210
      2  CA        16.0930   21.2140   30.5740 C.3    10  GLY10       0.1956
      3  C         16.9370   20.7950   29.3860 C.2    10  GLY10       0.2612
      4  O         18.0720   21.2450   29.2380 O.2    10  GLY10      -0.2717
      5  N         16.3820   19.9390   28.5330 N.am   11  ASN11      -0.1960
      6  CA        17.1170   19.4240   27.3820 C.3    11  ASN11       0.1819
      7  C         17.1150   20.3990   26.2060 C.2    11  ASN11       0.2622
      8  O         17.8020   20.1760   25.2100 O.2    11  ASN11      -0.2715
      9  CB        16.5390   18.0760   26.9410 C.3    11  ASN11       0.1195
     10  CG        16.8220   16.9700   27.9360 C.2    11  ASN11       0.2630
     11  OD1       17.9180   16.4120   27.9660 O.2    11  ASN11      -0.2716
     12  ND2       15.8310   16.6450   28.7560 N.am   11  ASN11      -0.0877
     13  N         16.3430   21.4740   26.3230 N.am   12  SER12      -0.1936
     14  CA        16.2680   22.4730   25.2640 C.3    12  SER12       0.2055
     15  C         16.7370   23.8440   25.7380 C.2    12  SER12       0.2642
     16  O         17.5430   24.4950   25.0740 O.2    12  SER12      -0.2714
     17  CB        14.8410   22.5680   24.7260 C.3    12  SER12       0.2130
     18  OG        14.4610   21.3590   24.0940 O.3    12  SER12      -0.2179
     19  N         16.2300   24.2820   26.8850 N.am   13  ARG13      -0.1977
     20  CA        16.5950   25.5860   27.4250 C.3    13  ARG13       0.1597
     21  C         16.9700   25.4990   28.8990 C.2    13  ARG13       0.2287
     22  O         16.6190   24.5410   29.5880 O.2    13  ARG13      -0.2864
     23  CB        15.4500   26.5850   27.2400 C.3    13  ARG13       0.0334
     24  CG        15.0720   26.8360   25.7910 C.3    13  ARG13       0.0492
     25  CD        14.0950   27.9920   25.6620 C.3    13  ARG13       0.2205
     26  NE        14.6760   29.2530   26.1140 N.pl3  13  ARG13      -0.0865
     27  CZ        15.4690   30.0170   25.3700 C.cat  13  ARG13       0.5346
     28  NH1       15.7810   29.6480   24.1360 N.pl3  13  ARG13       0.1354
     29  NH2       15.9530   31.1490   25.8610 N.pl3  13  ARG13       0.1354
     30  N         16.3880   27.5770   32.2420 N.3    15  LYS15      -0.1245
     31  CA        15.6240   28.6600   32.8440 C.3    15  LYS15       0.1561
     32  C         16.1970   29.0160   34.2090 C.2    15  LYS15       0.2260
     33  O         16.7040   28.1500   34.9230 O.2    15  LYS15      -0.2867
     34  CB        14.1430   28.2820   32.9700 C.3    15  LYS15       0.0271
     35  CG        13.3610   28.2910   31.6550 C.3    15  LYS15       0.0035
     36  CD        13.6170   27.0490   30.8100 C.3    15  LYS15       0.0206
     37  CE        13.0400   25.8020   31.4620 C.3    15  LYS15       0.1093
     38  NZ        13.3920   24.5470   30.7250 N.3    15  LYS15      -0.1314
     39  N         12.9200   18.1530   37.7040 N.3   104  ASP104     -0.1239
     40  CA        12.0970   19.2630   37.2410 C.3   104  ASP104      0.1674
     41  C         10.6170   18.9570   37.4590 C.2   104  ASP104      0.2266
     42  O          9.8340   19.8460   37.7940 O.2   104  ASP104     -0.2867
     43  CB        12.3740   19.5640   35.7640 C.3   104  ASP104      0.1410
     44  CG        12.2170   18.3430   34.8800 C.2   104  ASP104      0.3668
     45  OD1       12.2550   17.2150   35.4110 O.co2 104  ASP104     -0.2456
     46  OD2       12.0610   18.5100   33.6520 O.co2 104  ASP104     -0.2456
     47  N          4.9860   21.5030   29.0200 N.3   126  PHE126     -0.1227
     48  CA         5.4600   21.3920   27.6450 C.3   126  PHE126      0.1736
     49  C          6.8960   21.8760   27.4850 C.2   126  PHE126      0.2596
     50  O          7.1670   23.0760   27.5260 O.2   126  PHE126     -0.2718
     51  CB         4.5490   22.1780   26.7010 C.3   126  PHE126      0.0547
     52  CG         3.1020   21.8070   26.8090 C.ar  126  PHE126     -0.0202
     53  CD1        2.5870   20.7540   26.0750 C.ar  126  PHE126     -0.0042
     54  CD2        2.2540   22.5140   27.6440 C.ar  126  PHE126     -0.0042
     55  CE1        1.2570   20.4150   26.1720 C.ar  126  PHE126     -0.0003
     56  CE2        0.9240   22.1800   27.7460 C.ar  126  PHE126     -0.0003
     57  CZ         0.4260   21.1300   27.0120 C.ar  126  PHE126     -0.0000
     58  N          7.8110   20.9310   27.3060 N.am  127  GLY127     -0.1942
     59  CA         9.1970   21.2460   27.0180 C.3   127  GLY127      0.2014
     60  C          9.6700   20.4070   25.8520 C.2   127  GLY127      0.2640
     61  O          8.9210   20.2060   24.8960 O.2   127  GLY127     -0.2714
     62  N         10.9080   19.9230   25.9260 N.am  128  THR128     -0.1936
     63  CA        11.4120   18.9570   24.9550 C.3   128  THR128      0.2028
     64  C         10.4650   17.7630   24.9150 C.2   128  THR128      0.2642
     65  O         10.1420   17.2350   23.8500 O.2   128  THR128     -0.2714
     66  CB        12.8390   18.4800   25.3030 C.3   128  THR128      0.1808
     67  OG1       13.7220   19.6070   25.3610 O.3   128  THR128     -0.2208
     68  CG2       13.3480   17.4980   24.2580 C.3   128  THR128      0.0379
     69  N         10.0200   17.3510   26.0960 N.am  129  ALA129     -0.1977
     70  CA         8.9940   16.3310   26.2240 C.3   129  ALA129      0.1597
     71  C          7.7480   16.9450   26.8370 C.2   129  ALA129      0.2287
     72  O          7.8230   17.9650   27.5200 O.2   129  ALA129     -0.2864
     73  CB         9.4890   15.1750   27.0750 C.3   129  ALA129      0.0319
     74  N          4.7170   25.7390   30.2920 N.3   223  GLY223     -0.1210
     75  CA         5.6560   25.6170   29.1910 C.3   223  GLY223      0.1956
     76  C          5.3560   26.5440   28.0290 C.2   223  GLY223      0.2612
     77  O          4.3720   27.2820   28.0500 O.2   223  GLY223     -0.2717
     78  N          6.2050   26.5000   27.0080 N.am  224  GLY224     -0.1956
     79  CA         6.0680   27.3790   25.8600 C.3   224  GLY224      0.1869
     80  C          4.9730   26.9980   24.8820 C.2   224  GLY224      0.2309
     81  O          4.2290   27.8560   24.4050 O.2   224  GLY224     -0.2863
@<TRIPOS>BOND
     1    65    64    2
     2    18    17    1
     3    28    27    1
     4    68    66    1
     5    81    80    2
     6    17    14    1
     7    80    79    1
     8    61    60    2
     9    64    63    1
    10    64    69   am
    11    63    66    1
    12    63    62    1
    13    16    15    2
    14     8     7    2
    15    14    15    1
    16    14    13    1
    17    66    67    1
    18    27    29    1
    19    27    26    2
    20    25    24    1
    21    25    26    1
    22    15    19   am
    23    24    23    1
    24    60    62   am
    25    60    59    1
    26    79    78    1
    27    53    55   ar
    28    53    52   ar
    29    69    70    1
    30    55    57   ar
    31     7    13   am
    32     7     6    1
    33    70    71    1
    34    70    73    1
    35    51    52    1
    36    51    48    1
    37    52    54   ar
    38    71    72    2
    39    19    20    1
    40     9     6    1
    41     9    10    1
    42    78    76   am
    43    57    56   ar
    44    59    58    1
    45    23    20    1
    46    58    49   am
    47     6     5    1
    48    20    21    1
    49    49    50    2
    50    49    48    1
    51    54    56   ar
    52    48    47    1
    53    10    11    2
    54    10    12   am
    55    76    77    2
    56    76    75    1
    57     5     3   am
    58    21    22    2
    59    75    74    1
    60     4     3    2
    61     3     2    1
    62     2     1    1
    63    38    37    1
    64    36    37    1
    65    36    35    1
    66    35    34    1
    67    30    31    1
    68    31    34    1
    69    31    32    1
    70    46    44   ar
    71    32    33    2
    72    44    45   ar
    73    44    43    1
    74    43    40    1
    75    40    41    1
    76    40    39    1
    77    41    42    2
