@<TRIPOS>MOLECULE
tmp/5b8hA01.pdb
 94 87 0 0 0
SMALL
GASTEIGER

@<TRIPOS>ATOM
      1  N         16.3820   19.9390   28.5330 N.3    11  ASN11      -0.1240
      2  CA        17.1170   19.4240   27.3820 C.3    11  ASN11       0.1653
      3  C         17.1150   20.3990   26.2060 C.2    11  ASN11       0.2266
      4  O         17.8020   20.1760   25.2100 O.2    11  ASN11      -0.2867
      5  CB        16.5390   18.0760   26.9410 C.3    11  ASN11       0.1155
      6  CG        16.8220   16.9700   27.9360 C.2    11  ASN11       0.2627
      7  OD1       17.9180   16.4120   27.9660 O.2    11  ASN11      -0.2716
      8  ND2       15.8310   16.6450   28.7560 N.am   11  ASN11      -0.0877
      9  N         18.2050   18.0420   34.2270 N.3    57  VAL57      -0.1245
     10  CA        17.8730   16.7550   33.6390 C.3    57  VAL57       0.1561
     11  C         18.5910   16.6150   32.3020 C.2    57  VAL57       0.2260
     12  O         18.2720   15.7360   31.5030 O.2    57  VAL57      -0.2867
     13  CB        16.3520   16.5930   33.4710 C.3    57  VAL57       0.0252
     14  CG1       15.6590   16.6780   34.8230 C.3    57  VAL57       0.0019
     15  CG2       15.8070   17.6490   32.5170 C.3    57  VAL57       0.0019
     16  N          6.4320    7.2120   42.8050 N.3    95  TYR95      -0.1241
     17  CA         7.3280    6.4340   41.9560 C.3    95  TYR95       0.1605
     18  C          7.8870    5.2340   42.7100 C.2    95  TYR95       0.2264
     19  O          8.1900    5.3260   43.9000 O.2    95  TYR95      -0.2867
     20  CB         8.4720    7.3080   41.4390 C.3    95  TYR95       0.0534
     21  CG         8.3680    7.6520   39.9710 C.ar   95  TYR95      -0.0201
     22  CD1        7.1470    7.9890   39.4020 C.ar   95  TYR95      -0.0009
     23  CD2        9.4930    7.6500   39.1570 C.ar   95  TYR95      -0.0009
     24  CE1        7.0470    8.3050   38.0610 C.ar   95  TYR95       0.0417
     25  CE2        9.4040    7.9670   37.8160 C.ar   95  TYR95       0.0417
     26  CZ         8.1790    8.2960   37.2730 C.ar   95  TYR95       0.1957
     27  OH         8.0890    8.6120   35.9370 O.3    95  TYR95      -0.2866
     28  N         14.2680    8.3490   40.4420 N.3   100  GLN100     -0.1231
     29  CA        14.2430    8.2940   38.9820 C.3   100  GLN100      0.1698
     30  C         13.3420    9.3700   38.3820 C.2   100  GLN100      0.2592
     31  O         13.5000    9.7400   37.2180 O.2   100  GLN100     -0.2718
     32  CB        13.7930    6.9120   38.5040 C.3   100  GLN100      0.0381
     33  CG        14.8470    5.8400   38.6920 C.3   100  GLN100      0.0905
     34  CD        16.1920    6.2590   38.1320 C.2   100  GLN100      0.2608
     35  OE1       17.1560    6.4360   38.8750 O.2   100  GLN100     -0.2717
     36  NE2       16.2620    6.4230   36.8140 N.am  100  GLN100     -0.0878
     37  N         12.3970    9.8660   39.1740 N.am  101  LEU101     -0.1966
     38  CA        11.5410   10.9580   38.7300 C.3   101  LEU101      0.1728
     39  C         12.3900   12.1840   38.4160 C.2   101  LEU101      0.2616
     40  O         13.2680   12.5520   39.1980 O.2   101  LEU101     -0.2715
     41  CB        10.4940   11.2980   39.7900 C.3   101  LEU101      0.0311
     42  CG         9.5220   12.4220   39.4210 C.3   101  LEU101      0.0022
     43  CD1        8.5630   11.9670   38.3230 C.3   101  LEU101      0.0001
     44  CD2        8.7620   12.9170   40.6460 C.3   101  LEU101      0.0001
     45  N         12.1380   12.7990   37.2640 N.am  102  GLY102     -0.1955
     46  CA        12.8490   14.0000   36.8680 C.3   102  GLY102      0.1869
     47  C         12.7300   15.0880   37.9150 C.2   102  GLY102      0.2309
     48  O         11.6310   15.3910   38.3800 O.2   102  GLY102     -0.2863
     49  N         12.9200   18.1530   37.7040 N.3   104  ASP104     -0.1225
     50  CA        12.0970   19.2630   37.2410 C.3   104  ASP104      0.1805
     51  C         10.6170   18.9570   37.4590 C.2   104  ASP104      0.2597
     52  O          9.8340   19.8460   37.7940 O.2   104  ASP104     -0.2718
     53  CB        12.3740   19.5640   35.7640 C.3   104  ASP104      0.1424
     54  CG        12.2170   18.3430   34.8800 C.2   104  ASP104      0.3668
     55  OD1       12.2550   17.2150   35.4110 O.co2 104  ASP104     -0.2456
     56  OD2       12.0610   18.5100   33.6520 O.co2 104  ASP104     -0.2456
     57  N         10.2420   17.6950   37.2710 N.am  105  ARG105     -0.1979
     58  CA         8.8730   17.2570   37.5220 C.3   105  ARG105      0.1597
     59  C          8.5760   17.2870   39.0180 C.2   105  ARG105      0.2287
     60  O          7.4670   17.6190   39.4350 O.2   105  ARG105     -0.2864
     61  CB         8.6380   15.8490   36.9680 C.3   105  ARG105      0.0334
     62  CG         8.9180   15.7030   35.4790 C.3   105  ARG105      0.0492
     63  CD         8.7400   14.2600   35.0260 C.3   105  ARG105      0.2205
     64  NE         7.3380   13.8480   35.0280 N.pl3 105  ARG105     -0.0865
     65  CZ         6.9260   12.5970   34.8510 C.cat 105  ARG105      0.5346
     66  NH1        7.8100   11.6250   34.6710 N.pl3 105  ARG105      0.1354
     67  NH2        5.6300   12.3150   34.8660 N.pl3 105  ARG105      0.1354
     68  N         10.9080   19.9230   25.9260 N.3   128  THR128     -0.1203
     69  CA        11.4120   18.9570   24.9550 C.3   128  THR128      0.1994
     70  C         10.4650   17.7630   24.9150 C.2   128  THR128      0.2617
     71  O         10.1420   17.2350   23.8500 O.2   128  THR128     -0.2717
     72  CB        12.8390   18.4800   25.3030 C.3   128  THR128      0.1784
     73  OG1       13.7220   19.6070   25.3610 O.3   128  THR128     -0.2211
     74  CG2       13.3480   17.4980   24.2580 C.3   128  THR128      0.0376
     75  N         10.0200   17.3510   26.0960 N.am  129  ALA129     -0.1979
     76  CA         8.9940   16.3310   26.2240 C.3   129  ALA129      0.1597
     77  C          7.7480   16.9450   26.8370 C.2   129  ALA129      0.2287
     78  O          7.8230   17.9650   27.5200 O.2   129  ALA129     -0.2864
     79  CB         9.4890   15.1750   27.0750 C.3   129  ALA129      0.0319
     80  N          5.1350   16.2250   29.6520 N.3   131  THR131     -0.1218
     81  CA         4.9960   15.3750   30.8250 C.3   131  THR131      0.1862
     82  C          3.6880   15.6470   31.5480 C.2   131  THR131      0.2287
     83  O          3.2650   16.7950   31.6840 O.2   131  THR131     -0.2866
     84  CB         6.1680   15.5700   31.8120 C.3   131  THR131      0.1770
     85  OG1        6.1290   16.8950   32.3590 O.3   131  THR131     -0.2211
     86  CG2        7.5020   15.3550   31.1080 C.3   131  THR131      0.0375
     87  N          5.0400   10.2470   29.9860 N.3   146  ILE146     -0.1245
     88  CA         5.9950   11.0350   29.2210 C.3   146  ILE146      0.1561
     89  C          5.7660   10.8460   27.7260 C.2   146  ILE146      0.2260
     90  O          5.7260    9.7210   27.2280 O.2   146  ILE146     -0.2867
     91  CB         7.4450   10.6710   29.5920 C.3   146  ILE146      0.0252
     92  CG1        7.6690   10.8140   31.0990 C.3   146  ILE146      0.0019
     93  CG2        8.4220   11.5500   28.8270 C.3   146  ILE146      0.0019
     94  CD1        9.0060   10.2830   31.5770 C.3   146  ILE146      0.0001
@<TRIPOS>BOND
     1    71    70    2
     2    74    72    1
     3    70    69    1
     4    70    75   am
     5    69    72    1
     6    69    68    1
     7     4     3    2
     8    72    73    1
     9    75    76    1
    10     3     2    1
    11    76    77    1
    12    76    79    1
    13    77    78    2
    14     5     2    1
    15     5     6    1
    16    90    89    2
    17     2     1    1
    18    89    88    1
    19     6     7    2
    20     6     8   am
    21    93    91    1
    22    88    91    1
    23    88    87    1
    24    91    92    1
    25    80    81    1
    26    81    82    1
    27    81    84    1
    28    92    94    1
    29    86    84    1
    30    12    11    2
    31    82    83    2
    32    84    85    1
    33    11    10    1
    34    15    13    1
    35    13    10    1
    36    13    14    1
    37    10     9    1
    38    56    54   ar
    39    66    65    1
    40    65    67    1
    41    65    64    2
    42    54    55   ar
    43    54    53    1
    44    63    64    1
    45    63    62    1
    46    62    61    1
    47    53    50    1
    48    27    26    1
    49    36    34   am
    50    46    45    1
    51    46    47    1
    52    61    58    1
    53    31    30    2
    54    50    51    1
    55    50    49    1
    56    45    39   am
    57    57    51   am
    58    57    58    1
    59    26    25   ar
    60    26    24   ar
    61    51    52    2
    62    58    59    1
    63    25    23   ar
    64    47    48    2
    65    24    22   ar
    66    34    33    1
    67    34    35    2
    68    43    42    1
    69    30    29    1
    70    30    37   am
    71    39    38    1
    72    39    40    2
    73    32    33    1
    74    32    29    1
    75    38    37    1
    76    38    41    1
    77    29    28    1
    78    59    60    2
    79    23    21   ar
    80    22    21   ar
    81    42    41    1
    82    42    44    1
    83    21    20    1
    84    20    17    1
    85    17    18    1
    86    17    16    1
    87    18    19    2
