@<TRIPOS>MOLECULE
tmp/5b8iA01.pdb
 108 110 0 0 0
SMALL
GASTEIGER

@<TRIPOS>ATOM
      1  N         35.6840   40.0200   16.0900 N.3   111  ARG111     -0.1231
      2  CA        35.9300   39.7330   14.6680 C.3   111  ARG111      0.1694
      3  C         34.5790   39.5210   13.9840 C.2   111  ARG111      0.2593
      4  O         34.2270   40.2850   13.1160 O.2   111  ARG111     -0.2718
      5  CB        36.8180   38.5190   14.4230 C.3   111  ARG111      0.0321
      6  CG        38.0800   38.4390   15.3410 C.3   111  ARG111      0.0489
      7  CD        38.7870   39.7330   15.4740 C.3   111  ARG111      0.2205
      8  NE        39.4670   40.1770   14.2630 N.pl3 111  ARG111     -0.0865
      9  CZ        40.6650   39.7610   13.8470 C.cat 111  ARG111      0.5346
     10  NH1       41.1560   40.2650   12.7100 N.pl3 111  ARG111      0.1354
     11  NH2       41.3320   38.8210   14.5420 N.pl3 111  ARG111      0.1354
     12  N         33.8420   38.4910   14.3770 N.am  112  GLY112     -0.1942
     13  CA        32.4710   38.3250   13.8740 C.3   112  GLY112      0.2014
     14  C         31.5710   39.4700   14.3550 C.2   112  GLY112      0.2639
     15  O         31.6900   39.9110   15.4860 O.2   112  GLY112     -0.2714
     16  N         30.6500   39.9380   13.5080 N.am  113  TYR113     -0.1959
     17  CA        29.8130   41.1150   13.8790 C.3   113  TYR113      0.1771
     18  C         28.4880   40.7140   14.5000 C.2   113  TYR113      0.2619
     19  O         27.5640   41.5480   14.5550 O.2   113  TYR113     -0.2715
     20  CB        29.5140   41.9670   12.6670 C.3   113  TYR113      0.0574
     21  CG        30.5780   43.0230   12.3700 C.ar  113  TYR113     -0.0198
     22  CD1       31.8610   42.9540   12.9310 C.ar  113  TYR113     -0.0009
     23  CD2       30.2640   44.1090   11.5430 C.ar  113  TYR113     -0.0009
     24  CE1       32.8390   43.9510   12.6400 C.ar  113  TYR113      0.0417
     25  CE2       31.2050   45.1110   11.2450 C.ar  113  TYR113      0.0417
     26  CZ        32.4680   45.0540   11.8150 C.ar  113  TYR113      0.1957
     27  OH        33.3870   46.0420   11.5160 O.3   113  TYR113     -0.2866
     28  N         28.4140   39.4660   15.0080 N.am  114  PHE114     -0.1974
     29  CA        27.2260   38.9800   15.7720 C.3   114  PHE114      0.1639
     30  C         27.7030   38.4210   17.1220 C.2   114  PHE114      0.2290
     31  O         27.1840   37.4170   17.6310 O.2   114  PHE114     -0.2864
     32  CB        26.4730   37.9010   14.9470 C.3   114  PHE114      0.0560
     33  CG        26.3440   38.2560   13.4970 C.ar  114  PHE114     -0.0200
     34  CD1       25.3390   39.1890   13.0640 C.ar  114  PHE114     -0.0042
     35  CD2       27.1620   37.6370   12.5450 C.ar  114  PHE114     -0.0042
     36  CE1       25.2250   39.5690   11.7100 C.ar  114  PHE114     -0.0003
     37  CE2       27.0480   37.9770   11.1670 C.ar  114  PHE114     -0.0003
     38  CZ        26.1190   38.9350   10.7320 C.ar  114  PHE114     -0.0000
     39  N         39.6670   45.1880   19.2440 N.3   149  PHE149     -0.1227
     40  CA        38.8980   44.6270   18.1250 C.3   149  PHE149      0.1736
     41  C         37.5020   45.2480   18.0660 C.2   149  PHE149      0.2596
     42  O         37.4000   46.4700   17.9750 O.2   149  PHE149     -0.2718
     43  CB        38.8420   43.0930   18.2550 C.3   149  PHE149      0.0547
     44  CG        40.2000   42.4700   18.0270 C.ar  149  PHE149     -0.0202
     45  CD1       40.7600   42.4790   16.7580 C.ar  149  PHE149     -0.0042
     46  CD2       40.9400   41.9440   19.0930 C.ar  149  PHE149     -0.0042
     47  CE1       42.0550   41.9090   16.5330 C.ar  149  PHE149     -0.0003
     48  CE2       42.2210   41.3770   18.8680 C.ar  149  PHE149     -0.0003
     49  CZ        42.7680   41.3630   17.5970 C.ar  149  PHE149     -0.0000
     50  N         36.4460   44.4600   18.0370 N.am  150  THR150     -0.1953
     51  CA        35.1650   44.9750   17.5510 C.3   150  THR150      0.1897
     52  C         34.0160   44.9320   18.5690 C.2   150  THR150      0.2313
     53  O         32.9740   45.5700   18.3650 O.2   150  THR150     -0.2863
     54  CB        34.7230   44.1200   16.2470 C.3   150  THR150      0.1794
     55  OG1       34.5730   42.7800   16.6690 O.3   150  THR150     -0.2208
     56  CG2       35.8840   44.1130   15.2130 C.3   150  THR150      0.0378
     57  N         36.9720   34.8550    9.8820 N.3   301  LEU301     -0.1231
     58  CA        37.1300   36.2290    9.3910 C.3   301  LEU301      0.1693
     59  C         36.5540   36.4680    7.9880 C.2   301  LEU301      0.2592
     60  O         36.7600   37.5570    7.4150 O.2   301  LEU301     -0.2718
     61  CB        38.6170   36.6550    9.3910 C.3   301  LEU301      0.0284
     62  CG        39.3760   36.5830   10.7440 C.3   301  LEU301      0.0019
     63  CD1       40.7930   37.1680   10.6890 C.3   301  LEU301      0.0001
     64  CD2       38.5800   37.3360   11.7760 C.3   301  LEU301      0.0001
     65  N         35.8150   35.4890    7.4560 N.am  302  ASP302     -0.1974
     66  CA        35.3440   35.5170    6.0690 C.3   302  ASP302      0.1709
     67  C         36.5730   35.3150    5.1280 C.2   302  ASP302      0.2293
     68  O         36.4630   35.5350    3.9110 O.2   302  ASP302     -0.2864
     69  CB        34.5970   36.8300    5.6920 C.3   302  ASP302      0.1436
     70  CG        33.1850   36.9430    6.3550 C.2   302  ASP302      0.3671
     71  OD1       32.7020   35.9490    6.9100 O.co2 302  ASP302     -0.2456
     72  OD2       32.5450   38.0340    6.2950 O.co2 302  ASP302     -0.2456
     73  N         26.1710   34.5160    6.0890 N.3   328  HIS328     -0.1241
     74  CA        25.6100   35.3640    7.1210 C.3   328  HIS328      0.1621
     75  C         25.3260   36.7480    6.5200 C.2   328  HIS328      0.2264
     76  O         25.9140   37.0890    5.4780 O.2   328  HIS328     -0.2867
     77  CB        26.6000   35.4930    8.3190 C.3   328  HIS328      0.0745
     78  CG        27.9290   36.0440    7.9430 C.ar  328  HIS328      0.0817
     79  ND1       28.1240   37.4010    7.6750 N.ar  328  HIS328     -0.2268
     80  CD2       29.1350   35.4500    7.8010 C.ar  328  HIS328      0.1154
     81  CE1       29.4000   37.5970    7.3770 C.ar  328  HIS328      0.1986
     82  NE2       30.0340   36.4420    7.4470 N.ar  328  HIS328     -0.2212
     83  N         25.3520   40.7310    5.6670 N.3   330  TYR330     -0.1227
     84  CA        26.4320   41.6820    5.4690 C.3   330  TYR330      0.1736
     85  C         26.1840   42.9170    6.3710 C.2   330  TYR330      0.2595
     86  O         25.0410   43.3580    6.5460 O.2   330  TYR330     -0.2718
     87  CB        26.4800   42.1320    3.9660 C.3   330  TYR330      0.0548
     88  CG        27.6520   43.0660    3.7370 C.ar  330  TYR330     -0.0200
     89  CD1       28.9760   42.6130    3.9280 C.ar  330  TYR330     -0.0009
     90  CD2       27.4450   44.4120    3.3480 C.ar  330  TYR330     -0.0009
     91  CE1       30.0660   43.4740    3.7630 C.ar  330  TYR330      0.0417
     92  CE2       28.5530   45.2850    3.1620 C.ar  330  TYR330      0.0417
     93  CZ        29.8390   44.8080    3.3920 C.ar  330  TYR330      0.1957
     94  OH        30.8930   45.6820    3.2560 O.3   330  TYR330     -0.2866
     95  N         27.2740   43.4400    6.9150 N.am  331  TRP331     -0.1976
     96  CA        27.3210   44.7290    7.6320 C.3   331  TRP331      0.1640
     97  C         28.3820   45.5910    6.9690 C.2   331  TRP331      0.2290
     98  O         29.4510   45.0810    6.6320 O.2   331  TRP331     -0.2864
     99  CB        27.7550   44.5420    9.0760 C.3   331  TRP331      0.0576
    100  CG        26.6870   44.2370   10.0980 C.ar  331  TRP331      0.0006
    101  CD1       26.4190   43.0050   10.6920 C.ar  331  TRP331      0.0946
    102  CD2       25.8520   45.2050   10.7480 C.ar  331  TRP331      0.0152
    103  NE1       25.3950   43.1780   11.6550 N.ar  331  TRP331     -0.2442
    104  CE2       25.0650   44.5130   11.7200 C.ar  331  TRP331      0.0810
    105  CE3       25.6770   46.6100   10.5980 C.ar  331  TRP331      0.0012
    106  CZ2       24.1330   45.1750   12.5460 C.ar  331  TRP331      0.0191
    107  CZ3       24.7240   47.2610   11.4220 C.ar  331  TRP331      0.0001
    108  CH2       23.9640   46.5460   12.3770 C.ar  331  TRP331      0.0015
@<TRIPOS>BOND
     1    92    90   ar
     2    92    93   ar
     3    94    93    1
     4    90    88   ar
     5    93    91   ar
     6    88    89   ar
     7    88    87    1
     8    91    89   ar
     9    68    67    2
    10    87    84    1
    11    67    66    1
    12    84    83    1
    13    84    85    1
    14    76    75    2
    15    69    66    1
    16    69    70    1
    17    66    65    1
    18    73    74    1
    19    72    70   ar
    20    70    71   ar
    21    85    86    2
    22    85    95   am
    23    75    74    1
    24    98    97    2
    25    95    96    1
    26    97    96    1
    27    74    77    1
    28    81    82   ar
    29    81    79   ar
    30    60    59    2
    31    82    80   ar
    32    65    59   am
    33    96    99    1
    34    79    78   ar
    35    80    78   ar
    36    78    77    1
    37    59    58    1
    38    99   100    1
    39    61    58    1
    40    61    62    1
    41    58    57    1
    42   100   101   ar
    43   100   102   ar
    44   105   102   ar
    45   105   107   ar
    46    63    62    1
    47   101   103   ar
    48    38    37   ar
    49    38    36   ar
    50    62    64    1
    51   102   104   ar
    52    37    35   ar
    53    25    23   ar
    54    25    26   ar
    55   107   108   ar
    56    27    26    1
    57    23    21   ar
    58   103   104   ar
    59    36    34   ar
    60   104   106   ar
    61    26    24   ar
    62    21    20    1
    63    21    22   ar
    64   108   106   ar
    65    35    33   ar
    66    24    22   ar
    67    20    17    1
    68    10     9    1
    69    34    33   ar
    70     4     3    2
    71    33    32    1
    72    16    17    1
    73    16    14   am
    74     9     8    2
    75     9    11    1
    76    13    14    1
    77    13    12    1
    78    17    18    1
    79     3    12   am
    80     3     2    1
    81     8     7    1
    82    14    15    2
    83     5     2    1
    84     5     6    1
    85    18    19    2
    86    18    28   am
    87     2     1    1
    88    32    29    1
    89    28    29    1
    90    56    54    1
    91     6     7    1
    92    29    30    1
    93    54    55    1
    94    54    51    1
    95    47    45   ar
    96    47    49   ar
    97    45    44   ar
    98    30    31    2
    99    51    50    1
   100    51    52    1
   101    49    48   ar
   102    42    41    2
   103    44    43    1
   104    44    46   ar
   105    50    41   am
   106    41    40    1
   107    40    43    1
   108    40    39    1
   109    53    52    2
   110    48    46   ar
