@<TRIPOS>MOLECULE
tmp/5b8iA00.pdb
 146 142 0 0 0
SMALL
GASTEIGER

@<TRIPOS>ATOM
      1  N         36.8460   28.0590   19.4320 N.3    79  ASP79      -0.1239
      2  CA        36.4730   29.5040   19.2790 C.3    79  ASP79       0.1674
      3  C         35.2430   29.7030   18.4110 C.2    79  ASP79       0.2266
      4  O         35.0810   28.9880   17.4350 O.2    79  ASP79      -0.2867
      5  CB        37.6040   30.2830   18.5840 C.3    79  ASP79       0.1410
      6  CG        38.9330   30.2230   19.2980 C.2    79  ASP79       0.3668
      7  OD1       39.2130   29.3360   20.1030 O.co2  79  ASP79      -0.2456
      8  OD2       39.7400   31.1430   19.0150 O.co2  79  ASP79      -0.2456
      9  N         33.9820   33.4060   18.0440 N.3    81  HIS81      -0.1241
     10  CA        34.3000   34.7320   17.4860 C.3    81  HIS81       0.1621
     11  C         33.1190   35.3810   16.7550 C.2    81  HIS81       0.2264
     12  O         33.2580   35.9200   15.6260 O.2    81  HIS81      -0.2867
     13  CB        35.5530   34.6820   16.5600 C.3    81  HIS81       0.0745
     14  CG        36.8360   34.5990   17.3370 C.ar   81  HIS81       0.0817
     15  ND1       37.1590   35.5220   18.3210 N.ar   81  HIS81      -0.2268
     16  CD2       37.8680   33.7200   17.2920 C.ar   81  HIS81       0.1154
     17  CE1       38.3430   35.2200   18.8400 C.ar   81  HIS81       0.1986
     18  NE2       38.7910   34.1220   18.2370 N.ar   81  HIS81      -0.2212
     19  N         36.4730   32.5800   23.7110 N.3   107  ASP107     -0.1239
     20  CA        36.5270   33.3780   22.4540 C.3   107  ASP107      0.1674
     21  C         35.1820   33.3220   21.7740 C.2   107  ASP107      0.2266
     22  O         35.0460   32.9250   20.5920 O.2   107  ASP107     -0.2867
     23  CB        37.6740   32.9030   21.5050 C.3   107  ASP107      0.1410
     24  CG        39.0370   33.4880   21.9290 C.2   107  ASP107      0.3668
     25  OD1       39.1190   34.1160   23.0230 O.co2 107  ASP107     -0.2456
     26  OD2       40.0000   33.3680   21.1460 O.co2 107  ASP107     -0.2456
     27  N         35.6840   40.0200   16.0900 N.3   111  ARG111     -0.1245
     28  CA        35.9300   39.7330   14.6680 C.3   111  ARG111      0.1563
     29  C         34.5790   39.5210   13.9840 C.2   111  ARG111      0.2260
     30  O         34.2270   40.2850   13.1160 O.2   111  ARG111     -0.2867
     31  CB        36.8180   38.5190   14.4230 C.3   111  ARG111      0.0307
     32  CG        38.0800   38.4390   15.3410 C.3   111  ARG111      0.0489
     33  CD        38.7870   39.7330   15.4740 C.3   111  ARG111      0.2205
     34  NE        39.4670   40.1770   14.2630 N.pl3 111  ARG111     -0.0865
     35  CZ        40.6650   39.7610   13.8470 C.cat 111  ARG111      0.5346
     36  NH1       41.1560   40.2650   12.7100 N.pl3 111  ARG111      0.1354
     37  NH2       41.3320   38.8210   14.5420 N.pl3 111  ARG111      0.1354
     38  N         40.8790   34.2920   25.7700 N.3   139  ASN139     -0.1225
     39  CA        41.6600   35.5260   25.9050 C.3   139  ASN139      0.1785
     40  C         40.8560   36.7390   25.4050 C.2   139  ASN139      0.2597
     41  O         41.1520   37.8870   25.8410 O.2   139  ASN139     -0.2718
     42  CB        43.0310   35.4450   25.1820 C.3   139  ASN139      0.1169
     43  CG        42.9460   35.1080   23.6930 C.2   139  ASN139      0.2627
     44  OD1       42.2790   34.2000   23.3170 O.2   139  ASN139     -0.2716
     45  ND2       43.6670   35.8710   22.8320 N.am  139  ASN139     -0.0877
     46  N         39.8570   36.5280   24.5240 N.am  140  HIS140     -0.1975
     47  CA        39.0460   37.6960   24.0610 C.3   140  HIS140      0.1656
     48  C         38.0010   38.1460   25.0410 C.2   140  HIS140      0.2291
     49  O         37.4470   39.2480   24.8670 O.2   140  HIS140     -0.2864
     50  CB        38.3470   37.4200   22.6950 C.3   140  HIS140      0.0771
     51  CG        39.3120   37.5390   21.5570 C.ar  140  HIS140      0.0820
     52  ND1       39.3400   38.6470   20.7370 N.ar  140  HIS140     -0.2267
     53  CD2       40.3640   36.7610   21.1930 C.ar  140  HIS140      0.1154
     54  CE1       40.3320   38.5250   19.8670 C.ar  140  HIS140      0.1986
     55  NE2       40.9710   37.3770   20.1140 N.ar  140  HIS140     -0.2212
     56  N         41.0620   43.3580   24.7930 N.3   145  LEU145     -0.1245
     57  CA        40.8800   42.8670   23.4210 C.3   145  LEU145      0.1561
     58  C         39.5520   43.3020   22.7830 C.2   145  LEU145      0.2260
     59  O         39.5090   43.6350   21.5880 O.2   145  LEU145     -0.2867
     60  CB        40.9390   41.3100   23.3620 C.3   145  LEU145      0.0270
     61  CG        42.3920   40.8680   23.0780 C.3   145  LEU145      0.0019
     62  CD1       43.3580   41.3040   24.1710 C.3   145  LEU145      0.0001
     63  CD2       42.4500   39.3130   22.8620 C.3   145  LEU145      0.0001
     64  N         39.6670   45.1880   19.2440 N.3   149  PHE149     -0.1241
     65  CA        38.8980   44.6270   18.1250 C.3   149  PHE149      0.1605
     66  C         37.5020   45.2480   18.0660 C.2   149  PHE149      0.2264
     67  O         37.4000   46.4700   17.9750 O.2   149  PHE149     -0.2867
     68  CB        38.8420   43.0930   18.2550 C.3   149  PHE149      0.0534
     69  CG        40.2000   42.4700   18.0270 C.ar  149  PHE149     -0.0203
     70  CD1       40.7600   42.4790   16.7580 C.ar  149  PHE149     -0.0042
     71  CD2       40.9400   41.9440   19.0930 C.ar  149  PHE149     -0.0042
     72  CE1       42.0550   41.9090   16.5330 C.ar  149  PHE149     -0.0003
     73  CE2       42.2210   41.3770   18.8680 C.ar  149  PHE149     -0.0003
     74  CZ        42.7680   41.3630   17.5970 C.ar  149  PHE149     -0.0000
     75  N         46.3910   32.2560   26.9590 N.3   221  TRP221     -0.1241
     76  CA        47.1890   32.7590   25.8500 C.3   221  TRP221      0.1605
     77  C         48.2140   31.7590   25.2850 C.2   221  TRP221      0.2264
     78  O         48.7010   31.9570   24.1520 O.2   221  TRP221     -0.2867
     79  CB        47.9710   34.0090   26.3160 C.3   221  TRP221      0.0550
     80  CG        47.1160   35.2890   26.2690 C.ar  221  TRP221      0.0003
     81  CD1       46.3580   35.8190   27.2870 C.ar  221  TRP221      0.0946
     82  CD2       46.9180   36.1430   25.1310 C.ar  221  TRP221      0.0152
     83  NE1       45.6990   36.9830   26.8400 N.ar  221  TRP221     -0.2442
     84  CE2       46.0160   37.1860   25.5270 C.ar  221  TRP221      0.0810
     85  CE3       47.3970   36.1230   23.8120 C.ar  221  TRP221      0.0012
     86  CZ2       45.6460   38.2320   24.6630 C.ar  221  TRP221      0.0191
     87  CZ3       46.9950   37.1790   22.9160 C.ar  221  TRP221      0.0001
     88  CH2       46.1250   38.1940   23.3500 C.ar  221  TRP221      0.0015
     89  N         52.4420   35.7750   19.9900 N.3   243  ARG243     -0.1245
     90  CA        51.4180   36.4910   20.7320 C.3   243  ARG243      0.1563
     91  C         51.9540   37.7760   21.3420 C.2   243  ARG243      0.2260
     92  O         51.1650   38.6420   21.6550 O.2   243  ARG243     -0.2867
     93  CB        50.8530   35.6520   21.8520 C.3   243  ARG243      0.0307
     94  CG        50.2970   34.2610   21.4350 C.3   243  ARG243      0.0489
     95  CD        49.0420   34.3730   20.6570 C.3   243  ARG243      0.2205
     96  NE        48.5350   33.0220   20.3600 N.pl3 243  ARG243     -0.0865
     97  CZ        47.4000   32.8190   19.6960 C.cat 243  ARG243      0.5346
     98  NH1       46.6980   33.8790   19.2860 N.pl3 243  ARG243      0.1354
     99  NH2       46.9730   31.5830   19.4340 N.pl3 243  ARG243      0.1354
    100  N         42.0120   28.2720   20.5820 N.3   270  HIS270     -0.1226
    101  CA        42.8950   29.4630   20.4990 C.3   270  HIS270      0.1752
    102  C         43.7160   29.5580   19.1860 C.2   270  HIS270      0.2596
    103  O         44.1840   30.6570   18.8680 O.2   270  HIS270     -0.2718
    104  CB        43.8080   29.4620   21.7820 C.3   270  HIS270      0.0759
    105  CG        44.7090   30.6410   22.0020 C.ar  270  HIS270      0.0818
    106  ND1       44.3170   31.9620   21.8910 N.ar  270  HIS270     -0.2268
    107  CD2       46.0100   30.6770   22.4330 C.ar  270  HIS270      0.1154
    108  CE1       45.3040   32.7620   22.2800 C.ar  270  HIS270      0.1986
    109  NE2       46.3660   32.0070   22.5770 N.ar  270  HIS270     -0.2212
    110  N         43.9530   28.4590   18.4550 N.am  271  GLU271     -0.1965
    111  CA        44.6760   28.6070   17.1690 C.3   271  GLU271      0.1733
    112  C         43.8070   28.0670   16.0450 C.2   271  GLU271      0.2616
    113  O         43.3760   26.9240   16.1090 O.2   271  GLU271     -0.2715
    114  CB        46.0280   27.8400   17.1850 C.3   271  GLU271      0.0429
    115  CG        47.0820   28.5620   17.9770 C.3   271  GLU271      0.1163
    116  CD        48.3820   27.7490   18.0440 C.2   271  GLU271      0.3649
    117  OE1       48.3420   26.6170   18.5970 O.co2 271  GLU271     -0.2457
    118  OE2       49.4170   28.2580   17.5390 O.co2 271  GLU271     -0.2457
    119  N         43.6100   28.8840   14.9960 N.am  272  ALA272     -0.1977
    120  CA        42.7860   28.4410   13.8750 C.3   272  ALA272      0.1597
    121  C         43.3940   27.2130   13.1940 C.2   272  ALA272      0.2287
    122  O         44.6330   27.0970   13.0690 O.2   272  ALA272     -0.2864
    123  CB        42.5930   29.5980   12.8560 C.3   272  ALA272      0.0319
    124  N         38.7100   24.0650   17.0710 N.3   295  PHE295     -0.1241
    125  CA        38.5000   25.4430   16.6110 C.3   295  PHE295      0.1605
    126  C         37.1650   25.4910   15.8790 C.2   295  PHE295      0.2264
    127  O         36.9990   24.7880   14.8820 O.2   295  PHE295     -0.2867
    128  CB        39.6300   25.8770   15.6950 C.3   295  PHE295      0.0534
    129  CG        39.5980   27.3150   15.3750 C.ar  295  PHE295     -0.0203
    130  CD1       40.0910   28.2650   16.2750 C.ar  295  PHE295     -0.0042
    131  CD2       39.0930   27.7270   14.1420 C.ar  295  PHE295     -0.0042
    132  CE1       40.0530   29.6410   15.9460 C.ar  295  PHE295     -0.0003
    133  CE2       39.0880   29.1060   13.7990 C.ar  295  PHE295     -0.0003
    134  CZ        39.5310   30.0470   14.7150 C.ar  295  PHE295     -0.0000
    135  N         37.0230   31.4540    8.9470 N.3   300  TYR300     -0.1241
    136  CA        37.2590   32.4220   10.0140 C.3   300  TYR300      0.1605
    137  C         37.6060   33.7900    9.3870 C.2   300  TYR300      0.2264
    138  O         38.3790   33.8480    8.4320 O.2   300  TYR300     -0.2867
    139  CB        38.3660   31.8290   10.8920 C.3   300  TYR300      0.0534
    140  CG        38.9240   32.7260   11.9380 C.ar  300  TYR300     -0.0201
    141  CD1       38.0860   33.3720   12.8590 C.ar  300  TYR300     -0.0009
    142  CD2       40.3010   32.9100   12.0410 C.ar  300  TYR300     -0.0009
    143  CE1       38.6280   34.2640   13.8300 C.ar  300  TYR300      0.0417
    144  CE2       40.8540   33.7870   13.0180 C.ar  300  TYR300      0.0417
    145  CZ        39.9980   34.4120   13.9280 C.ar  300  TYR300      0.1957
    146  OH        40.5170   35.2680   14.8880 O.3   300  TYR300     -0.2866
@<TRIPOS>BOND
     1   138   137    2
     2   135   136    1
     3   137   136    1
     4   136   139    1
     5   139   140    1
     6   140   142   ar
     7   140   141   ar
     8   142   144   ar
     9    36    35    1
    10   123   120    1
    11   141   143   ar
    12   144   145   ar
    13   122   121    2
    14    30    29    2
    15   121   120    1
    16   133   131   ar
    17   133   134   ar
    18   143   145   ar
    19    35    34    2
    20    35    37    1
    21   120   119    1
    22   145   146    1
    23    29    28    1
    24   131   129   ar
    25    34    33    1
    26    31    28    1
    27    31    32    1
    28    28    27    1
    29   134   132   ar
    30   127   126    2
    31   119   112   am
    32    32    33    1
    33   129   128    1
    34   129   130   ar
    35    12    11    2
    36   128   125    1
    37   126   125    1
    38   132   130   ar
    39   112   113    2
    40   112   111    1
    41    72    70   ar
    42    72    74   ar
    43    13    14    1
    44    13    10    1
    45   125   124    1
    46    11    10    1
    47    70    69   ar
    48   111   114    1
    49   111   110    1
    50   114   115    1
    51    16    14   ar
    52    16    18   ar
    53    14    15   ar
    54     4     3    2
    55    10     9    1
    56   118   116   ar
    57    74    73   ar
    58    67    66    2
    59   115   116    1
    60    69    68    1
    61    69    71   ar
    62   116   117   ar
    63    66    65    1
    64    65    68    1
    65    65    64    1
    66    18    17   ar
    67    15    17   ar
    68     3     2    1
    69   110   102   am
    70     5     2    1
    71     5     6    1
    72   103   102    2
    73    73    71   ar
    74     8     6   ar
    75   102   101    1
    76     2     1    1
    77    98    97    1
    78     6     7   ar
    79    99    97    1
    80    97    96    2
    81    54    55   ar
    82    54    52   ar
    83    89    90    1
    84    55    53   ar
    85    96    95    1
    86   101   100    1
    87   101   104    1
    88    22    21    2
    89    95    94    1
    90    90    91    1
    91    90    93    1
    92    52    51   ar
    93    26    24   ar
    94    53    51   ar
    95    91    92    2
    96    94    93    1
    97    23    24    1
    98    23    20    1
    99    51    50    1
   100    59    58    2
   101    21    20    1
   102   104   105    1
   103   106   105   ar
   104   106   108   ar
   105    24    25   ar
   106   105   107   ar
   107   108   109   ar
   108   107   109   ar
   109    20    19    1
   110    50    47    1
   111    58    57    1
   112    45    43   am
   113    63    61    1
   114    87    88   ar
   115    87    85   ar
   116    61    60    1
   117    61    62    1
   118    44    43    2
   119    88    86   ar
   120    60    57    1
   121    57    56    1
   122    43    42    1
   123    85    82   ar
   124    47    46    1
   125    47    48    1
   126    78    77    2
   127    46    40   am
   128    86    84   ar
   129    49    48    2
   130    82    84   ar
   131    82    80   ar
   132    42    39    1
   133    77    76    1
   134    40    41    2
   135    40    39    1
   136    84    83   ar
   137    38    39    1
   138    76    79    1
   139    76    75    1
   140    80    79    1
   141    80    81   ar
   142    83    81   ar
