@<TRIPOS>MOLECULE
tmp/5b8iC00.pdb
 171 168 0 0 0
SMALL
GASTEIGER

@<TRIPOS>ATOM
      1  N         41.4210   43.9360   -1.8500 N.3    26  TYR26      -0.1241
      2  CA        42.2320   44.6890   -0.9210 C.3    26  TYR26       0.1605
      3  C         41.8440   44.4150    0.5170 C.2    26  TYR26       0.2264
      4  O         40.7580   43.9480    0.8180 O.2    26  TYR26      -0.2867
      5  CB        42.1520   46.1930   -1.1520 C.3    26  TYR26       0.0534
      6  CG        40.8080   46.8220   -0.8150 C.ar   26  TYR26      -0.0201
      7  CD1       40.4840   47.1940    0.5000 C.ar   26  TYR26      -0.0009
      8  CD2       39.8650   47.0610   -1.8100 C.ar   26  TYR26      -0.0009
      9  CE1       39.2220   47.7560    0.8140 C.ar   26  TYR26       0.0417
     10  CE2       38.6190   47.6310   -1.5120 C.ar   26  TYR26       0.0417
     11  CZ        38.3170   47.9850   -0.2130 C.ar   26  TYR26       0.1957
     12  OH        37.0970   48.5540    0.0770 O.3    26  TYR26      -0.2866
     13  N         40.2280   48.1420    8.6190 N.3    45  PHE45      -0.1227
     14  CA        38.9530   48.8770    8.6050 C.3    45  PHE45       0.1736
     15  C         38.0280   48.3670    7.4800 C.2    45  PHE45       0.2595
     16  O         36.8110   48.5930    7.5430 O.2    45  PHE45      -0.2718
     17  CB        39.1380   50.4000    8.4940 C.3    45  PHE45       0.0547
     18  CG        39.9810   50.8270    7.3540 C.ar   45  PHE45      -0.0202
     19  CD1       39.4450   50.9450    6.0520 C.ar   45  PHE45      -0.0042
     20  CD2       41.3290   51.1050    7.5540 C.ar   45  PHE45      -0.0042
     21  CE1       40.2730   51.3360    4.9880 C.ar   45  PHE45      -0.0003
     22  CE2       42.1530   51.5160    6.4990 C.ar   45  PHE45      -0.0003
     23  CZ        41.6280   51.6010    5.2010 C.ar   45  PHE45      -0.0000
     24  N         38.5780   47.6230    6.5090 N.am   46  ASP46      -0.1974
     25  CA        37.7600   47.1030    5.4100 C.3    46  ASP46       0.1709
     26  C         38.5590   46.1120    4.6050 C.2    46  ASP46       0.2293
     27  O         39.7930   46.1070    4.6330 O.2    46  ASP46      -0.2864
     28  CB        37.2990   48.2440    4.4800 C.3    46  ASP46       0.1436
     29  CG        36.1770   47.8310    3.4890 C.2    46  ASP46       0.3671
     30  OD1       35.4500   46.8380    3.7090 O.co2  46  ASP46      -0.2456
     31  OD2       36.0160   48.5370    2.4670 O.co2  46  ASP46      -0.2456
     32  N         33.0860   40.9020    1.3270 N.3    51  ARG51      -0.1245
     33  CA        32.0640   41.5750    0.5210 C.3    51  ARG51       0.1563
     34  C         32.0870   41.1170   -0.9420 C.2    51  ARG51       0.2260
     35  O         31.1030   40.5770   -1.4220 O.2    51  ARG51      -0.2867
     36  CB        32.2170   43.1340    0.5970 C.3    51  ARG51       0.0307
     37  CG        31.1820   43.8740   -0.2580 C.3    51  ARG51       0.0489
     38  CD        31.3530   45.4240   -0.1440 C.3    51  ARG51       0.2205
     39  NE        32.7200   45.7720   -0.5240 N.pl3  51  ARG51      -0.0865
     40  CZ        33.6930   46.1460    0.3090 C.cat  51  ARG51       0.5346
     41  NH1       33.5130   46.2500    1.6290 N.pl3  51  ARG51       0.1354
     42  NH2       34.8600   46.4440   -0.2040 N.pl3  51  ARG51       0.1354
     43  N         36.4680   44.6450   -5.6210 N.3    54  PHE54      -0.1227
     44  CA        36.2280   46.0910   -5.7530 C.3    54  PHE54       0.1736
     45  C         36.4060   46.6170   -7.1970 C.2    54  PHE54       0.2595
     46  O         37.4080   46.3140   -7.8920 O.2    54  PHE54      -0.2718
     47  CB        37.1530   46.8530   -4.8240 C.3    54  PHE54       0.0547
     48  CG        37.1050   48.3290   -5.0280 C.ar   54  PHE54      -0.0202
     49  CD1       35.9620   49.0540   -4.7070 C.ar   54  PHE54      -0.0042
     50  CD2       38.1850   48.9780   -5.5890 C.ar   54  PHE54      -0.0042
     51  CE1       35.9250   50.4820   -4.9040 C.ar   54  PHE54      -0.0003
     52  CE2       38.1660   50.3960   -5.7800 C.ar   54  PHE54      -0.0003
     53  CZ        37.0310   51.1240   -5.4500 C.ar   54  PHE54      -0.0000
     54  N         35.4470   47.4110   -7.6490 N.am   55  LYS55      -0.1966
     55  CA        35.4480   47.9210   -9.0320 C.3    55  LYS55       0.1728
     56  C         35.3600   49.4380   -9.0500 C.2    55  LYS55       0.2616
     57  O         34.5050   49.9950   -8.3740 O.2    55  LYS55      -0.2715
     58  CB        34.2540   47.3780   -9.8170 C.3    55  LYS55       0.0311
     59  CG        34.1950   45.8560   -9.9190 C.3    55  LYS55       0.0038
     60  CD        32.9110   45.4730   -9.2110 C.3    55  LYS55       0.0206
     61  CE        32.9060   44.0460   -8.7010 C.3    55  LYS55       0.1093
     62  NZ        32.2380   43.1680   -9.6850 N.3    55  LYS55      -0.1314
     63  N         36.1880   50.0760   -9.8630 N.am   56  THR56      -0.1951
     64  CA        36.0800   51.5320  -10.0170 C.3    56  THR56       0.1897
     65  C         36.7730   51.9170  -11.3230 C.2    56  THR56       0.2313
     66  O         37.6170   51.1560  -11.8180 O.2    56  THR56      -0.2863
     67  CB        36.7400   52.2940   -8.8380 C.3    56  THR56       0.1794
     68  OG1       36.4980   53.6990   -8.9790 O.3    56  THR56      -0.2208
     69  CG2       38.2420   52.0370   -8.8270 C.3    56  THR56       0.0378
     70  N         37.9690   59.5760   -8.6780 N.3    62  VAL62      -0.1231
     71  CA        36.7820   59.1840   -7.8720 C.3    62  VAL62       0.1692
     72  C         37.1550   58.2670   -6.6770 C.2    62  VAL62       0.2592
     73  O         36.3000   57.9230   -5.8380 O.2    62  VAL62      -0.2718
     74  CB        35.6960   58.5240   -8.7580 C.3    62  VAL62       0.0266
     75  CG1       35.2090   59.5150   -9.8250 C.3    62  VAL62       0.0020
     76  CG2       36.1590   57.1230   -9.3710 C.3    62  VAL62       0.0020
     77  N         38.4340   57.9100   -6.5980 N.am   63  VAL63      -0.1966
     78  CA        38.9860   57.2680   -5.3950 C.3    63  VAL63       0.1727
     79  C         40.0910   58.1880   -4.8220 C.2    63  VAL63       0.2616
     80  O         40.5040   59.1850   -5.4590 O.2    63  VAL63      -0.2715
     81  CB        39.5210   55.8710   -5.6670 C.3    63  VAL63       0.0290
     82  CG1       38.3720   54.9140   -6.0720 C.3    63  VAL63       0.0023
     83  CG2       40.6680   55.8920   -6.7330 C.3    63  VAL63       0.0023
     84  N         40.5780   57.8380   -3.6470 N.am   64  ILE64      -0.1977
     85  CA        41.5970   58.6690   -2.9860 C.3    64  ILE64       0.1596
     86  C         42.8870   58.7670   -3.8240 C.2    64  ILE64       0.2287
     87  O         43.2270   57.8520   -4.6040 O.2    64  ILE64      -0.2864
     88  CB        41.9020   58.1400   -1.5590 C.3    64  ILE64       0.0276
     89  CG1       42.2370   56.6370   -1.5720 C.3    64  ILE64       0.0022
     90  CG2       40.6800   58.4780   -0.5900 C.3    64  ILE64       0.0022
     91  CD1       42.8730   56.1430   -0.2470 C.3    64  ILE64       0.0001
     92  N         45.4470   55.9310   -4.2310 N.3    67  TRP67      -0.1241
     93  CA        45.0760   54.8280   -5.1270 C.3    67  TRP67       0.1605
     94  C         45.1710   55.2470   -6.6040 C.2    67  TRP67       0.2264
     95  O         45.7860   54.5660   -7.4300 O.2    67  TRP67      -0.2867
     96  CB        43.6700   54.3460   -4.8380 C.3    67  TRP67       0.0550
     97  CG        43.5820   53.2450   -3.8410 C.ar   67  TRP67       0.0003
     98  CD1       43.9640   53.2880   -2.5360 C.ar   67  TRP67       0.0946
     99  CD2       43.0330   51.9540   -4.0630 C.ar   67  TRP67       0.0152
    100  NE1       43.6630   52.1030   -1.9160 N.ar   67  TRP67      -0.2442
    101  CE2       43.0670   51.2690   -2.8250 C.ar   67  TRP67       0.0810
    102  CE3       42.4680   51.3250   -5.1830 C.ar   67  TRP67       0.0012
    103  CZ2       42.5940   49.9720   -2.6740 C.ar   67  TRP67       0.0191
    104  CZ3       41.9880   50.0670   -5.0380 C.ar   67  TRP67       0.0001
    105  CH2       42.0350   49.3940   -3.7780 C.ar   67  TRP67       0.0015
    106  N         44.8220   60.5640    1.2550 N.3    89  ALA89      -0.1231
    107  CA        43.6660   59.7440    1.6090 C.3    89  ALA89       0.1694
    108  C         42.5460   60.6610    2.0870 C.2    89  ALA89       0.2592
    109  O         42.0830   61.4920    1.3000 O.2    89  ALA89      -0.2718
    110  CB        44.0470   58.7160    2.6700 C.3    89  ALA89       0.0304
    111  N         42.1410   60.5510    3.3670 N.am   90  TYR90      -0.1976
    112  CA        40.9700   61.3000    3.8700 C.3    90  TYR90       0.1639
    113  C         41.2880   62.5290    4.7140 C.2    90  TYR90       0.2290
    114  O         40.3700   63.1390    5.2800 O.2    90  TYR90      -0.2864
    115  CB        40.0330   60.3660    4.6810 C.3    90  TYR90       0.0560
    116  CG        39.5780   59.2130    3.7990 C.ar   90  TYR90      -0.0198
    117  CD1       38.5490   59.4010    2.8560 C.ar   90  TYR90      -0.0009
    118  CD2       40.2190   57.9860    3.8480 C.ar   90  TYR90      -0.0009
    119  CE1       38.1740   58.3620    1.9860 C.ar   90  TYR90       0.0417
    120  CE2       39.8070   56.9030    3.0110 C.ar   90  TYR90       0.0417
    121  CZ        38.7940   57.1410    2.0590 C.ar   90  TYR90       0.1957
    122  OH        38.3890   56.1230    1.1920 O.3    90  TYR90      -0.2866
    123  N         39.4710   65.6120    7.5350 N.3    93  ARG93      -0.1245
    124  CA        38.0800   65.2780    7.7260 C.3    93  ARG93       0.1563
    125  C         37.9690   63.8100    8.1650 C.2    93  ARG93       0.2260
    126  O         37.0780   63.4620    8.9380 O.2    93  ARG93      -0.2867
    127  CB        37.2810   65.5730    6.4400 C.3    93  ARG93       0.0307
    128  CG        35.7600   65.3630    6.5240 C.3    93  ARG93       0.0489
    129  CD        35.0660   65.8970    5.2610 C.3    93  ARG93       0.2205
    130  NE        33.7560   65.2760    5.0510 N.pl3  93  ARG93      -0.0865
    131  CZ        32.8510   65.6850    4.1560 C.cat  93  ARG93       0.5346
    132  NH1       33.1130   66.7420    3.3890 N.pl3  93  ARG93       0.1354
    133  NH2       31.6780   65.0460    4.0390 N.pl3  93  ARG93       0.1354
    134  N         37.0260   59.8380    7.7480 N.3    95  PHE95      -0.1241
    135  CA        35.7300   59.2880    7.3330 C.3    95  PHE95       0.1605
    136  C         34.9540   58.9250    8.5940 C.2    95  PHE95       0.2264
    137  O         35.3610   58.0020    9.2970 O.2    95  PHE95      -0.2867
    138  CB        35.9140   58.0390    6.4260 C.3    95  PHE95       0.0534
    139  CG        34.7010   57.7770    5.5760 C.ar   95  PHE95      -0.0203
    140  CD1       33.5340   57.2870    6.1640 C.ar   95  PHE95      -0.0042
    141  CD2       34.7000   58.0830    4.2160 C.ar   95  PHE95      -0.0042
    142  CE1       32.3750   57.0530    5.3970 C.ar   95  PHE95      -0.0003
    143  CE2       33.5700   57.8460    3.4290 C.ar   95  PHE95      -0.0003
    144  CZ        32.3890   57.2920    4.0240 C.ar   95  PHE95      -0.0000
    145  N         34.9240   55.6020   10.9590 N.3    98  LEU98      -0.1231
    146  CA        35.7210   54.5680   10.3410 C.3    98  LEU98       0.1693
    147  C         37.2010   54.9700   10.2120 C.2    98  LEU98       0.2591
    148  O         38.0690   54.2040   10.5960 O.2    98  LEU98      -0.2718
    149  CB        35.0930   54.2030    8.9740 C.3    98  LEU98       0.0284
    150  CG        35.7480   53.0390    8.2620 C.3    98  LEU98       0.0019
    151  CD1       35.7090   51.7780    9.0940 C.3    98  LEU98       0.0001
    152  CD2       35.0590   52.8310    6.8890 C.3    98  LEU98       0.0001
    153  N         37.4770   56.1610    9.6690 N.am   99  ILE99      -0.1980
    154  CA        38.8400   56.6400    9.5020 C.3    99  ILE99       0.1595
    155  C         39.0390   57.9070   10.3150 C.2    99  ILE99       0.2287
    156  O         38.4220   58.9490   10.0070 O.2    99  ILE99      -0.2864
    157  CB        39.1660   56.9240    8.0200 C.3    99  ILE99       0.0276
    158  CG1       38.8100   55.7310    7.1090 C.3    99  ILE99       0.0022
    159  CG2       40.6590   57.3860    7.8780 C.3    99  ILE99       0.0022
    160  CD1       39.6750   54.4770    7.3170 C.3    99  ILE99       0.0001
    161  N         47.2110   49.7130    2.6480 N.3   107  PHE107     -0.1241
    162  CA        46.4420   48.7280    1.9110 C.3   107  PHE107      0.1605
    163  C         47.3080   47.5930    1.3760 C.2   107  PHE107      0.2264
    164  O         48.3070   47.8540    0.7130 O.2   107  PHE107     -0.2867
    165  CB        45.7340   49.3570    0.7060 C.3   107  PHE107      0.0534
    166  CG        44.5880   50.3140    1.0720 C.ar  107  PHE107     -0.0203
    167  CD1       44.8480   51.6540    1.3450 C.ar  107  PHE107     -0.0042
    168  CD2       43.2780   49.8720    1.0770 C.ar  107  PHE107     -0.0042
    169  CE1       43.7830   52.5570    1.6510 C.ar  107  PHE107     -0.0003
    170  CE2       42.2140   50.7760    1.3850 C.ar  107  PHE107     -0.0003
    171  CZ        42.4880   52.0940    1.6770 C.ar  107  PHE107     -0.0000
@<TRIPOS>BOND
     1    66    65    2
     2    65    64    1
     3    64    63    1
     4    64    67    1
     5    59    58    1
     6    59    60    1
     7    63    56   am
     8    75    74    1
     9    58    55    1
    10    62    61    1
    11    76    74    1
    12    60    61    1
    13    56    55    1
    14    56    57    2
    15    55    54    1
    16    68    67    1
    17    67    69    1
    18    74    71    1
    19    70    71    1
    20    46    45    2
    21    71    72    1
    22    54    45   am
    23    95    94    2
    24    45    44    1
    25    83    81    1
    26    72    77   am
    27    72    73    2
    28    94    93    1
    29    77    78    1
    30    82    81    1
    31    52    50   ar
    32    52    53   ar
    33    44    43    1
    34    44    47    1
    35    81    78    1
    36    50    48   ar
    37    80    79    2
    38    53    51   ar
    39    78    79    1
    40   102   104   ar
    41   102    99   ar
    42    93    96    1
    43    93    92    1
    44   104   105   ar
    45    48    47    1
    46    48    49   ar
    47    51    49   ar
    48    96    97    1
    49    79    84   am
    50    87    86    2
    51    99    97   ar
    52    99   101   ar
    53    97    98   ar
    54    86    85    1
    55   105   103   ar
    56    84    85    1
    57    85    88    1
    58   101   103   ar
    59   101   100   ar
    60    98   100   ar
    61     1     2    1
    62     8    10   ar
    63     8     6   ar
    64    89    88    1
    65    89    91    1
    66    88    90    1
    67    10    11   ar
    68    35    34    2
    69     5     2    1
    70     5     6    1
    71    34    33    1
    72     2     3    1
    73     6     7   ar
    74    39    38    1
    75    39    40    2
    76    37    38    1
    77    37    36    1
    78    11    12    1
    79    11     9   ar
    80    42    40    1
    81    40    41    1
    82     7     9   ar
    83     3     4    2
    84    33    36    1
    85    33    32    1
    86   165   166    1
    87   165   162    1
    88   164   163    2
    89   166   168   ar
    90   166   167   ar
    91   168   170   ar
    92   122   121    1
    93   106   107    1
    94   109   108    2
    95   167   169   ar
    96   163   162    1
    97   170   171   ar
    98   107   108    1
    99   107   110    1
   100   169   171   ar
   101   162   161    1
   102   119   121   ar
   103   119   117   ar
   104   121   120   ar
   105   108   111   am
   106    31    29   ar
   107   117   116   ar
   108   120   118   ar
   109   111   112    1
   110   132   131    1
   111   143   144   ar
   112   143   141   ar
   113    29    30   ar
   114    29    28    1
   115   116   118   ar
   116   116   115    1
   117   112   115    1
   118   112   113    1
   119   144   142   ar
   120   133   131    1
   121   131   130    2
   122   141   139   ar
   123    28    25    1
   124    26    27    2
   125    26    25    1
   126   113   114    2
   127    21    23   ar
   128    21    19   ar
   129   130   129    1
   130    23    22   ar
   131   129   128    1
   132   142   140   ar
   133    25    24    1
   134   139   140   ar
   135   139   138    1
   136    19    18   ar
   137   138   135    1
   138   127   128    1
   139   127   124    1
   140    22    20   ar
   141    24    15   am
   142   152   150    1
   143   158   160    1
   144   158   157    1
   145   135   134    1
   146   135   136    1
   147    18    20   ar
   148    18    17    1
   149    15    16    2
   150    15    14    1
   151   123   124    1
   152   124   125    1
   153   159   157    1
   154   157   154    1
   155   125   126    2
   156   150   149    1
   157   150   151    1
   158    17    14    1
   159   136   137    2
   160    14    13    1
   161   149   146    1
   162   154   153    1
   163   154   155    1
   164   153   147   am
   165   156   155    2
   166   147   146    1
   167   147   148    2
   168   146   145    1
