@<TRIPOS>MOLECULE
tmp/5b8iA02.pdb
 89 89 0 0 0
SMALL
GASTEIGER

@<TRIPOS>ATOM
      1  N         25.3520   40.7310    5.6670 N.3   330  TYR330     -0.1241
      2  CA        26.4320   41.6820    5.4690 C.3   330  TYR330      0.1605
      3  C         26.1840   42.9170    6.3710 C.2   330  TYR330      0.2264
      4  O         25.0410   43.3580    6.5460 O.2   330  TYR330     -0.2867
      5  CB        26.4800   42.1320    3.9660 C.3   330  TYR330      0.0534
      6  CG        27.6520   43.0660    3.7370 C.ar  330  TYR330     -0.0201
      7  CD1       28.9760   42.6130    3.9280 C.ar  330  TYR330     -0.0009
      8  CD2       27.4450   44.4120    3.3480 C.ar  330  TYR330     -0.0009
      9  CE1       30.0660   43.4740    3.7630 C.ar  330  TYR330      0.0417
     10  CE2       28.5530   45.2850    3.1620 C.ar  330  TYR330      0.0417
     11  CZ        29.8390   44.8080    3.3920 C.ar  330  TYR330      0.1957
     12  OH        30.8930   45.6820    3.2560 O.3   330  TYR330     -0.2866
     13  N         28.1290   46.8900    6.8390 N.3   332  LEU332     -0.1231
     14  CA        29.2480   47.7980    6.4930 C.3   332  LEU332      0.1678
     15  C         30.3000   47.7940    7.6120 C.2   332  LEU332      0.2434
     16  O         29.9660   47.5420    8.7710 O.2   332  LEU332     -0.2733
     17  CB        28.7550   49.2520    6.2960 C.3   332  LEU332      0.0284
     18  CG        27.8850   49.4270    5.0170 C.3   332  LEU332      0.0019
     19  CD1       27.2220   50.8620    5.0320 C.3   332  LEU332      0.0001
     20  CD2       28.7810   49.2560    3.7460 C.3   332  LEU332      0.0001
     21  N         31.5430   48.1610    7.2810 N.am  333  PRO333     -0.2729
     22  CA        32.6190   48.2850    8.2900 C.3   333  PRO333      0.1401
     23  C         32.1440   49.1060    9.4670 C.2   333  PRO333      0.2269
     24  O         31.5120   50.1960    9.2810 O.2   333  PRO333     -0.2865
     25  CB        33.7390   49.0520    7.5350 C.3   333  PRO333      0.0296
     26  CG        33.5480   48.5820    6.1170 C.3   333  PRO333      0.0237
     27  CD        32.0210   48.4390    5.9150 C.3   333  PRO333      0.0939
     28  N         28.4620   50.8220   10.1020 N.3   336  MET336     -0.1245
     29  CA        28.1040   52.1600    9.6160 C.3   336  MET336      0.1570
     30  C         26.7270   52.0940    8.9490 C.2   336  MET336      0.2261
     31  O         26.4660   51.1300    8.2550 O.2   336  MET336     -0.2867
     32  CB        29.1750   52.5830    8.5940 C.3   336  MET336      0.0387
     33  CG        28.9610   53.9180    7.9490 C.3   336  MET336      0.0595
     34  SD        30.4370   54.2390    6.9230 S.3   336  MET336     -0.1393
     35  CE        31.6600   54.3210    8.1320 C.3   336  MET336      0.0692
     36  N         27.6830   56.3000    5.2040 N.3   341  TRP341     -0.1227
     37  CA        28.5370   55.6490    4.1880 C.3   341  TRP341      0.1737
     38  C         28.5200   56.4000    2.8230 C.2   341  TRP341      0.2596
     39  O         29.5630   56.5580    2.1550 O.2   341  TRP341     -0.2718
     40  CB        28.0290   54.2140    4.0150 C.3   341  TRP341      0.0564
     41  CG        28.6750   53.3390    2.9720 C.ar  341  TRP341      0.0003
     42  CD1       29.9980   53.0240    2.8540 C.ar  341  TRP341      0.0946
     43  CD2       27.9700   52.5960    1.9570 C.ar  341  TRP341      0.0152
     44  NE1       30.1520   52.1340    1.7980 N.ar  341  TRP341     -0.2442
     45  CE2       28.9190   51.8450    1.2540 C.ar  341  TRP341      0.0810
     46  CE3       26.5950   52.4730    1.6280 C.ar  341  TRP341      0.0012
     47  CZ2       28.5670   50.9520    0.2050 C.ar  341  TRP341      0.0191
     48  CZ3       26.2140   51.6170    0.5640 C.ar  341  TRP341      0.0001
     49  CH2       27.2180   50.8280   -0.1150 C.ar  341  TRP341      0.0015
     50  N         27.3230   56.7620    2.3650 N.am  342  SER342     -0.1952
     51  CA        27.1680   57.2650    0.9900 C.3   342  SER342      0.1924
     52  C         27.2830   58.7770    0.8630 C.2   342  SER342      0.2314
     53  O         27.6100   59.2920   -0.2090 O.2   342  SER342     -0.2863
     54  CB        25.8120   56.8310    0.3620 C.3   342  SER342      0.2116
     55  OG        24.6760   57.2650    1.1340 O.3   342  SER342     -0.2180
     56  N         29.3740   61.2000    1.7240 N.3   344  PRO344     -0.2102
     57  CA        30.5480   61.8660    1.1370 C.3   344  PRO344      0.1504
     58  C         30.6160   61.7420   -0.3840 C.2   344  PRO344      0.2576
     59  O         30.8230   62.7270   -1.0800 O.2   344  PRO344     -0.2718
     60  CB        31.7440   61.1600    1.8250 C.3   344  PRO344      0.0282
     61  CG        31.1540   60.7110    3.1560 C.3   344  PRO344      0.0208
     62  CD        29.7430   60.2960    2.8310 C.3   344  PRO344      0.0893
     63  N         30.4260   60.5390   -0.9070 N.am  345  PHE345     -0.1963
     64  CA        30.4070   60.3630   -2.3420 C.3   345  PHE345      0.1771
     65  C         29.2530   61.1100   -3.0070 C.2   345  PHE345      0.2619
     66  O         29.4130   61.6570   -4.1020 O.2   345  PHE345     -0.2715
     67  CB        30.3280   58.8580   -2.6590 C.3   345  PHE345      0.0574
     68  CG        30.6890   58.5080   -4.0910 C.ar  345  PHE345     -0.0200
     69  CD1       31.9790   58.7530   -4.5820 C.ar  345  PHE345     -0.0042
     70  CD2       29.7560   57.8350   -4.9110 C.ar  345  PHE345     -0.0042
     71  CE1       32.3820   58.3670   -5.8520 C.ar  345  PHE345     -0.0003
     72  CE2       30.1540   57.4430   -6.2260 C.ar  345  PHE345     -0.0003
     73  CZ        31.4700   57.7210   -6.6910 C.ar  345  PHE345     -0.0000
     74  N         28.0900   61.1410   -2.3470 N.am  346  VAL346     -0.1977
     75  CA        26.9270   61.8580   -2.9020 C.3   346  VAL346      0.1596
     76  C         27.3110   63.3180   -3.0980 C.2   346  VAL346      0.2287
     77  O         27.0300   63.9090   -4.1290 O.2   346  VAL346     -0.2864
     78  CB        25.6620   61.7590   -2.0070 C.3   346  VAL346      0.0276
     79  CG1       24.5990   62.8450   -2.4260 C.3   346  VAL346      0.0022
     80  CG2       25.0350   60.3300   -2.0920 C.3   346  VAL346      0.0022
     81  N         30.3560   64.5980   -3.5510 N.3   348  GLU348     -0.1245
     82  CA        31.2590   64.6750   -4.6990 C.3   348  GLU348      0.1567
     83  C         30.5340   64.5910   -6.0310 C.2   348  GLU348      0.2260
     84  O         30.8310   65.3500   -6.9650 O.2   348  GLU348     -0.2867
     85  CB        32.3270   63.5560   -4.6550 C.3   348  GLU348      0.0388
     86  CG        33.1610   63.5020   -5.9790 C.3   348  GLU348      0.1160
     87  CD        34.2480   62.4250   -5.9570 C.2   348  GLU348      0.3649
     88  OE1       35.0250   62.4310   -4.9790 O.co2 348  GLU348     -0.2457
     89  OE2       34.2970   61.5800   -6.8980 O.co2 348  GLU348     -0.2457
@<TRIPOS>BOND
     1    84    83    2
     2    89    87   ar
     3    73    72   ar
     4    73    71   ar
     5    72    70   ar
     6    83    82    1
     7    86    87    1
     8    86    85    1
     9    87    88   ar
    10    71    69   ar
    11    70    68   ar
    12    82    85    1
    13    82    81    1
    14    69    68   ar
    15    77    76    2
    16    66    65    2
    17    68    67    1
    18    76    75    1
    19    65    74   am
    20    65    64    1
    21    75    74    1
    22    75    78    1
    23    67    64    1
    24    79    78    1
    25    64    63    1
    26    80    78    1
    27    59    58    2
    28    63    58   am
    29    58    57    1
    30    53    52    2
    31    49    47   ar
    32    49    48   ar
    33    47    45   ar
    34    54    51    1
    35    54    55    1
    36    48    46   ar
    37    52    51    1
    38    51    50    1
    39    57    56    1
    40    57    60    1
    41    45    44   ar
    42    45    43   ar
    43    46    43   ar
    44    56    62    1
    45    44    42   ar
    46    60    61    1
    47    43    41   ar
    48    39    38    2
    49    50    38   am
    50    38    37    1
    51    62    61    1
    52    42    41   ar
    53    41    40    1
    54    10     8   ar
    55    10    11   ar
    56    12    11    1
    57     8     6   ar
    58    11     9   ar
    59     6     7   ar
    60     6     5    1
    61    20    18    1
    62     9     7   ar
    63     5     2    1
    64    40    37    1
    65    37    36    1
    66    18    19    1
    67    18    17    1
    68     2     1    1
    69     2     3    1
    70    27    26    1
    71    27    21    1
    72    26    25    1
    73    17    14    1
    74     3     4    2
    75    14    13    1
    76    14    15    1
    77    34    33    1
    78    34    35    1
    79    21    15   am
    80    21    22    1
    81    25    22    1
    82    15    16    2
    83    33    32    1
    84    31    30    2
    85    22    23    1
    86    32    29    1
    87    30    29    1
    88    24    23    2
    89    29    28    1
