@<TRIPOS>MOLECULE
tmp/5bjvA01.pdb
 229 218 0 0 0
SMALL
GASTEIGER

@<TRIPOS>ATOM
      1  N        -26.6020   -7.7530  -23.7640 N.3   108  LYS108     -0.1231
      2  CA       -25.9290   -7.0380  -24.8340 C.3   108  LYS108      0.1693
      3  C        -24.6350   -6.3140  -24.4150 C.2   108  LYS108      0.2592
      4  O        -23.9780   -5.7500  -25.2830 O.2   108  LYS108     -0.2718
      5  CB       -26.8820   -6.0220  -25.4710 C.3   108  LYS108      0.0285
      6  CG       -27.2290   -4.8690  -24.5410 C.3   108  LYS108      0.0035
      7  CD       -27.5470   -3.5710  -25.2630 C.3   108  LYS108      0.0206
      8  CE       -28.0760   -2.5270  -24.3050 C.3   108  LYS108      0.1093
      9  NZ       -28.3380   -1.1830  -24.8960 N.3   108  LYS108     -0.1314
     10  N        -24.2670   -6.3020  -23.1310 N.am  109  HIS109     -0.1962
     11  CA       -23.1420   -5.5190  -22.6370 C.3   109  HIS109      0.1787
     12  C        -21.8520   -6.3010  -22.7920 C.2   109  HIS109      0.2620
     13  O        -21.7970   -7.4260  -22.3270 O.2   109  HIS109     -0.2715
     14  CB       -23.3200   -5.1730  -21.1370 C.3   109  HIS109      0.0785
     15  CG       -24.1430   -3.9510  -20.9030 C.ar  109  HIS109      0.0821
     16  ND1      -23.5900   -2.7460  -20.5330 N.ar  109  HIS109     -0.2267
     17  CD2      -25.4740   -3.7210  -21.0650 C.ar  109  HIS109      0.1154
     18  CE1      -24.5520   -1.8430  -20.4130 C.ar  109  HIS109      0.1986
     19  NE2      -25.7060   -2.4070  -20.7350 N.ar  109  HIS109     -0.2212
     20  N        -20.8320   -5.7350  -23.4350 N.am  110  VAL110     -0.1977
     21  CA       -19.5640   -6.4500  -23.5280 C.3   110  VAL110      0.1596
     22  C        -18.9780   -6.8380  -22.1650 C.2   110  VAL110      0.2287
     23  O        -18.7030   -8.0270  -21.8940 O.2   110  VAL110     -0.2864
     24  CB       -18.5940   -5.7140  -24.4720 C.3   110  VAL110      0.0276
     25  CG1      -17.1490   -6.2410  -24.3770 C.3   110  VAL110      0.0022
     26  CG2      -19.0670   -5.8180  -25.9080 C.3   110  VAL110      0.0022
     27  N        -26.2990   -8.1440  -34.2690 N.3   148  THR148     -0.1203
     28  CA       -25.3850   -7.0400  -33.9830 C.3   148  THR148      0.1994
     29  C        -24.1680   -7.1890  -34.8800 C.2   148  THR148      0.2618
     30  O        -23.7520   -8.3120  -35.1580 O.2   148  THR148     -0.2717
     31  CB       -24.9020   -6.9930  -32.5120 C.3   148  THR148      0.1784
     32  OG1      -23.7780   -6.1110  -32.4180 O.3   148  THR148     -0.2211
     33  CG2      -24.4500   -8.3460  -31.9980 C.3   148  THR148      0.0376
     34  N        -23.5990   -6.0650  -35.2850 N.am  149  ASN149     -0.1960
     35  CA       -22.3130   -6.1130  -35.9820 C.3   149  ASN149      0.1819
     36  C        -21.2310   -6.8140  -35.1850 C.2   149  ASN149      0.2621
     37  O        -20.1780   -7.1610  -35.7490 O.2   149  ASN149     -0.2715
     38  CB       -21.8170   -4.7230  -36.3920 C.3   149  ASN149      0.1195
     39  CG       -22.7170   -4.0240  -37.4130 C.2   149  ASN149      0.2630
     40  OD1      -22.7490   -2.7790  -37.4650 O.2   149  ASN149     -0.2716
     41  ND2      -23.4470   -4.7830  -38.2110 N.am  149  ASN149     -0.0877
     42  N        -21.4180   -6.9680  -33.8720 N.am  150  ALA150     -0.1977
     43  CA       -20.3870   -7.5830  -33.0320 C.3   150  ALA150      0.1597
     44  C        -20.3180   -9.0810  -33.2990 C.2   150  ALA150      0.2287
     45  O        -19.4120   -9.7650  -32.8380 O.2   150  ALA150     -0.2864
     46  CB       -20.7450   -7.3260  -31.5770 C.3   150  ALA150      0.0319
     47  N        -20.0350  -11.7310  -25.6730 N.3   158  MET158     -0.1245
     48  CA       -21.3670  -11.2930  -26.0510 C.3   158  MET158      0.1570
     49  C        -21.5660  -11.4680  -27.5560 C.2   158  MET158      0.2261
     50  O        -22.5640  -12.0280  -27.9860 O.2   158  MET158     -0.2867
     51  CB       -21.5520   -9.8290  -25.6400 C.3   158  MET158      0.0387
     52  CG       -22.9080   -9.2130  -25.9530 C.3   158  MET158      0.0595
     53  SD       -23.2930   -8.8040  -27.6700 S.3   158  MET158     -0.1393
     54  CE       -22.1790   -7.4420  -27.9320 C.3   158  MET158      0.0692
     55  N        -26.8720   -4.7590  -37.0120 N.3   184  PHE184     -0.1227
     56  CA       -26.6140   -3.3050  -37.0330 C.3   184  PHE184      0.1736
     57  C        -25.7450   -2.8690  -35.8510 C.2   184  PHE184      0.2596
     58  O        -25.3520   -3.7040  -35.0320 O.2   184  PHE184     -0.2718
     59  CB       -27.9440   -2.5270  -37.1240 C.3   184  PHE184      0.0547
     60  CG       -28.9440   -2.8610  -36.0680 C.ar  184  PHE184     -0.0202
     61  CD1      -28.9450   -2.1820  -34.8530 C.ar  184  PHE184     -0.0042
     62  CD2      -29.9030   -3.8500  -36.2940 C.ar  184  PHE184     -0.0042
     63  CE1      -29.9090   -2.4700  -33.8830 C.ar  184  PHE184     -0.0003
     64  CE2      -30.8300   -4.1570  -35.3320 C.ar  184  PHE184     -0.0003
     65  CZ       -30.8490   -3.4670  -34.1160 C.ar  184  PHE184     -0.0000
     66  N        -25.3680   -1.6000  -35.8220 N.am  185  GLY185     -0.1942
     67  CA       -24.3870   -1.1080  -34.8640 C.3   185  GLY185      0.2014
     68  C        -25.0710   -0.2970  -33.7730 C.2   185  GLY185      0.2639
     69  O        -26.2730   -0.4030  -33.5510 O.2   185  GLY185     -0.2714
     70  N        -24.3140    0.5670  -33.1180 N.am  186  ASN186     -0.1958
     71  CA       -24.7540    1.2360  -31.8850 C.3   186  ASN186      0.1819
     72  C        -26.0270    2.0750  -32.0770 C.2   186  ASN186      0.2621
     73  O        -26.1190    2.9030  -32.9920 O.2   186  ASN186     -0.2715
     74  CB       -23.6660    2.1590  -31.3650 C.3   186  ASN186      0.1195
     75  CG       -22.4090    1.4290  -30.9930 C.2   186  ASN186      0.2630
     76  OD1      -21.8480    0.6660  -31.7890 O.2   186  ASN186     -0.2716
     77  ND2      -21.9410    1.6560  -29.7530 N.am  186  ASN186     -0.0877
     78  N        -27.0030    1.8490  -31.2050 N.am  187  VAL187     -0.1977
     79  CA       -28.2120    2.6050  -31.2330 C.3   187  VAL187      0.1596
     80  C        -28.0350    3.7780  -30.2900 C.2   187  VAL187      0.2287
     81  O        -27.8890    3.6220  -29.0830 O.2   187  VAL187     -0.2864
     82  CB       -29.3980    1.7300  -30.8420 C.3   187  VAL187      0.0276
     83  CG1      -30.6350    2.5860  -30.6010 C.3   187  VAL187      0.0022
     84  CG2      -29.6120    0.6960  -31.9460 C.3   187  VAL187      0.0022
     85  N        -29.1140    4.2170  -26.2990 N.3   190  SER190     -0.1202
     86  CA       -29.7460    3.0480  -25.7870 C.3   190  SER190      0.2020
     87  C        -29.3480    2.7820  -24.3250 C.2   190  SER190      0.2619
     88  O        -28.4230    3.4010  -23.7490 O.2   190  SER190     -0.2717
     89  CB       -29.5110    1.8500  -26.6940 C.3   190  SER190      0.2103
     90  OG       -28.1640    1.4240  -26.6240 O.3   190  SER190     -0.2182
     91  N        -30.0840    1.8580  -23.7230 N.am  191  SER191     -0.1937
     92  CA       -29.9140    1.5460  -22.3040 C.3   191  SER191      0.2055
     93  C        -28.4640    1.2160  -21.9470 C.2   191  SER191      0.2644
     94  O        -27.8170    0.4140  -22.6110 O.2   191  SER191     -0.2714
     95  CB       -30.8050    0.3690  -21.9240 C.3   191  SER191      0.2130
     96  OG       -30.4590   -0.8520  -22.6000 O.3   191  SER191     -0.2179
     97  N        -27.9400    1.8280  -20.8980 N.am  192  GLY192     -0.1939
     98  CA       -26.6280    1.4390  -20.4040 C.3   192  GLY192      0.2014
     99  C        -25.4670    1.8360  -21.3220 C.2   192  GLY192      0.2640
    100  O        -24.3620    1.2900  -21.1980 O.2   192  GLY192     -0.2714
    101  N        -25.7030    2.7740  -22.2370 N.am  193  SER193     -0.1935
    102  CA       -24.7400    3.0640  -23.2960 C.3   193  SER193      0.2055
    103  C        -23.9270    4.3290  -23.0210 C.2   193  SER193      0.2642
    104  O        -24.1420    5.0050  -22.0050 O.2   193  SER193     -0.2714
    105  CB       -25.4380    3.1120  -24.6530 C.3   193  SER193      0.2130
    106  OG       -26.2880    4.2220  -24.7960 O.3   193  SER193     -0.2179
    107  N        -22.9900    4.6530  -23.8990 N.am  194  VAL194     -0.1977
    108  CA       -22.0380    5.7300  -23.6460 C.3   194  VAL194      0.1596
    109  C        -22.6810    7.1050  -23.5020 C.2   194  VAL194      0.2287
    110  O        -22.2930    7.9150  -22.6460 O.2   194  VAL194     -0.2864
    111  CB       -20.9130    5.7970  -24.6940 C.3   194  VAL194      0.0276
    112  CG1      -21.4200    6.2280  -26.0760 C.3   194  VAL194      0.0022
    113  CG2      -19.7820    6.7050  -24.2040 C.3   194  VAL194      0.0022
    114  N        -24.2140    7.6030  -20.0650 N.3   197  LYS197     -0.1231
    115  CA       -23.0820    7.6140  -19.1320 C.3   197  LYS197      0.1693
    116  C        -22.4120    9.0130  -19.1130 C.2   197  LYS197      0.2592
    117  O        -22.3200    9.6460  -18.0550 O.2   197  LYS197     -0.2718
    118  CB       -22.1050    6.5000  -19.4690 C.3   197  LYS197      0.0285
    119  CG       -20.7280    6.5240  -18.7940 C.3   197  LYS197      0.0035
    120  CD       -20.7420    5.7440  -17.5140 C.3   197  LYS197      0.0206
    121  CE       -19.3480    5.3840  -17.0590 C.3   197  LYS197      0.1093
    122  NZ       -19.2600    5.6690  -15.5940 N.3   197  LYS197     -0.1314
    123  N        -22.0000    9.5140  -20.2700 N.am  198  PHE198     -0.1976
    124  CA       -21.5220   10.9040  -20.3630 C.3   198  PHE198      0.1639
    125  C        -22.5070   11.9560  -19.8300 C.2   198  PHE198      0.2290
    126  O        -22.0770   12.8950  -19.1300 O.2   198  PHE198     -0.2864
    127  CB       -21.1050   11.2820  -21.7950 C.3   198  PHE198      0.0560
    128  CG       -19.8700   10.5840  -22.2940 C.ar  198  PHE198     -0.0200
    129  CD1      -19.1030    9.7830  -21.4870 C.ar  198  PHE198     -0.0042
    130  CD2      -19.4860   10.7340  -23.6160 C.ar  198  PHE198     -0.0042
    131  CE1      -17.9890    9.1380  -21.9790 C.ar  198  PHE198     -0.0003
    132  CE2      -18.3620   10.1010  -24.1070 C.ar  198  PHE198     -0.0003
    133  CZ       -17.6110    9.2960  -23.2890 C.ar  198  PHE198     -0.0000
    134  N        -15.1110    9.7080  -18.9610 N.3   209  THR209     -0.1203
    135  CA       -14.2000    8.5970  -19.0860 C.3   209  THR209      0.1994
    136  C        -14.2480    8.0320  -20.5040 C.2   209  THR209      0.2618
    137  O        -15.2450    7.3940  -20.8910 O.2   209  THR209     -0.2717
    138  CB       -14.5230    7.5140  -18.0380 C.3   209  THR209      0.1784
    139  OG1      -15.9060    7.1500  -18.1160 O.3   209  THR209     -0.2211
    140  CG2      -14.2220    8.0620  -16.6470 C.3   209  THR209      0.0376
    141  N        -13.1520    8.2380  -21.2420 N.am  210  LEU210     -0.1965
    142  CA       -13.0140    7.7920  -22.6230 C.3   210  LEU210      0.1728
    143  C        -12.0900    6.5990  -22.6230 C.2   210  LEU210      0.2616
    144  O        -10.9630    6.6610  -22.1130 O.2   210  LEU210     -0.2715
    145  CB       -12.4710    8.9310  -23.4950 C.3   210  LEU210      0.0311
    146  CG       -12.0650    8.5580  -24.9250 C.3   210  LEU210      0.0022
    147  CD1      -13.2780    8.0700  -25.6960 C.3   210  LEU210      0.0001
    148  CD2      -11.5040    9.7740  -25.6360 C.3   210  LEU210      0.0001
    149  N        -12.5610    5.4880  -23.1810 N.am  211  THR211     -0.1951
    150  CA       -11.7490    4.2880  -23.1940 C.3   211  THR211      0.1897
    151  C        -10.4340    4.4580  -23.9590 C.2   211  THR211      0.2313
    152  O         -9.3870    4.0330  -23.4920 O.2   211  THR211     -0.2863
    153  CB       -12.5150    3.0850  -23.7590 C.3   211  THR211      0.1794
    154  OG1      -13.0660    3.4070  -25.0530 O.3   211  THR211     -0.2208
    155  CG2      -13.6190    2.6890  -22.7920 C.3   211  THR211      0.0378
    156  N        -10.8940    5.4410  -30.5640 N.3   215  ILE215     -0.1245
    157  CA       -11.9920    4.4840  -30.7190 C.3   215  ILE215      0.1561
    158  C        -13.1280    5.1580  -31.4790 C.2   215  ILE215      0.2260
    159  O        -13.3520    6.3690  -31.3090 O.2   215  ILE215     -0.2867
    160  CB       -12.3780    3.9270  -29.3320 C.3   215  ILE215      0.0252
    161  CG1      -13.1860    2.6370  -29.4920 C.3   215  ILE215      0.0019
    162  CG2      -13.1340    4.9770  -28.5040 C.3   215  ILE215      0.0019
    163  CD1      -13.1960    1.7770  -28.2510 C.3   215  ILE215      0.0001
    164  N        -17.2630    4.4210  -33.3680 N.3   217  ARG217     -0.1245
    165  CA       -18.4090    3.5530  -33.4710 C.3   217  ARG217      0.1563
    166  C        -19.3370    4.0640  -34.5400 C.2   217  ARG217      0.2260
    167  O        -19.4330    5.2710  -34.7730 O.2   217  ARG217     -0.2867
    168  CB       -19.1960    3.4370  -32.1490 C.3   217  ARG217      0.0307
    169  CG       -18.4950    2.7310  -30.9880 C.3   217  ARG217      0.0489
    170  CD       -18.3620    1.2610  -31.2580 C.3   217  ARG217      0.2205
    171  NE       -17.7650    0.5120  -30.1780 N.pl3 217  ARG217     -0.0865
    172  CZ       -16.4710    0.1830  -30.1290 C.cat 217  ARG217      0.5346
    173  NH1      -15.6420    0.6000  -31.0710 N.pl3 217  ARG217      0.1354
    174  NH2      -15.9670   -0.5600  -29.1380 N.pl3 217  ARG217      0.1354
    175  N        -23.2400    4.6900  -35.5730 N.3   219  PHE219     -0.1241
    176  CA       -24.4140    5.0130  -34.7790 C.3   219  PHE219      0.1605
    177  C        -25.6460    5.1930  -35.6660 C.2   219  PHE219      0.2264
    178  O        -25.5330    5.6220  -36.8080 O.2   219  PHE219     -0.2867
    179  CB       -24.2190    6.3320  -34.0140 C.3   219  PHE219      0.0534
    180  CG       -23.3530    6.2160  -32.8090 C.ar  219  PHE219     -0.0203
    181  CD1      -23.8360    5.6520  -31.6280 C.ar  219  PHE219     -0.0042
    182  CD2      -22.0470    6.6840  -32.8260 C.ar  219  PHE219     -0.0042
    183  CE1      -23.0400    5.5500  -30.5050 C.ar  219  PHE219     -0.0003
    184  CE2      -21.2410    6.5870  -31.6740 C.ar  219  PHE219     -0.0003
    185  CZ       -21.7450    6.0130  -30.5170 C.ar  219  PHE219     -0.0000
    186  N        -15.4060    8.5890  -30.6020 N.3   252  ILE252     -0.1245
    187  CA       -16.0090    8.7700  -29.3020 C.3   252  ILE252      0.1561
    188  C        -15.4110   10.0210  -28.6640 C.2   252  ILE252      0.2260
    189  O        -16.1210   10.7540  -28.0180 O.2   252  ILE252     -0.2867
    190  CB       -15.8830    7.5370  -28.4310 C.3   252  ILE252      0.0252
    191  CG1      -16.4810    6.3400  -29.1670 C.3   252  ILE252      0.0019
    192  CG2      -16.6020    7.7700  -27.1050 C.3   252  ILE252      0.0019
    193  CD1      -17.9010    6.5390  -29.6570 C.3   252  ILE252      0.0001
    194  N         -9.2190    6.0260  -19.9240 N.3   273  THR273     -0.1218
    195  CA        -9.2680    5.0110  -18.8860 C.3   273  THR273      0.1862
    196  C         -8.8880    3.6320  -19.3730 C.2   273  THR273      0.2287
    197  O         -8.7900    2.7500  -18.5350 O.2   273  THR273     -0.2866
    198  CB       -10.6560    4.9660  -18.2540 C.3   273  THR273      0.1770
    199  OG1      -11.6270    4.6000  -19.2520 O.3   273  THR273     -0.2211
    200  CG2      -10.9770    6.3510  -17.6400 C.3   273  THR273      0.0375
    201  N        -11.7910   -1.5820  -22.7350 N.3   276  ARG276     -0.1245
    202  CA       -12.3860   -2.5720  -21.8680 C.3   276  ARG276      0.1563
    203  C        -12.1140   -3.9360  -22.4900 C.2   276  ARG276      0.2260
    204  O        -12.0240   -4.0740  -23.7020 O.2   276  ARG276     -0.2867
    205  CB       -13.8860   -2.2830  -21.7640 C.3   276  ARG276      0.0307
    206  CG       -14.2030   -0.8560  -21.2870 C.3   276  ARG276      0.0489
    207  CD       -15.7150   -0.6560  -21.1870 C.3   276  ARG276      0.2205
    208  NE       -16.3120   -0.6480  -22.5170 N.pl3 276  ARG276     -0.0865
    209  CZ       -17.6170   -0.5530  -22.7770 C.cat 276  ARG276      0.5346
    210  NH1      -18.5040   -0.5020  -21.7930 N.pl3 276  ARG276      0.1354
    211  NH2      -18.0550   -0.5430  -24.0350 N.pl3 276  ARG276      0.1354
    212  N        -13.1410   -5.4290  -26.2300 N.3   279  GLU279     -0.1245
    213  CA       -13.6570   -4.3080  -27.0130 C.3   279  GLU279      0.1567
    214  C        -12.8280   -4.0840  -28.2820 C.2   279  GLU279      0.2260
    215  O        -11.6150   -4.2180  -28.2210 O.2   279  GLU279     -0.2867
    216  CB       -13.5360   -3.1020  -26.0970 C.3   279  GLU279      0.0388
    217  CG       -14.1170   -1.8220  -26.5940 C.3   279  GLU279      0.1160
    218  CD       -14.4450   -0.8880  -25.4420 C.2   279  GLU279      0.3649
    219  OE1      -13.5560   -0.6090  -24.5780 O.co2 279  GLU279     -0.2457
    220  OE2      -15.6170   -0.4470  -25.4560 O.co2 279  GLU279     -0.2457
    221  N        -14.4980   -1.5150  -34.7540 N.3   283  GLU283     -0.1245
    222  CA       -15.4650   -2.5440  -35.1310 C.3   283  GLU283      0.1567
    223  C        -14.9550   -3.1570  -36.4440 C.2   283  GLU283      0.2260
    224  O        -13.7870   -3.5320  -36.4990 O.2   283  GLU283     -0.2867
    225  CB       -16.9300   -2.0110  -35.1040 C.3   283  GLU283      0.0388
    226  CG       -17.4580   -1.6850  -33.6790 C.3   283  GLU283      0.1160
    227  CD       -17.4070   -2.8710  -32.7190 C.2   283  GLU283      0.3649
    228  OE1      -17.9740   -4.0100  -32.9810 O.co2 283  GLU283     -0.2457
    229  OE2      -16.7610   -2.6610  -31.6610 O.co2 283  GLU283     -0.2457
@<TRIPOS>BOND
     1    41    39   am
     2    40    39    2
     3    39    38    1
     4    59    56    1
     5    59    60    1
     6    56    55    1
     7    56    57    1
     8   178   177    2
     9   224   223    2
    10   223   222    1
    11    38    35    1
    12    62    60   ar
    13    62    64   ar
    14    60    61   ar
    15    35    34    1
    16    35    36    1
    17    57    66   am
    18    57    58    2
    19    66    67    1
    20    37    36    2
    21   177   176    1
    22   175   176    1
    23    64    65   ar
    24    34    29   am
    25    36    42   am
    26    30    29    2
    27   222   225    1
    28   222   221    1
    29   225   226    1
    30    29    28    1
    31    67    68    1
    32    61    63   ar
    33   176   179    1
    34   167   166    2
    35   166   165    1
    36    27    28    1
    37    65    63   ar
    38   179   180    1
    39    28    31    1
    40    42    43    1
    41    68    69    2
    42    68    70   am
    43   226   227    1
    44   165   164    1
    45   165   168    1
    46    44    43    1
    47    44    45    2
    48    70    71    1
    49    43    46    1
    50    73    72    2
    51   228   227   ar
    52   182   180   ar
    53   182   184   ar
    54   180   181   ar
    55   227   229   ar
    56    31    32    1
    57    31    33    1
    58   168   169    1
    59    72    71    1
    60    72    78   am
    61    84    82    1
    62    71    74    1
    63    76    75    2
    64   184   185   ar
    65   181   183   ar
    66   158   159    2
    67   158   157    1
    68    74    75    1
    69   170   169    1
    70   170   171    1
    71    79    78    1
    72    79    82    1
    73    79    80    1
    74   173   172    1
    75    75    77   am
    76    82    83    1
    77   157   156    1
    78   157   160    1
    79   186   187    1
    80   185   183   ar
    81    80    81    2
    82   171   172    2
    83   172   174    1
    84   193   191    1
    85   161   160    1
    86   161   163    1
    87   160   162    1
    88   187   188    1
    89   187   190    1
    90   191   190    1
    91   188   189    2
    92   190   192    1
    93   214   215    2
    94   214   213    1
    95    50    49    2
    96    54    53    1
    97    53    52    1
    98    49    48    1
    99   213   212    1
   100   213   216    1
   101    89    90    1
   102    89    86    1
   103   217   216    1
   104   217   218    1
   105    85    86    1
   106   112   111    1
   107    48    47    1
   108    48    51    1
   109    52    51    1
   110    26    24    1
   111    86    87    1
   112   147   146    1
   113   148   146    1
   114     5     2    1
   115     5     6    1
   116   220   218   ar
   117   218   219   ar
   118     4     3    2
   119     7     6    1
   120     7     8    1
   121   154   153    1
   122   146   145    1
   123     9     8    1
   124     2     3    1
   125     2     1    1
   126   106   105    1
   127   111   113    1
   128   111   108    1
   129   105   102    1
   130    24    25    1
   131    24    21    1
   132     3    10   am
   133    87    88    2
   134    87    91   am
   135   132   130   ar
   136   132   133   ar
   137   211   209    1
   138   151   152    2
   139   151   150    1
   140   107   108    1
   141   107   103   am
   142   153   150    1
   143   153   155    1
   144    91    92    1
   145   204   203    2
   146   108   109    1
   147   130   128   ar
   148    21    20    1
   149    21    22    1
   150   109   110    2
   151   145   142    1
   152    20    12   am
   153   102   103    1
   154   102   101    1
   155   133   131   ar
   156   150   149    1
   157   149   143   am
   158    10    11    1
   159   103   104    2
   160    12    11    1
   161    12    13    2
   162   209   208    2
   163   209   210    1
   164   201   202    1
   165    11    14    1
   166   142   143    1
   167   142   141    1
   168   143   144    2
   169    94    93    2
   170    96    95    1
   171   208   207    1
   172   203   202    1
   173    92    93    1
   174    92    95    1
   175   128   127    1
   176   128   129   ar
   177   101    99   am
   178    22    23    2
   179   131   129   ar
   180    93    97   am
   181   202   205    1
   182   127   124    1
   183   205   206    1
   184    99   100    2
   185    99    98    1
   186   206   207    1
   187   141   136   am
   188    14    15    1
   189    17    15   ar
   190    17    19   ar
   191    15    16   ar
   192    97    98    1
   193   137   136    2
   194    19    18   ar
   195    16    18   ar
   196   136   135    1
   197   124   123    1
   198   124   125    1
   199   123   116   am
   200   114   115    1
   201   194   195    1
   202   125   126    2
   203   118   115    1
   204   118   119    1
   205   196   195    1
   206   196   197    2
   207   199   198    1
   208   115   116    1
   209   116   117    2
   210   135   134    1
   211   135   138    1
   212   195   198    1
   213   119   120    1
   214   198   200    1
   215   139   138    1
   216   138   140    1
   217   120   121    1
   218   121   122    1
