@<TRIPOS>MOLECULE
tmp/5bjxB00.pdb
 167 159 0 0 0
SMALL
GASTEIGER

@<TRIPOS>ATOM
      1  N         -8.5250    7.4470    8.2910 N.3   108  LYS108     -0.1231
      2  CA        -9.3310    6.6940    7.3220 C.3   108  LYS108      0.1693
      3  C        -10.5810    5.9840    7.9030 C.2   108  LYS108      0.2592
      4  O        -11.3960    5.4590    7.1550 O.2   108  LYS108     -0.2718
      5  CB        -8.4680    5.6290    6.6250 C.3   108  LYS108      0.0285
      6  CG        -8.0180    4.5320    7.5810 C.3   108  LYS108      0.0035
      7  CD        -7.4220    3.3530    6.8460 C.3   108  LYS108      0.0206
      8  CE        -6.8530    2.3940    7.8740 C.3   108  LYS108      0.1093
      9  NZ        -6.4430    1.0970    7.2810 N.3   108  LYS108     -0.1314
     10  N        -10.6970    5.8360    9.2090 N.am  109  HIS109     -0.1962
     11  CA       -11.7990    5.0370    9.7540 C.3   109  HIS109      0.1787
     12  C        -13.0770    5.8390    9.6830 C.2   109  HIS109      0.2620
     13  O        -13.1960    6.8580   10.3460 O.2   109  HIS109     -0.2715
     14  CB       -11.4950    4.6100   11.1810 C.3   109  HIS109      0.0785
     15  CG       -10.5780    3.4480   11.2760 C.ar  109  HIS109      0.0821
     16  ND1      -11.0540    2.1650   11.4420 N.ar  109  HIS109     -0.2267
     17  CD2       -9.2330    3.3470   11.1910 C.ar  109  HIS109      0.1154
     18  CE1      -10.0310    1.3320   11.4560 C.ar  109  HIS109      0.1986
     19  NE2       -8.9140    2.0160   11.3120 N.ar  109  HIS109     -0.2212
     20  N        -14.0530    5.3560    8.9220 N.am  110  VAL110     -0.1964
     21  CA       -15.2750    6.1530    8.7390 C.3   110  VAL110      0.1712
     22  C        -15.9500    6.4630   10.0850 C.2   110  VAL110      0.2458
     23  O        -16.3130    7.5980   10.3260 O.2   110  VAL110     -0.2730
     24  CB       -16.1900    5.4500    7.7570 C.3   110  VAL110      0.0289
     25  CG1      -17.5800    6.0880    7.7670 C.3   110  VAL110      0.0023
     26  CG2      -15.5700    5.4570    6.3600 C.3   110  VAL110      0.0023
     27  N        -16.1850    5.4590   10.9500 N.am  111  PRO111     -0.2727
     28  CA       -16.8560    5.7740   12.2140 C.3   111  PRO111      0.1402
     29  C        -16.1090    6.7870   13.0830 C.2   111  PRO111      0.2269
     30  O        -16.7240    7.7220   13.6130 O.2   111  PRO111     -0.2865
     31  CB       -16.9710    4.4110   12.9100 C.3   111  PRO111      0.0296
     32  CG       -16.9720    3.4520   11.7930 C.3   111  PRO111      0.0237
     33  CD       -16.0060    4.0170   10.7700 C.3   111  PRO111      0.0939
     34  N        -13.9450    5.9550   -1.5470 N.3   150  LYS150     -0.1245
     35  CA       -14.9230    6.6070   -0.6880 C.3   150  LYS150      0.1561
     36  C        -14.9780    8.1290   -1.0090 C.2   150  LYS150      0.2260
     37  O        -15.8850    8.7990   -0.5830 O.2   150  LYS150     -0.2867
     38  CB       -14.5820    6.3770    0.7910 C.3   150  LYS150      0.0271
     39  CG       -14.5280    4.8890    1.1930 C.3   150  LYS150      0.0035
     40  CD       -14.9900    4.6440    2.6040 C.3   150  LYS150      0.0206
     41  CE       -14.6060    3.2880    3.1820 C.3   150  LYS150      0.1093
     42  NZ       -14.8700    2.1590    2.2500 N.3   150  LYS150     -0.1314
     43  N        -10.4360   -1.0600   -1.2860 N.3   186  ASN186     -0.1240
     44  CA        -9.8520   -1.6690   -0.0790 C.3   186  ASN186      0.1653
     45  C         -8.6230   -2.5330   -0.3360 C.2   186  ASN186      0.2266
     46  O         -8.5900   -3.3550   -1.2830 O.2   186  ASN186     -0.2867
     47  CB       -10.8910   -2.5350    0.6260 C.3   186  ASN186      0.1155
     48  CG       -12.1010   -1.7460    1.0890 C.2   186  ASN186      0.2627
     49  OD1      -12.7500   -1.0400    0.2930 O.2   186  ASN186     -0.2716
     50  ND2      -12.4130   -1.8310    2.3830 N.am  186  ASN186     -0.0877
     51  N         -6.6170   -2.2880   11.0600 N.3   192  GLY192     -0.1210
     52  CA        -7.9530   -2.0720   11.6140 C.3   192  GLY192      0.1956
     53  C         -9.1130   -2.4610   10.7090 C.2   192  GLY192      0.2613
     54  O        -10.2310   -1.9730   10.9000 O.2   192  GLY192     -0.2717
     55  N         -8.8600   -3.3770    9.7660 N.am  193  SER193     -0.1938
     56  CA        -9.8590   -3.7230    8.7630 C.3   193  SER193      0.2055
     57  C        -10.6450   -4.9960    9.0420 C.2   193  SER193      0.2642
     58  O        -10.4480   -5.6220   10.0830 O.2   193  SER193     -0.2714
     59  CB        -9.1610   -3.7770    7.4050 C.3   193  SER193      0.2130
     60  OG        -8.3300   -4.9240    7.2960 O.3   193  SER193     -0.2179
     61  N        -11.5150   -5.3810    8.1220 N.am  194  VAL194     -0.1977
     62  CA       -12.4380   -6.4620    8.3920 C.3   194  VAL194      0.1596
     63  C        -11.7690   -7.8260    8.5130 C.2   194  VAL194      0.2287
     64  O        -12.2020   -8.6490    9.3460 O.2   194  VAL194     -0.2864
     65  CB       -13.6000   -6.4670    7.3580 C.3   194  VAL194      0.0276
     66  CG1      -13.1690   -6.7560    5.9390 C.3   194  VAL194      0.0022
     67  CG2      -14.7210   -7.4160    7.7880 C.3   194  VAL194      0.0022
     68  N        -10.3330   -8.3090   11.8870 N.3   197  LYS197     -0.1231
     69  CA       -11.3940   -8.3530   12.8900 C.3   197  LYS197      0.1696
     70  C        -12.0020   -9.7670   12.8620 C.2   197  LYS197      0.2592
     71  O        -12.2270  -10.3450   13.9170 O.2   197  LYS197     -0.2718
     72  CB       -12.4650   -7.2830   12.6380 C.3   197  LYS197      0.0331
     73  CG       -13.6550   -7.2890   13.6230 C.3   197  LYS197      0.0295
     74  CD       -13.2520   -7.0800   15.0980 C.2   197  LYS197     -0.0067
     75  CE       -14.4040   -6.8200   16.0730 C.2   197  LYS197      0.1012
     76  NZ       -14.0390   -6.8920   17.5240 N.pl3 197  LYS197     -0.1270
     77  N        -12.2550  -10.2940   11.6680 N.am  198  PHE198     -0.1976
     78  CA       -12.8360  -11.6240   11.5260 C.3   198  PHE198      0.1639
     79  C        -11.8950  -12.7000   12.0580 C.2   198  PHE198      0.2290
     80  O        -12.3320  -13.6670   12.6820 O.2   198  PHE198     -0.2864
     81  CB       -13.1800  -11.9040   10.0620 C.3   198  PHE198      0.0560
     82  CG       -14.4530  -11.2520    9.6020 C.ar  198  PHE198     -0.0200
     83  CD1      -15.3730  -10.7760   10.5210 C.ar  198  PHE198     -0.0042
     84  CD2      -14.7280  -11.1140    8.2520 C.ar  198  PHE198     -0.0042
     85  CE1      -16.5450  -10.1750   10.1020 C.ar  198  PHE198     -0.0003
     86  CE2      -15.8980  -10.5140    7.8260 C.ar  198  PHE198     -0.0003
     87  CZ       -16.8080  -10.0440    8.7520 C.ar  198  PHE198     -0.0000
     88  N        -19.1800  -10.3930   13.2260 N.3   209  THR209     -0.1203
     89  CA       -20.1150   -9.3000   13.1070 C.3   209  THR209      0.1994
     90  C        -20.1190   -8.7260   11.6960 C.2   209  THR209      0.2618
     91  O        -19.0780   -8.2270   11.2530 O.2   209  THR209     -0.2717
     92  CB       -19.7410   -8.1720   14.0510 C.3   209  THR209      0.1784
     93  OG1      -18.3650   -7.8390   13.8820 O.3   209  THR209     -0.2211
     94  CG2      -19.9510   -8.6600   15.4570 C.3   209  THR209      0.0376
     95  N        -21.2460   -8.8610   11.0020 N.am  210  LEU210     -0.1965
     96  CA       -21.3900   -8.4040    9.5780 C.3   210  LEU210      0.1728
     97  C        -22.3260   -7.2220    9.5460 C.2   210  LEU210      0.2616
     98  O        -23.4190   -7.2480   10.1190 O.2   210  LEU210     -0.2715
     99  CB       -21.9910   -9.5280    8.7410 C.3   210  LEU210      0.0311
    100  CG       -22.3550   -9.2000    7.2990 C.3   210  LEU210      0.0022
    101  CD1      -21.1560   -8.7630    6.4890 C.3   210  LEU210      0.0001
    102  CD2      -22.9190  -10.4450    6.6510 C.3   210  LEU210      0.0001
    103  N        -21.9240   -6.1310    8.9120 N.am  211  THR211     -0.1951
    104  CA       -22.7760   -4.9580    8.9420 C.3   211  THR211      0.1897
    105  C        -24.1200   -5.1310    8.2360 C.2   211  THR211      0.2313
    106  O        -25.1250   -4.6920    8.7950 O.2   211  THR211     -0.2863
    107  CB       -22.0600   -3.7070    8.4330 C.3   211  THR211      0.1794
    108  OG1      -21.4810   -4.0260    7.1700 O.3   211  THR211     -0.2208
    109  CG2      -20.9860   -3.2980    9.4030 C.3   211  THR211      0.0378
    110  N        -23.6810   -6.0550    1.6950 N.3   215  ILE215     -0.1245
    111  CA       -22.5560   -5.1040    1.5260 C.3   215  ILE215      0.1561
    112  C        -21.3780   -5.7060    0.7500 C.2   215  ILE215      0.2260
    113  O        -21.0810   -6.8840    0.8680 O.2   215  ILE215     -0.2867
    114  CB       -22.1090   -4.5200    2.9040 C.3   215  ILE215      0.0252
    115  CG1      -21.3260   -3.2180    2.7520 C.3   215  ILE215      0.0019
    116  CG2      -21.3910   -5.5440    3.7640 C.3   215  ILE215      0.0019
    117  CD1      -21.4710   -2.3260    3.9570 C.3   215  ILE215      0.0001
    118  N        -17.3180   -4.8260   -1.0540 N.3   217  ARG217     -0.1245
    119  CA       -16.1560   -3.9700   -1.2580 C.3   217  ARG217      0.1563
    120  C        -15.2980   -4.5200   -2.3640 C.2   217  ARG217      0.2260
    121  O        -15.2830   -5.7190   -2.6140 O.2   217  ARG217     -0.2867
    122  CB       -15.3260   -3.8340    0.0220 C.3   217  ARG217      0.0307
    123  CG       -16.0470   -3.1730    1.1710 C.3   217  ARG217      0.0489
    124  CD       -16.1800   -1.6690    0.9840 C.3   217  ARG217      0.2205
    125  NE       -16.8390   -0.9570    2.0570 N.pl3 217  ARG217     -0.0865
    126  CZ       -18.1300   -0.6150    2.0760 C.cat 217  ARG217      0.5346
    127  NH1      -18.9460   -0.9800    1.1060 N.pl3 217  ARG217      0.1354
    128  NH2      -18.6160    0.0910    3.0910 N.pl3 217  ARG217      0.1354
    129  N        -11.4250   -5.2040   -3.5700 N.3   219  PHE219     -0.1241
    130  CA       -10.2080   -5.5360   -2.8640 C.3   219  PHE219      0.1605
    131  C         -9.0000   -5.7150   -3.8030 C.2   219  PHE219      0.2264
    132  O         -9.1000   -6.2270   -4.9320 O.2   219  PHE219     -0.2867
    133  CB       -10.3480   -6.8240   -2.0690 C.3   219  PHE219      0.0534
    134  CG       -11.2330   -6.7250   -0.8630 C.ar  219  PHE219     -0.0203
    135  CD1      -10.7720   -6.2110    0.3350 C.ar  219  PHE219     -0.0042
    136  CD2      -12.5420   -7.1740   -0.9090 C.ar  219  PHE219     -0.0042
    137  CE1      -11.5750   -6.1270    1.4490 C.ar  219  PHE219     -0.0003
    138  CE2      -13.3640   -7.0760    0.2050 C.ar  219  PHE219     -0.0003
    139  CZ       -12.8690   -6.6010    1.3960 C.ar  219  PHE219     -0.0000
    140  N        -19.1630   -9.1180    1.5190 N.3   252  ILE252     -0.1245
    141  CA       -18.5120   -9.3320    2.8030 C.3   252  ILE252      0.1561
    142  C        -19.0530  -10.6030    3.4820 C.2   252  ILE252      0.2260
    143  O        -18.2930  -11.3130    4.0990 O.2   252  ILE252     -0.2867
    144  CB       -18.5910   -8.1060    3.6920 C.3   252  ILE252      0.0252
    145  CG1      -18.0030   -6.8640    2.9980 C.3   252  ILE252      0.0019
    146  CG2      -17.8890   -8.3730    5.0060 C.3   252  ILE252      0.0019
    147  CD1      -16.5660   -6.9970    2.4860 C.3   252  ILE252      0.0001
    148  N        -23.6490    1.4510    9.2970 N.3   276  ARG276     -0.1245
    149  CA       -23.2690    2.5530   10.1790 C.3   276  ARG276      0.1563
    150  C        -23.4310    3.8950    9.5070 C.2   276  ARG276      0.2260
    151  O        -23.5970    3.9810    8.2950 O.2   276  ARG276     -0.2867
    152  CB       -21.8440    2.3530   10.6640 C.3   276  ARG276      0.0307
    153  CG       -21.7670    1.0390   11.4240 C.3   276  ARG276      0.0489
    154  CD       -20.3890    0.5810   11.7640 C.3   276  ARG276      0.2205
    155  NE       -19.6910    0.2170   10.5700 N.pl3 276  ARG276     -0.0865
    156  CZ       -18.4170   -0.1600   10.5550 C.cat 276  ARG276      0.5346
    157  NH1      -17.7130   -0.1940   11.6770 N.pl3 276  ARG276      0.1354
    158  NH2      -17.8570   -0.4930    9.4240 N.pl3 276  ARG276      0.1354
    159  N        -21.9880    4.9830    5.9100 N.3   279  GLU279     -0.1245
    160  CA       -21.4700    3.8020    5.2160 C.3   279  GLU279      0.1567
    161  C        -22.2550    3.4340    3.9690 C.2   279  GLU279      0.2260
    162  O        -23.4830    3.3980    3.9920 O.2   279  GLU279     -0.2867
    163  CB       -21.5140    2.6230    6.1740 C.3   279  GLU279      0.0388
    164  CG       -20.7740    1.3720    5.7700 C.3   279  GLU279      0.1160
    165  CD       -20.3880    0.4820    6.9660 C.2   279  GLU279      0.3649
    166  OE1      -21.1500    0.3330    7.9560 O.co2 279  GLU279     -0.2457
    167  OE2      -19.2930   -0.0990    6.8960 O.co2 279  GLU279     -0.2457
@<TRIPOS>BOND
     1   132   131    2
     2   131   130    1
     3   129   130    1
     4   130   133    1
     5   121   120    2
     6   120   119    1
     7   133   134    1
     8    34    35    1
     9    43    44    1
    10    46    45    2
    11   119   118    1
    12   119   122    1
    13    36    35    1
    14    36    37    2
    15   136   134   ar
    16   136   138   ar
    17   134   135   ar
    18    35    38    1
    19    45    44    1
    20    44    47    1
    21   122   123    1
    22   138   139   ar
    23    49    48    2
    24   135   137   ar
    25    47    48    1
    26   112   113    2
    27   112   111    1
    28    38    39    1
    29   124   123    1
    30   124   125    1
    31    48    50   am
    32   127   126    1
    33    39    40    1
    34   139   137   ar
    35   140   141    1
    36   111   110    1
    37   111   114    1
    38   125   126    2
    39   126   128    1
    40    42    41    1
    41   147   145    1
    42    40    41    1
    43   115   114    1
    44   115   117    1
    45   141   142    1
    46   141   144    1
    47   114   116    1
    48   145   144    1
    49   142   143    2
    50   144   146    1
    51   161   162    2
    52   161   160    1
    53   160   159    1
    54   160   163    1
    55   164   163    1
    56   164   165    1
    57    66    65    1
    58    26    24    1
    59   101   100    1
    60     5     2    1
    61     5     6    1
    62   102   100    1
    63     7     6    1
    64     7     8    1
    65   167   165   ar
    66   165   166   ar
    67     4     3    2
    68   108   107    1
    69     9     8    1
    70    60    59    1
    71   100    99    1
    72     2     3    1
    73     2     1    1
    74    65    67    1
    75    65    62    1
    76    59    56    1
    77    24    25    1
    78    24    21    1
    79    86    84   ar
    80    86    87   ar
    81     3    10   am
    82    61    62    1
    83    61    57   am
    84   105   106    2
    85   105   104    1
    86    84    82   ar
    87   151   150    2
    88    62    63    1
    89   107   104    1
    90   107   109    1
    91    63    64    2
    92    21    20    1
    93    21    22    1
    94    99    96    1
    95    87    85   ar
    96    56    57    1
    97    56    55    1
    98   103   104    1
    99   103    97   am
   100    20    12   am
   101    57    58    2
   102    10    11    1
   103   148   149    1
   104   158   156    1
   105   150   149    1
   106    97    96    1
   107    97    98    2
   108    96    95    1
   109    82    81    1
   110    82    83   ar
   111    12    11    1
   112    12    13    2
   113    11    14    1
   114    55    53   am
   115    81    78    1
   116    22    23    2
   117    22    27   am
   118    85    83   ar
   119   149   152    1
   120   156   155    2
   121   156   157    1
   122   155   154    1
   123   152   153    1
   124    53    54    2
   125    53    52    1
   126    33    27    1
   127    33    32    1
   128    27    28    1
   129    95    90   am
   130    51    52    1
   131    14    15    1
   132    17    15   ar
   133    17    19   ar
   134    91    90    2
   135    15    16   ar
   136    19    18   ar
   137   153   154    1
   138    16    18   ar
   139    78    77    1
   140    78    79    1
   141    77    70   am
   142    90    89    1
   143    32    31    1
   144    68    69    1
   145    79    80    2
   146    28    31    1
   147    28    29    1
   148    72    69    1
   149    72    73    1
   150    70    69    1
   151    70    71    2
   152    29    30    2
   153    89    88    1
   154    89    92    1
   155    73    74    1
   156    93    92    1
   157    92    94    1
   158    74    75    2
   159    75    76    1
