@<TRIPOS>MOLECULE
tmp/5bjzA01.pdb
 102 100 0 0 0
SMALL
GASTEIGER

@<TRIPOS>ATOM
      1  N        -29.5250   -2.2040  158.6210 N.3   117  TYR117     -0.1241
      2  CA       -30.6740   -1.5200  158.0480 C.3   117  TYR117      0.1605
      3  C        -31.6980   -2.5260  157.5300 C.2   117  TYR117      0.2264
      4  O        -31.3580   -3.6480  157.1490 O.2   117  TYR117     -0.2867
      5  CB       -30.2470   -0.5450  156.9170 C.3   117  TYR117      0.0534
      6  CG       -29.7640   -1.2150  155.6550 C.ar  117  TYR117     -0.0201
      7  CD1      -28.4790   -1.7480  155.5670 C.ar  117  TYR117     -0.0009
      8  CD2      -30.5860   -1.2900  154.5360 C.ar  117  TYR117     -0.0009
      9  CE1      -28.0430   -2.3600  154.4050 C.ar  117  TYR117      0.0417
     10  CE2      -30.1580   -1.8920  153.3750 C.ar  117  TYR117      0.0417
     11  CZ       -28.8930   -2.4190  153.3070 C.ar  117  TYR117      0.1957
     12  OH       -28.4880   -3.0220  152.1490 O.3   117  TYR117     -0.2866
     13  N        -33.9720   -3.6680  154.7980 N.3   119  LYS119     -0.1245
     14  CA       -34.0010   -3.4950  153.3480 C.3   119  LYS119      0.1561
     15  C        -35.4050   -3.1910  152.8310 C.2   119  LYS119      0.2260
     16  O        -35.5500   -2.5100  151.8090 O.2   119  LYS119     -0.2867
     17  CB       -33.4470   -4.7410  152.6590 C.3   119  LYS119      0.0271
     18  CG       -31.9460   -4.9290  152.7810 C.3   119  LYS119      0.0035
     19  CD       -31.5250   -6.2090  152.1000 C.3   119  LYS119      0.0206
     20  CE       -30.0220   -6.3740  152.1020 C.3   119  LYS119      0.1093
     21  NZ       -29.6340   -7.6380  151.4230 N.3   119  LYS119     -0.1314
     22  N        -31.9740  -12.6270  162.7750 N.3   236  ASP236     -0.1239
     23  CA       -32.3490  -13.7840  161.9640 C.3   236  ASP236      0.1674
     24  C        -33.6530  -14.4050  162.4460 C.2   236  ASP236      0.2266
     25  O        -34.4790  -14.8200  161.6320 O.2   236  ASP236     -0.2867
     26  CB       -31.2450  -14.8390  161.9900 C.3   236  ASP236      0.1410
     27  CG       -30.0110  -14.4100  161.2410 C.2   236  ASP236      0.3668
     28  OD1      -30.0490  -13.3540  160.5790 O.co2 236  ASP236     -0.2456
     29  OD2      -28.9890  -15.1230  161.3410 O.co2 236  ASP236     -0.2456
     30  N        -36.9140  -12.5370  161.3560 N.3   239  LYS239     -0.1231
     31  CA       -37.1890  -12.5950  159.9190 C.3   239  LYS239      0.1693
     32  C        -37.2260  -11.2220  159.2480 C.2   239  LYS239      0.2592
     33  O        -37.7070  -11.1120  158.1080 O.2   239  LYS239     -0.2718
     34  CB       -38.4990  -13.3380  159.6230 C.3   239  LYS239      0.0285
     35  CG       -38.5500  -14.7390  160.1920 C.3   239  LYS239      0.0035
     36  CD       -37.3880  -15.5760  159.6830 C.3   239  LYS239      0.0206
     37  CE       -37.4710  -17.0210  160.1750 C.3   239  LYS239      0.1093
     38  NZ       -36.3200  -17.8420  159.6960 N.3   239  LYS239     -0.1314
     39  N        -36.7420  -10.1660  159.9100 N.am  240  VAL240     -0.1966
     40  CA       -36.5590   -8.8940  159.2210 C.3   240  VAL240      0.1727
     41  C        -35.5410   -9.0800  158.0970 C.2   240  VAL240      0.2616
     42  O        -34.5610   -9.8260  158.2290 O.2   240  VAL240     -0.2715
     43  CB       -36.1340   -7.7970  160.2130 C.3   240  VAL240      0.0290
     44  CG1      -35.6450   -6.5550  159.4800 C.3   240  VAL240      0.0023
     45  CG2      -37.3020   -7.4350  161.1310 C.3   240  VAL240      0.0023
     46  N        -35.8120   -8.4630  156.9520 N.am  241  ASN241     -0.1958
     47  CA       -34.9300   -8.5480  155.7870 C.3   241  ASN241      0.1819
     48  C        -33.8500   -7.4780  155.9280 C.2   241  ASN241      0.2621
     49  O        -33.9910   -6.3560  155.4430 O.2   241  ASN241     -0.2715
     50  CB       -35.7370   -8.3790  154.5040 C.3   241  ASN241      0.1195
     51  CG       -34.8900   -8.4820  153.2660 C.2   241  ASN241      0.2630
     52  OD1      -33.8390   -9.1150  153.2740 O.2   241  ASN241     -0.2716
     53  ND2      -35.3530   -7.8710  152.1780 N.am  241  ASN241     -0.0877
     54  N        -32.7540   -7.8220  156.6040 N.am  242  TYR242     -0.1960
     55  CA       -31.7700   -6.8300  157.0110 C.3   242  TYR242      0.1771
     56  C        -30.4880   -6.9280  156.1910 C.2   242  TYR242      0.2620
     57  O        -30.1920   -7.9430  155.5490 O.2   242  TYR242     -0.2715
     58  CB       -31.4410   -6.9550  158.5110 C.3   242  TYR242      0.0574
     59  CG       -30.6200   -8.1670  158.8890 C.ar  242  TYR242     -0.0198
     60  CD1      -31.2190   -9.4130  159.0720 C.ar  242  TYR242     -0.0009
     61  CD2      -29.2430   -8.0640  159.0750 C.ar  242  TYR242     -0.0009
     62  CE1      -30.4700  -10.5240  159.4380 C.ar  242  TYR242      0.0417
     63  CE2      -28.4780   -9.1670  159.4350 C.ar  242  TYR242      0.0417
     64  CZ       -29.0890  -10.3950  159.6120 C.ar  242  TYR242      0.1957
     65  OH       -28.3100  -11.4910  159.9740 O.3   242  TYR242     -0.2866
     66  N        -29.7380   -5.8250  156.2100 N.am  243  GLY243     -0.1940
     67  CA       -28.4150   -5.7950  155.6310 C.3   243  GLY243      0.2014
     68  C        -27.4330   -5.1760  156.6080 C.2   243  GLY243      0.2638
     69  O        -27.8110   -4.4720  157.5400 O.2   243  GLY243     -0.2714
     70  N        -26.1520   -5.4400  156.3580 N.am  244  VAL244     -0.1977
     71  CA       -25.0430   -4.9560  157.1700 C.3   244  VAL244      0.1596
     72  C        -24.1090   -4.1840  156.2440 C.2   244  VAL244      0.2287
     73  O        -23.6750   -4.7140  155.2130 O.2   244  VAL244     -0.2864
     74  CB       -24.3250   -6.1210  157.8700 C.3   244  VAL244      0.0276
     75  CG1      -23.1440   -5.6370  158.7140 C.3   244  VAL244      0.0022
     76  CG2      -25.3210   -6.9000  158.7370 C.3   244  VAL244      0.0022
     77  N        -19.3590  -15.2200  154.3770 N.3   314  ASP314     -0.1225
     78  CA       -20.3450  -14.4510  155.1300 C.3   314  ASP314      0.1790
     79  C        -20.1870  -12.9660  154.8140 C.2   314  ASP314      0.2440
     80  O        -19.3100  -12.3050  155.3890 O.2   314  ASP314     -0.2733
     81  CB       -20.1850  -14.7070  156.6350 C.3   314  ASP314      0.1423
     82  CG       -21.3150  -14.0980  157.4720 C.2   314  ASP314      0.3668
     83  OD1      -22.1490  -13.3470  156.9240 O.co2 314  ASP314     -0.2456
     84  OD2      -21.3710  -14.3820  158.6890 O.co2 314  ASP314     -0.2456
     85  N        -21.0390  -12.3830  153.9630 N.am  315  PRO315     -0.2718
     86  CA       -20.8570  -10.9690  153.5840 C.3   315  PRO315      0.1535
     87  C        -21.0300   -9.9870  154.7390 C.2   315  PRO315      0.2598
     88  O        -20.5680   -8.8380  154.6340 O.2   315  PRO315     -0.2715
     89  CB       -21.9280  -10.7550  152.5010 C.3   315  PRO315      0.0310
     90  CG       -22.9730  -11.7950  152.7880 C.3   315  PRO315      0.0237
     91  CD       -22.2520  -12.9790  153.3670 C.3   315  PRO315      0.0939
     92  N        -21.6850  -10.3910  155.8300 N.am  316  ARG316     -0.1978
     93  CA       -21.7500   -9.5290  157.0040 C.3   316  ARG316      0.1597
     94  C        -20.3710   -9.3490  157.6380 C.2   316  ARG316      0.2287
     95  O        -20.1010   -8.3100  158.2570 O.2   316  ARG316     -0.2864
     96  CB       -22.7350  -10.1180  158.0180 C.3   316  ARG316      0.0334
     97  CG       -24.1540  -10.3630  157.4750 C.3   316  ARG316      0.0492
     98  CD       -24.9810  -11.2540  158.4040 C.3   316  ARG316      0.2205
     99  NE       -24.3150  -12.5240  158.7030 N.pl3 316  ARG316     -0.0865
    100  CZ       -24.7670  -13.4310  159.5670 C.cat 316  ARG316      0.5346
    101  NH1      -25.8990  -13.2320  160.2320 N.pl3 316  ARG316      0.1354
    102  NH2      -24.0850  -14.5430  159.7730 N.pl3 316  ARG316      0.1354
@<TRIPOS>BOND
     1    21    20    1
     2    16    15    2
     3    19    20    1
     4    19    18    1
     5    12    11    1
     6    53    51   am
     7    89    90    1
     8    89    86    1
     9    17    18    1
    10    17    14    1
    11    90    91    1
    12    15    14    1
    13    51    52    2
    14    51    50    1
    15    11    10   ar
    16    11     9   ar
    17    14    13    1
    18    91    85    1
    19    10     8   ar
    20    86    85    1
    21    86    87    1
    22    85    79   am
    23    77    78    1
    24     9     7   ar
    25    50    47    1
    26     8     6   ar
    27    88    87    2
    28    87    92   am
    29    79    78    1
    30    79    80    2
    31    78    81    1
    32    73    72    2
    33    49    48    2
    34    57    56    2
    35     7     6   ar
    36    67    66    1
    37    67    68    1
    38     6     5    1
    39    47    48    1
    40    47    46    1
    41    92    93    1
    42    48    54   am
    43    56    66   am
    44    56    55    1
    45    72    71    1
    46    70    68   am
    47    70    71    1
    48    54    55    1
    49    68    69    2
    50    81    82    1
    51     5     2    1
    52    83    82   ar
    53    46    41   am
    54    93    94    1
    55    93    96    1
    56    55    58    1
    57     4     3    2
    58    71    74    1
    59    82    84   ar
    60    97    96    1
    61    97    98    1
    62     3     2    1
    63    94    95    2
    64    74    75    1
    65    74    76    1
    66     2     1    1
    67    41    42    2
    68    41    40    1
    69    33    32    2
    70    98    99    1
    71    58    59    1
    72    99   100    2
    73    59    60   ar
    74    59    61   ar
    75    60    62   ar
    76    61    63   ar
    77    40    39    1
    78    40    43    1
    79    32    39   am
    80    32    31    1
    81    63    64   ar
    82    62    64   ar
    83    44    43    1
    84   100   102    1
    85   100   101    1
    86    64    65    1
    87    34    31    1
    88    34    35    1
    89    36    37    1
    90    36    35    1
    91    38    37    1
    92    31    30    1
    93    43    45    1
    94    28    27   ar
    95    27    29   ar
    96    27    26    1
    97    25    24    2
    98    23    26    1
    99    23    24    1
   100    23    22    1
