@<TRIPOS>MOLECULE
tmp/5bk3A00.pdb
 79 78 0 0 0
SMALL
GASTEIGER

@<TRIPOS>ATOM
      1  N         27.7560   36.8730   26.0390 N.3    30  PHE30      -0.1241
      2  CA        28.8560   35.9490   25.8360 C.3    30  PHE30       0.1605
      3  C         29.8670   36.5850   24.8940 C.2    30  PHE30       0.2264
      4  O         29.4950   37.1360   23.8490 O.2    30  PHE30      -0.2867
      5  CB        28.3430   34.6290   25.2580 C.3    30  PHE30       0.0534
      6  CG        29.4370   33.6520   24.9060 C.ar   30  PHE30      -0.0203
      7  CD1       29.8040   33.4490   23.6010 C.ar   30  PHE30      -0.0042
      8  CD2       30.1000   32.9520   25.8900 C.ar   30  PHE30      -0.0042
      9  CE1       30.7950   32.5680   23.2860 C.ar   30  PHE30      -0.0003
     10  CE2       31.0940   32.0700   25.5680 C.ar   30  PHE30      -0.0003
     11  CZ        31.4400   31.8790   24.2610 C.ar   30  PHE30      -0.0000
     12  N         35.7440   33.0060   25.7100 N.3    35  ASN35      -0.1225
     13  CA        34.8470   31.9610   26.2110 C.3    35  ASN35       0.1785
     14  C         34.3190   32.2820   27.6180 C.2    35  ASN35       0.2597
     15  O         34.3450   31.4520   28.5300 O.2    35  ASN35      -0.2718
     16  CB        35.5650   30.6050   26.1570 C.3    35  ASN35       0.1169
     17  CG        34.6380   29.4400   26.3740 C.2    35  ASN35       0.2627
     18  OD1       33.4640   29.4870   25.9900 O.2    35  ASN35      -0.2716
     19  ND2       35.1660   28.3730   27.0000 N.am   35  ASN35      -0.0877
     20  N         33.7960   33.5010   27.7780 N.am   36  ARG36      -0.1966
     21  CA        33.3030   34.0120   29.0570 C.3    36  ARG36       0.1729
     22  C         31.9120   34.6030   28.8830 C.2    36  ARG36       0.2616
     23  O         31.6650   35.3270   27.9110 O.2    36  ARG36      -0.2715
     24  CB        34.2270   35.0960   29.6200 C.3    36  ARG36       0.0348
     25  CG        35.5230   34.6210   30.1970 C.3    36  ARG36       0.0492
     26  CD        35.3390   33.7890   31.4360 C.3    36  ARG36       0.2205
     27  NE        36.6060   33.7220   32.1580 N.pl3  36  ARG36      -0.0865
     28  CZ        36.7930   33.0790   33.3040 C.cat  36  ARG36       0.5346
     29  NH1       35.7940   32.4220   33.8850 N.pl3  36  ARG36       0.1354
     30  NH2       37.9900   33.1030   33.8700 N.pl3  36  ARG36       0.1354
     31  N         30.9970   34.2760   29.7960 N.am   37  THR37      -0.1951
     32  CA        29.6840   34.9110   29.8510 C.3    37  THR37       0.1897
     33  C         29.6410   35.8790   31.0220 C.2    37  THR37       0.2313
     34  O         29.9330   35.4930   32.1600 O.2    37  THR37      -0.2863
     35  CB        28.5440   33.9020   29.9940 C.3    37  THR37       0.1794
     36  OG1       28.5880   32.9500   28.9260 O.3    37  THR37      -0.2208
     37  CG2       27.2100   34.6330   29.9640 C.3    37  THR37       0.0378
     38  N         30.0740   34.6080   36.2660 N.3    56  TRP56      -0.1227
     39  CA        30.3820   34.0350   34.9630 C.3    56  TRP56       0.1737
     40  C         29.3230   33.0100   34.5540 C.2    56  TRP56       0.2595
     41  O         29.6380   31.9020   34.1210 O.2    56  TRP56      -0.2718
     42  CB        31.7790   33.4160   34.9710 C.3    56  TRP56       0.0564
     43  CG        32.8520   34.3990   35.3040 C.ar   56  TRP56       0.0003
     44  CD1       33.6270   34.4290   36.4370 C.ar   56  TRP56       0.0946
     45  CD2       33.2630   35.5190   34.5100 C.ar   56  TRP56       0.0152
     46  NE1       34.5080   35.4860   36.3800 N.ar   56  TRP56      -0.2442
     47  CE2       34.3010   36.1710   35.2090 C.ar   56  TRP56       0.0810
     48  CE3       32.8610   36.0290   33.2730 C.ar   56  TRP56       0.0012
     49  CZ2       34.9280   37.3100   34.7140 C.ar   56  TRP56       0.0191
     50  CZ3       33.4900   37.1580   32.7830 C.ar   56  TRP56       0.0001
     51  CH2       34.5100   37.7840   33.4970 C.ar   56  TRP56       0.0015
     52  N         28.0510   33.3460   34.7800 N.am   57  ALA57      -0.1966
     53  CA        26.9340   32.4870   34.3900 C.3    57  ALA57       0.1728
     54  C         26.8640   31.1600   35.1410 C.2    57  ALA57       0.2617
     55  O         25.7640   30.6930   35.4540 O.2    57  ALA57      -0.2715
     56  CB        26.9720   32.2020   32.8780 C.3    57  ALA57       0.0334
     57  N         28.0170   30.5160   35.3850 N.am   58  SER58      -0.1936
     58  CA        28.0310   29.1390   35.8710 C.3    58  SER58       0.2055
     59  C         29.0480   28.8480   36.9710 C.2    58  SER58       0.2643
     60  O         29.0610   27.7150   37.4740 O.2    58  SER58      -0.2714
     61  CB        28.2760   28.1580   34.7010 C.3    58  SER58       0.2130
     62  OG        29.5510   28.3550   34.0950 O.3    58  SER58      -0.2179
     63  N         29.9090   29.8000   37.3470 N.am   59  THR59      -0.1950
     64  CA        30.8870   29.5770   38.4110 C.3    59  THR59       0.1897
     65  C         30.2440   29.8670   39.7650 C.2    59  THR59       0.2313
     66  O         29.7840   30.9880   40.0200 O.2    59  THR59      -0.2863
     67  CB        32.1370   30.4370   38.2260 C.3    59  THR59       0.1794
     68  OG1       32.8730   29.9890   37.0800 O.3    59  THR59      -0.2208
     69  CG2       33.0070   30.3650   39.4460 C.3    59  THR59       0.0378
     70  N         23.5750   27.9640   31.3840 N.3    72  GLY72      -0.1210
     71  CA        23.2490   28.7950   30.2520 C.3    72  GLY72       0.1956
     72  C         24.4250   29.6380   29.8070 C.2    72  GLY72       0.2612
     73  O         25.4520   29.7650   30.4810 O.2    72  GLY72      -0.2717
     74  N         24.2420   30.2280   28.6390 N.am   73  SER73      -0.1952
     75  CA        25.2390   31.0930   28.0430 C.3    73  SER73       0.1924
     76  C         24.5470   31.9140   26.9750 C.2    73  SER73       0.2314
     77  O         23.4770   31.5410   26.4700 O.2    73  SER73      -0.2863
     78  CB        26.3960   30.3080   27.4480 C.3    73  SER73       0.2116
     79  OG        27.3710   31.2270   27.0320 O.3    73  SER73      -0.2180
@<TRIPOS>BOND
     1     9     7   ar
     2     9    11   ar
     3     7     6   ar
     4     4     3    2
     5    11    10   ar
     6     3     2    1
     7     6     5    1
     8     6     8   ar
     9     5     2    1
    10    10     8   ar
    11    12    13    1
    12     2     1    1
    13    18    17    2
    14    16    13    1
    15    16    17    1
    16    13    14    1
    17    17    19   am
    18    77    76    2
    19    76    75    1
    20    79    78    1
    21    78    75    1
    22    14    20   am
    23    14    15    2
    24    20    21    1
    25    23    22    2
    26    75    74    1
    27    74    72   am
    28    22    21    1
    29    22    31   am
    30    36    35    1
    31    21    24    1
    32    24    25    1
    33    31    32    1
    34    72    71    1
    35    72    73    2
    36    32    35    1
    37    32    33    1
    38    37    35    1
    39    25    26    1
    40    71    70    1
    41    33    34    2
    42    26    27    1
    43    27    28    2
    44    50    48   ar
    45    50    51   ar
    46    56    53    1
    47    48    45   ar
    48    28    30    1
    49    28    29    1
    50    51    49   ar
    51    62    61    1
    52    41    40    2
    53    53    52    1
    54    53    54    1
    55    45    47   ar
    56    45    43   ar
    57    40    52   am
    58    40    39    1
    59    61    58    1
    60    49    47   ar
    61    39    42    1
    62    39    38    1
    63    42    43    1
    64    54    57   am
    65    54    55    2
    66    47    46   ar
    67    43    44   ar
    68    57    58    1
    69    58    59    1
    70    46    44   ar
    71    59    63   am
    72    59    60    2
    73    68    67    1
    74    63    64    1
    75    67    64    1
    76    67    69    1
    77    64    65    1
    78    65    66    2
