@<TRIPOS>MOLECULE
tmp/5bk4H00.pdb
 138 134 0 0 0
SMALL
GASTEIGER

@<TRIPOS>ATOM
      1  N        164.0980  204.9390  180.2220 N.3   316  SER316     -0.1202
      2  CA       165.0810  205.6980  179.4640 C.3   316  SER316      0.2020
      3  C        164.4720  206.9170  178.7870 C.2   316  SER316      0.2619
      4  O        164.9330  207.3290  177.7190 O.2   316  SER316     -0.2717
      5  CB       165.7540  204.8060  178.4280 C.3   316  SER316      0.2103
      6  OG       164.8050  204.3440  177.4880 O.3   316  SER316     -0.2182
      7  N        163.4290  207.4960  179.3700 N.am  317  ILE317     -0.1965
      8  CA       162.8030  208.6990  178.8360 C.3   317  ILE317      0.1727
      9  C        162.6690  209.7050  179.9620 C.2   317  ILE317      0.2616
     10  O        162.1310  209.3820  181.0240 O.2   317  ILE317     -0.2715
     11  CB       161.4310  208.4040  178.2060 C.3   317  ILE317      0.0290
     12  CG1      161.6030  207.6480  176.8960 C.3   317  ILE317      0.0022
     13  CG2      160.6400  209.6740  177.9820 C.3   317  ILE317      0.0023
     14  CD1      160.3070  207.2170  176.3000 C.3   317  ILE317      0.0001
     15  N        163.1590  210.9160  179.7350 N.am  318  TYR318     -0.1974
     16  CA       163.1060  211.9450  180.7550 C.3   318  TYR318      0.1639
     17  C        161.7540  212.6420  180.7400 C.2   318  TYR318      0.2290
     18  O        161.1470  212.8240  179.6830 O.2   318  TYR318     -0.2864
     19  CB       164.2200  212.9610  180.5360 C.3   318  TYR318      0.0560
     20  CG       164.3040  214.0050  181.6150 C.ar  318  TYR318     -0.0198
     21  CD1      164.8800  213.7120  182.8410 C.ar  318  TYR318     -0.0009
     22  CD2      163.7960  215.2780  181.4150 C.ar  318  TYR318     -0.0009
     23  CE1      164.9540  214.6600  183.8330 C.ar  318  TYR318      0.0417
     24  CE2      163.8610  216.2310  182.4020 C.ar  318  TYR318      0.0417
     25  CZ       164.4430  215.9180  183.6070 C.ar  318  TYR318      0.1957
     26  OH       164.5110  216.8730  184.5920 O.3   318  TYR318     -0.2866
     27  N        157.7500  213.9190  181.5820 N.3   320  HIS320     -0.1241
     28  CA       156.4130  213.5100  181.1420 C.3   320  HIS320      0.1621
     29  C        155.7990  212.4590  182.0680 C.2   320  HIS320      0.2264
     30  O        155.5510  211.3210  181.6770 O.2   320  HIS320     -0.2867
     31  CB       156.4400  213.0020  179.6990 C.3   320  HIS320      0.0745
     32  CG       157.0490  213.9630  178.7360 C.ar  320  HIS320      0.0817
     33  ND1      156.4310  215.1350  178.3610 N.ar  320  HIS320     -0.2268
     34  CD2      158.2210  213.9210  178.0620 C.ar  320  HIS320      0.1154
     35  CE1      157.2020  215.7790  177.5030 C.ar  320  HIS320      0.1986
     36  NE2      158.2930  215.0620  177.3030 N.ar  320  HIS320     -0.2212
     37  N        158.0850  217.8350  166.4740 N.3   357  PRO357     -0.2102
     38  CA       158.9130  216.6650  166.1570 C.3   357  PRO357      0.1504
     39  C        160.0840  216.5250  167.1190 C.2   357  PRO357      0.2576
     40  O        160.4620  217.4630  167.8250 O.2   357  PRO357     -0.2718
     41  CB       159.3920  216.9450  164.7320 C.3   357  PRO357      0.0282
     42  CG       158.3630  217.8620  164.1680 C.3   357  PRO357      0.0208
     43  CD       157.9300  218.7230  165.3100 C.3   357  PRO357      0.0893
     44  N        160.6560  215.3150  167.1190 N.am  358  SER358     -0.1938
     45  CA       161.7540  214.8900  167.9970 C.3   358  SER358      0.2055
     46  C        161.3800  215.0510  169.4670 C.2   358  SER358      0.2644
     47  O        162.0810  215.6860  170.2530 O.2   358  SER358     -0.2714
     48  CB       163.0540  215.6380  167.6910 C.3   358  SER358      0.2130
     49  OG       162.9600  216.9760  168.1460 O.3   358  SER358     -0.2179
     50  N        160.2530  214.4590  169.8280 N.am  359  THR359     -0.1936
     51  CA       159.7510  214.6030  171.1790 C.3   359  THR359      0.2028
     52  C        159.3880  213.2460  171.7720 C.2   359  THR359      0.2642
     53  O        158.5760  213.1830  172.7040 O.2   359  THR359     -0.2714
     54  CB       158.5500  215.5520  171.1800 C.3   359  THR359      0.1808
     55  OG1      158.7430  216.5220  170.1430 O.3   359  THR359     -0.2208
     56  CG2      158.5510  216.3590  172.4420 C.3   359  THR359      0.0379
     57  N        159.9530  212.1620  171.2240 N.am  360  ALA360     -0.1963
     58  CA       159.7370  210.7760  171.6540 C.3   360  ALA360      0.1728
     59  C        158.2660  210.3800  171.6010 C.2   360  ALA360      0.2616
     60  O        157.8080  209.5340  172.3660 O.2   360  ALA360     -0.2715
     61  CB       160.3240  210.5140  173.0410 C.3   360  ALA360      0.0334
     62  N        157.5150  210.9860  170.6820 N.am  361  LYS361     -0.1963
     63  CA       156.1270  210.5890  170.5330 C.3   361  LYS361      0.1728
     64  C        155.9920  209.2870  169.7660 C.2   361  LYS361      0.2617
     65  O        155.0020  208.5800  169.9590 O.2   361  LYS361     -0.2715
     66  CB       155.3110  211.6880  169.8520 C.3   361  LYS361      0.0311
     67  CG       155.6950  211.9660  168.4190 C.3   361  LYS361      0.0038
     68  CD       154.7250  212.9120  167.7360 C.3   361  LYS361      0.0206
     69  CE       154.9050  214.3490  168.1720 C.3   361  LYS361      0.1093
     70  NZ       154.0400  215.2490  167.3600 N.3   361  LYS361     -0.1314
     71  N        156.9620  208.9400  168.9200 N.am  362  SER362     -0.1936
     72  CA       156.9200  207.6540  168.2380 C.3   362  SER362      0.2055
     73  C        157.6450  206.5740  169.0090 C.2   362  SER362      0.2642
     74  O        157.3930  205.3880  168.7810 O.2   362  SER362     -0.2714
     75  CB       157.5350  207.7490  166.8410 C.3   362  SER362      0.2130
     76  OG       156.7800  208.5970  166.0000 O.3   362  SER362     -0.2179
     77  N        158.5500  206.9520  169.9040 N.am  363  GLN363     -0.1976
     78  CA       159.2530  205.9390  170.6720 C.3   363  GLN363      0.1601
     79  C        158.3560  205.3660  171.7550 C.2   363  GLN363      0.2287
     80  O        158.4990  204.1980  172.1310 O.2   363  GLN363     -0.2864
     81  CB       160.5260  206.5300  171.2660 C.3   363  GLN363      0.0394
     82  CG       161.4320  205.5000  171.8740 C.3   363  GLN363      0.0908
     83  CD       161.9220  204.5150  170.8410 C.2   363  GLN363      0.2608
     84  OE1      162.3080  204.8970  169.7420 O.2   363  GLN363     -0.2717
     85  NE2      161.8840  203.2360  171.1800 N.am  363  GLN363     -0.0878
     86  N        150.6010  208.9430  162.5500 N.3   420  GLU420     -0.1245
     87  CA       150.3510  209.9280  161.4960 C.3   420  GLU420      0.1567
     88  C        148.8560  210.0750  161.2240 C.2   420  GLU420      0.2260
     89  O        148.3490  209.7470  160.1540 O.2   420  GLU420     -0.2867
     90  CB       151.1250  209.5830  160.2250 C.3   420  GLU420      0.0388
     91  CG       152.6130  209.6670  160.4120 C.3   420  GLU420      0.1160
     92  CD       153.0850  211.0870  160.6350 C.2   420  GLU420      0.3649
     93  OE1      152.4650  212.0160  160.0750 O.co2 420  GLU420     -0.2457
     94  OE2      154.0800  211.2780  161.3640 O.co2 420  GLU420     -0.2457
     95  N        150.7090  215.3690  163.7650 N.3   463  ASN463     -0.1240
     96  CA       151.5790  216.5230  163.6340 C.3   463  ASN463      0.1653
     97  C        150.7750  217.8150  163.6660 C.2   463  ASN463      0.2266
     98  O        149.5670  217.8090  163.4290 O.2   463  ASN463     -0.2867
     99  CB       152.3600  216.4380  162.3300 C.3   463  ASN463      0.1155
    100  CG       153.3700  215.3230  162.3350 C.2   463  ASN463      0.2627
    101  OD1      153.2690  214.3740  161.5620 O.2   463  ASN463     -0.2716
    102  ND2      154.3590  215.4310  163.2120 N.am  463  ASN463     -0.0877
    103  N        167.3780  222.1760  181.7460 N.3   503  ARG503     -0.1245
    104  CA       166.7520  221.1120  180.9710 C.3   503  ARG503      0.1563
    105  C        167.7570  220.4560  180.0320 C.2   503  ARG503      0.2260
    106  O        167.7220  219.2380  179.8300 O.2   503  ARG503     -0.2867
    107  CB       165.5650  221.6830  180.1970 C.3   503  ARG503      0.0307
    108  CG       164.8070  220.6830  179.3560 C.3   503  ARG503      0.0489
    109  CD       164.1010  219.6710  180.2270 C.3   503  ARG503      0.2205
    110  NE       163.3110  218.7350  179.4360 N.pl3 503  ARG503     -0.0865
    111  CZ       162.0370  218.9250  179.1170 C.cat 503  ARG503      0.5346
    112  NH1      161.3900  218.0230  178.3940 N.pl3 503  ARG503      0.1354
    113  NH2      161.4070  220.0170  179.5280 N.pl3 503  ARG503      0.1354
    114  N        168.6370  216.5020  180.4360 N.3   507  ILE507     -0.1245
    115  CA       168.5880  215.6510  179.2530 C.3   507  ILE507      0.1561
    116  C        169.9600  215.0550  178.9760 C.2   507  ILE507      0.2260
    117  O        170.0780  213.8630  178.6520 O.2   507  ILE507     -0.2867
    118  CB       168.0410  216.4470  178.0530 C.3   507  ILE507      0.0252
    119  CG1      166.5430  216.6980  178.2160 C.3   507  ILE507      0.0019
    120  CG2      168.3060  215.7480  176.7440 C.3   507  ILE507      0.0019
    121  CD1      165.7260  215.4460  178.2310 C.3   507  ILE507      0.0001
    122  N        171.3430  212.0850  181.1710 N.3   510  HIS510     -0.1226
    123  CA       170.4410  210.9510  180.9860 C.3   510  HIS510      0.1752
    124  C        170.7380  210.2270  179.6800 C.2   510  HIS510      0.2595
    125  O        170.9040  208.9990  179.6610 O.2   510  HIS510     -0.2718
    126  CB       168.9910  211.4290  181.0150 C.3   510  HIS510      0.0759
    127  CG       167.9870  210.3230  181.0080 C.ar  510  HIS510      0.0818
    128  ND1      166.6500  210.5370  180.7590 N.ar  510  HIS510     -0.2268
    129  CD2      168.1190  208.9950  181.2330 C.ar  510  HIS510      0.1154
    130  CE1      166.0030  209.3870  180.8210 C.ar  510  HIS510      0.1986
    131  NE2      166.8720  208.4360  181.1070 N.ar  510  HIS510     -0.2212
    132  N        170.8270  210.9800  178.5820 N.am  511  VAL511     -0.1980
    133  CA       171.1220  210.3770  177.2890 C.3   511  VAL511      0.1595
    134  C        172.5330  209.8060  177.2690 C.2   511  VAL511      0.2287
    135  O        172.7660  208.7400  176.6890 O.2   511  VAL511     -0.2864
    136  CB       170.8880  211.4180  176.1770 C.3   511  VAL511      0.0276
    137  CG1      171.3160  210.9050  174.8300 C.3   511  VAL511      0.0022
    138  CG2      169.4230  211.7830  176.1160 C.3   511  VAL511      0.0022
@<TRIPOS>BOND
     1    93    92   ar
     2    89    88    2
     3    90    91    1
     4    90    87    1
     5    91    92    1
     6    92    94   ar
     7    88    87    1
     8    87    86    1
     9   101   100    2
    10    99   100    1
    11    99    96    1
    12   100   102   am
    13    98    97    2
    14    96    97    1
    15    96    95    1
    16    42    41    1
    17    42    43    1
    18    41    38    1
    19    43    37    1
    20    76    75    1
    21    38    37    1
    22    38    39    1
    23    75    72    1
    24    44    39   am
    25    44    45    1
    26    39    40    2
    27    70    69    1
    28    48    45    1
    29    48    49    1
    30    68    69    1
    31    68    67    1
    32    45    46    1
    33    72    71    1
    34    72    73    1
    35    67    66    1
    36    74    73    2
    37    71    64   am
    38    73    77   am
    39    46    50   am
    40    46    47    2
    41    84    83    2
    42    64    65    2
    43    64    63    1
    44    50    51    1
    45    66    63    1
    46    77    78    1
    47    55    54    1
    48    63    62    1
    49    78    81    1
    50    78    79    1
    51    62    59   am
    52    83    85   am
    53    83    82    1
    54    51    54    1
    55    51    52    1
    56    54    56    1
    57    57    58    1
    58    57    52   am
    59    81    82    1
    60    59    58    1
    61    59    60    2
    62    58    61    1
    63    79    80    2
    64    52    53    2
    65   137   136    1
    66   138   136    1
    67   136   133    1
    68    14    12    1
    69   135   134    2
    70   120   118    1
    71    12    11    1
    72   134   133    1
    73   133   132    1
    74    36    35   ar
    75    36    34   ar
    76     6     5    1
    77    35    33   ar
    78     4     3    2
    79    13    11    1
    80   118   119    1
    81   118   115    1
    82    34    32   ar
    83    11     8    1
    84   119   121    1
    85    33    32   ar
    86   112   111    1
    87     5     2    1
    88   132   124   am
    89   117   116    2
    90    32    31    1
    91     3     7   am
    92     3     2    1
    93     8     7    1
    94     8     9    1
    95   116   115    1
    96   111   110    2
    97   111   113    1
    98   115   114    1
    99   108   107    1
   100   108   109    1
   101   110   109    1
   102     2     1    1
   103   125   124    2
   104   124   123    1
   105    18    17    2
   106    31    28    1
   107    15     9   am
   108    15    16    1
   109   106   105    2
   110     9    10    2
   111   105   104    1
   112   107   104    1
   113    19    16    1
   114    19    20    1
   115    17    16    1
   116   128   130   ar
   117   128   127   ar
   118   130   131   ar
   119   104   103    1
   120   123   126    1
   121   123   122    1
   122   127   126    1
   123   127   129   ar
   124   131   129   ar
   125    28    27    1
   126    28    29    1
   127    22    20   ar
   128    22    24   ar
   129    20    21   ar
   130    30    29    2
   131    24    25   ar
   132    21    23   ar
   133    25    23   ar
   134    25    26    1
