@<TRIPOS>MOLECULE
tmp/5bk4J01.pdb
 121 117 0 0 0
SMALL
GASTEIGER

@<TRIPOS>ATOM
      1  N        188.5540  208.5450  140.8540 N.3   345  SER345     -0.1202
      2  CA       188.1380  209.2950  139.6840 C.3   345  SER345      0.2020
      3  C        187.5210  210.6370  140.0260 C.2   345  SER345      0.2619
      4  O        187.6510  211.5840  139.2500 O.2   345  SER345     -0.2717
      5  CB       187.1390  208.4740  138.8750 C.3   345  SER345      0.2103
      6  OG       186.6690  209.2190  137.7710 O.3   345  SER345     -0.2182
      7  N        186.8450  210.7430  141.1620 N.am  346  ILE346     -0.1965
      8  CA       186.2180  211.9970  141.5610 C.3   346  ILE346      0.1727
      9  C        187.2630  212.8890  142.2110 C.2   346  ILE346      0.2616
     10  O        187.9260  212.4930  143.1760 O.2   346  ILE346     -0.2715
     11  CB       185.0340  211.7480  142.5100 C.3   346  ILE346      0.0290
     12  CG1      183.8630  211.0780  141.7830 C.3   346  ILE346      0.0022
     13  CG2      184.5990  213.0380  143.1760 C.3   346  ILE346      0.0023
     14  CD1      183.8120  209.5680  141.9080 C.3   346  ILE346      0.0001
     15  N        187.4160  214.0910  141.6820 N.am  347  PHE347     -0.1974
     16  CA       188.3100  215.0810  142.2510 C.3   347  PHE347      0.1639
     17  C        187.5420  215.9470  143.2350 C.2   347  PHE347      0.2290
     18  O        186.3560  216.2210  143.0380 O.2   347  PHE347     -0.2864
     19  CB       188.9170  215.9480  141.1520 C.3   347  PHE347      0.0560
     20  CG       189.8660  216.9840  141.6540 C.ar  347  PHE347     -0.0200
     21  CD1      191.1500  216.6380  142.0220 C.ar  347  PHE347     -0.0042
     22  CD2      189.4720  218.3060  141.7610 C.ar  347  PHE347     -0.0042
     23  CE1      192.0270  217.5920  142.4820 C.ar  347  PHE347     -0.0003
     24  CE2      190.3420  219.2620  142.2230 C.ar  347  PHE347     -0.0003
     25  CZ       191.6220  218.9050  142.5840 C.ar  347  PHE347     -0.0000
     26  N        185.9750  217.4150  146.9750 N.3   349  ASN349     -0.1240
     27  CA       184.9070  217.0180  147.8970 C.3   349  ASN349      0.1653
     28  C        185.3960  215.9840  148.9120 C.2   349  ASN349      0.2266
     29  O        184.9020  214.8590  148.9860 O.2   349  ASN349     -0.2867
     30  CB       183.6840  216.5090  147.1300 C.3   349  ASN349      0.1155
     31  CG       183.0200  217.5940  146.3270 C.2   349  ASN349      0.2627
     32  OD1      182.8520  218.7160  146.8050 O.2   349  ASN349     -0.2716
     33  ND2      182.6500  217.2770  145.0920 N.am  349  ASN349     -0.0877
     34  N        174.0400  219.9540  139.7350 N.3   386  PRO386     -0.2102
     35  CA       174.5860  218.9220  138.8490 C.3   386  PRO386      0.1504
     36  C        176.0140  219.2450  138.4530 C.2   386  PRO386      0.2576
     37  O        176.4100  220.4090  138.3680 O.2   386  PRO386     -0.2718
     38  CB       173.6500  218.9590  137.6390 C.3   386  PRO386      0.0282
     39  CG       173.0540  220.3100  137.6730 C.3   386  PRO386      0.0208
     40  CD       172.9050  220.6530  139.1160 C.3   386  PRO386      0.0893
     41  N        176.7940  218.1970  138.2210 N.am  387  GLY387     -0.1943
     42  CA       178.2250  218.3390  138.0800 C.3   387  GLY387      0.2014
     43  C        178.9970  217.9620  139.3160 C.2   387  GLY387      0.2640
     44  O        180.2320  217.9490  139.2820 O.2   387  GLY387     -0.2714
     45  N        178.3020  217.6520  140.4040 N.am  388  THR388     -0.1936
     46  CA       178.9220  217.0930  141.5920 C.3   388  THR388      0.2028
     47  C        179.3720  215.6540  141.3530 C.2   388  THR388      0.2642
     48  O        180.2880  215.1790  142.0350 O.2   388  THR388     -0.2714
     49  CB       177.9100  217.2060  142.7430 C.3   388  THR388      0.1808
     50  OG1      177.4700  218.5660  142.8420 O.3   388  THR388     -0.2208
     51  CG2      178.4960  216.8090  144.0890 C.3   388  THR388      0.0379
     52  N        178.7850  214.9950  140.3460 N.am  389  ALA389     -0.1963
     53  CA       178.9440  213.5650  140.0660 C.3   389  ALA389      0.1728
     54  C        178.5860  212.7280  141.2830 C.2   389  ALA389      0.2616
     55  O        179.2200  211.7150  141.5820 O.2   389  ALA389     -0.2715
     56  CB       180.3420  213.2160  139.5540 C.3   389  ALA389      0.0334
     57  N        177.5430  213.1570  141.9860 N.am  390  LYS390     -0.1963
     58  CA       177.0690  212.4060  143.1340 C.3   390  LYS390      0.1728
     59  C        176.4010  211.1060  142.7130 C.2   390  LYS390      0.2617
     60  O        176.4310  210.1270  143.4660 O.2   390  LYS390     -0.2715
     61  CB       176.1440  213.2980  143.9500 C.3   390  LYS390      0.0311
     62  CG       175.0240  213.8910  143.1430 C.3   390  LYS390      0.0038
     63  CD       174.3440  214.9950  143.9120 C.3   390  LYS390      0.0206
     64  CE       173.1890  215.5740  143.1250 C.3   390  LYS390      0.1093
     65  NZ       173.6390  216.2490  141.8820 N.3   390  LYS390     -0.1314
     66  N        175.8430  211.0600  141.5030 N.am  391  SER391     -0.1936
     67  CA       175.2430  209.8270  141.0120 C.3   391  SER391      0.2055
     68  C        176.3010  208.7650  140.7500 C.2   391  SER391      0.2642
     69  O        176.0830  207.5790  141.0300 O.2   391  SER391     -0.2714
     70  CB       174.4450  210.1110  139.7450 C.3   391  SER391      0.2130
     71  OG       173.4020  211.0360  139.9970 O.3   391  SER391     -0.2179
     72  N        177.4590  209.1740  140.2310 N.am  392  GLN392     -0.1976
     73  CA       178.5520  208.2300  140.0400 C.3   392  GLN392      0.1601
     74  C        179.1020  207.7630  141.3760 C.2   392  GLN392      0.2287
     75  O        179.5450  206.6150  141.5070 O.2   392  GLN392     -0.2864
     76  CB       179.6490  208.8700  139.1960 C.3   392  GLN392      0.0394
     77  CG       180.7450  207.9220  138.7810 C.3   392  GLN392      0.0908
     78  CD       181.7100  208.5550  137.8140 C.2   392  GLN392      0.2608
     79  OE1      181.5870  209.7310  137.4880 O.2   392  GLN392     -0.2717
     80  NE2      182.6700  207.7760  137.3370 N.am  392  GLN392     -0.0878
     81  N        167.7460  217.0330  144.4940 N.3   492  ASN492     -0.1240
     82  CA       168.1580  218.0730  143.5690 C.3   492  ASN492      0.1653
     83  C        167.3790  219.3520  143.8300 C.2   492  ASN492      0.2266
     84  O        166.1500  219.3210  143.9440 O.2   492  ASN492     -0.2867
     85  CB       167.9450  217.6420  142.1170 C.3   492  ASN492      0.1155
     86  CG       168.9480  216.6160  141.6690 C.2   492  ASN492      0.2627
     87  OD1      170.1350  216.7260  141.9650 O.2   492  ASN492     -0.2716
     88  ND2      168.4800  215.6060  140.9490 N.am  492  ASN492     -0.0877
     89  N        190.4480  220.1770  136.7790 N.3   536  ILE536     -0.1245
     90  CA       189.4080  219.1680  136.6130 C.3   536  ILE536      0.1561
     91  C        189.3220  218.7170  135.1590 C.2   536  ILE536      0.2260
     92  O        189.0910  217.5360  134.8850 O.2   536  ILE536     -0.2867
     93  CB       188.0530  219.6640  137.1700 C.3   536  ILE536      0.0252
     94  CG1      187.0340  218.5350  137.1750 C.3   536  ILE536      0.0019
     95  CG2      187.4650  220.8170  136.4020 C.3   536  ILE536      0.0019
     96  CD1      187.4390  217.4070  138.0380 C.3   536  ILE536      0.0001
     97  N        192.3090  216.6640  134.4070 N.3   539  HIS539     -0.1226
     98  CA       192.0710  215.4570  135.1810 C.3   539  HIS539      0.1752
     99  C        191.1460  214.4910  134.4450 C.2   539  HIS539      0.2595
    100  O        191.4000  213.2860  134.4270 O.2   539  HIS539     -0.2718
    101  CB       191.4900  215.8420  136.5340 C.3   539  HIS539      0.0759
    102  CG       191.4410  214.7200  137.5120 C.ar  539  HIS539      0.0818
    103  ND1      190.3880  213.8380  137.5780 N.ar  539  HIS539     -0.2268
    104  CD2      192.3160  214.3370  138.4690 C.ar  539  HIS539      0.1154
    105  CE1      190.6160  212.9570  138.5340 C.ar  539  HIS539      0.1986
    106  NE2      191.7800  213.2370  139.0900 N.ar  539  HIS539     -0.2212
    107  N        190.0860  215.0020  133.8130 N.am  540  VAL540     -0.1980
    108  CA       189.1230  214.1320  133.1330 C.3   540  VAL540      0.1595
    109  C        189.7080  213.5780  131.8310 C.2   540  VAL540      0.2287
    110  O        189.4770  212.4110  131.4750 O.2   540  VAL540     -0.2864
    111  CB       187.8010  214.9000  132.9230 C.3   540  VAL540      0.0276
    112  CG1      186.8440  214.1640  132.0320 C.3   540  VAL540      0.0022
    113  CG2      187.1200  215.0810  134.2490 C.3   540  VAL540      0.0022
    114  N        191.5830  210.8780  132.8820 N.3   543  ILE543     -0.1245
    115  CA       190.7270  209.7510  133.2350 C.3   543  ILE543      0.1561
    116  C        190.4050  208.9190  132.0040 C.2   543  ILE543      0.2260
    117  O        190.4120  207.6830  132.0610 O.2   543  ILE543     -0.2867
    118  CB       189.4540  210.2470  133.9510 C.3   543  ILE543      0.0252
    119  CG1      189.7670  210.6650  135.3830 C.3   543  ILE543      0.0019
    120  CG2      188.3300  209.2160  133.9390 C.3   543  ILE543      0.0019
    121  CD1      188.6130  211.3480  136.0460 C.3   543  ILE543      0.0001
@<TRIPOS>BOND
     1   110   109    2
     2   109   108    1
     3   116   117    2
     4   116   115    1
     5   112   111    1
     6   114   115    1
     7   111   108    1
     8   111   113    1
     9   108   107    1
    10   115   118    1
    11   107    99   am
    12   120   118    1
    13   118   119    1
    14    97    98    1
    15   100    99    2
    16    99    98    1
    17    92    91    2
    18    91    90    1
    19    98   101    1
    20   119   121    1
    21    95    93    1
    22   101   102    1
    23    90    89    1
    24    90    93    1
    25    93    94    1
    26    94    96    1
    27    80    78   am
    28    79    78    2
    29   102   103   ar
    30   102   104   ar
    31   103   105   ar
    32    38    39    1
    33    38    35    1
    34    39    40    1
    35     6     5    1
    36    78    77    1
    37    42    41    1
    38    42    43    1
    39    41    36   am
    40    37    36    2
    41    36    35    1
    42   104   106   ar
    43   105   106   ar
    44    77    76    1
    45    35    34    1
    46     5     2    1
    47    40    34    1
    48    76    73    1
    49     4     3    2
    50    44    43    2
    51    43    45   am
    52    56    53    1
    53     2     3    1
    54     2     1    1
    55    70    71    1
    56    70    67    1
    57     3     7   am
    58    73    72    1
    59    73    74    1
    60    53    52    1
    61    53    54    1
    62    72    68   am
    63    52    47   am
    64    45    46    1
    65    68    67    1
    66    68    69    2
    67    88    86   am
    68    67    66    1
    69    19    20    1
    70    19    16    1
    71     7     8    1
    72    54    55    2
    73    54    57   am
    74    47    46    1
    75    47    48    2
    76    74    75    2
    77    66    59   am
    78     8     9    1
    79     8    11    1
    80    46    49    1
    81    20    22   ar
    82    20    21   ar
    83    86    87    2
    84    86    85    1
    85    15     9   am
    86    15    16    1
    87    22    24   ar
    88    12    14    1
    89    12    11    1
    90    65    64    1
    91    57    58    1
    92    21    23   ar
    93    85    82    1
    94     9    10    2
    95    24    25   ar
    96    16    17    1
    97    23    25   ar
    98    11    13    1
    99    59    58    1
   100    59    60    2
   101    49    50    1
   102    49    51    1
   103    18    17    2
   104    64    63    1
   105    58    61    1
   106    62    63    1
   107    62    61    1
   108    82    83    1
   109    82    81    1
   110    83    84    2
   111    33    31   am
   112    31    32    2
   113    31    30    1
   114    26    27    1
   115    30    27    1
   116    27    28    1
   117    28    29    2
