@<TRIPOS>MOLECULE
tmp/5bmlB00.pdb
 209 200 0 0 0
SMALL
GASTEIGER

@<TRIPOS>ATOM
      1  N          2.2840  144.4650   21.3390 N.3    78  ILE78      -0.1231
      2  CA         0.9470  144.0850   20.8490 C.3    78  ILE78       0.1692
      3  C          0.2760  143.0270   21.7720 C.2    78  ILE78       0.2593
      4  O         -0.5370  142.2190   21.3150 O.2    78  ILE78      -0.2718
      5  CB         1.0050  143.6640   19.3320 C.3    78  ILE78       0.0266
      6  CG1        2.0280  142.5070   19.0890 C.3    78  ILE78       0.0019
      7  CG2        1.3210  144.8720   18.4440 C.3    78  ILE78       0.0020
      8  CD1        1.7630  141.6550   17.8990 C.3    78  ILE78       0.0001
      9  N          0.6140  143.0590   23.0630 N.am   79  GLY79      -0.1942
     10  CA         0.0770  142.1120   24.0350 C.3    79  GLY79       0.2014
     11  C          0.8510  142.0750   25.3330 C.2    79  GLY79       0.2639
     12  O          2.0700  142.2410   25.3300 O.2    79  GLY79      -0.2714
     13  N          0.1390  141.8550   26.4530 N.am   80  ARG80      -0.1963
     14  CA         0.7140  141.8210   27.8040 C.3    80  ARG80       0.1729
     15  C          0.0400  140.7330   28.6630 C.2    80  ARG80       0.2617
     16  O         -1.0730  140.2790   28.3580 O.2    80  ARG80      -0.2715
     17  CB         0.5810  143.2130   28.4600 C.3    80  ARG80       0.0348
     18  CG         1.5760  143.5220   29.5860 C.3    80  ARG80       0.0492
     19  CD         2.8000  144.3180   29.1450 C.3    80  ARG80       0.2205
     20  NE         2.4580  145.6800   28.7260 N.pl3  80  ARG80      -0.0865
     21  CZ         3.3280  146.5660   28.2450 C.cat  80  ARG80       0.5346
     22  NH1        4.6130  146.2540   28.1300 N.pl3  80  ARG80       0.1354
     23  NH2        2.9170  147.7660   27.8670 N.pl3  80  ARG80       0.1354
     24  N          0.7600  140.3050   29.6990 N.am   81  GLY81      -0.1940
     25  CA         0.3490  139.2890   30.6610 C.3    81  GLY81       0.2014
     26  C          1.1370  139.3820   31.9510 C.2    81  GLY81       0.2639
     27  O          2.1300  140.1140   32.0280 O.2    81  GLY81      -0.2714
     28  N          0.7030  138.6340   32.9720 N.am   82  ALA82      -0.1963
     29  CA         1.3310  138.5830   34.2950 C.3    82  ALA82       0.1728
     30  C          2.8350  138.2430   34.2310 C.2    82  ALA82       0.2616
     31  O          3.6230  138.8200   34.9820 O.2    82  ALA82      -0.2715
     32  CB         0.6090  137.5620   35.1590 C.3    82  ALA82       0.0334
     33  N          3.2190  137.3500   33.2990 N.am   83  PHE83      -0.1960
     34  CA         4.5940  136.8850   33.1450 C.3    83  PHE83       0.1774
     35  C          5.2950  137.3700   31.8990 C.2    83  PHE83       0.2659
     36  O          6.4090  136.9290   31.6380 O.2    83  PHE83      -0.2711
     37  CB         4.6560  135.3520   33.2210 C.3    83  PHE83       0.0574
     38  CG         4.2160  134.8150   34.5550 C.ar   83  PHE83      -0.0200
     39  CD1        5.1420  134.5350   35.5480 C.ar   83  PHE83      -0.0042
     40  CD2        2.8720  134.6090   34.8290 C.ar   83  PHE83      -0.0042
     41  CE1        4.7270  134.0500   36.7950 C.ar   83  PHE83      -0.0003
     42  CE2        2.4620  134.1360   36.0720 C.ar   83  PHE83      -0.0003
     43  CZ         3.3920  133.8480   37.0430 C.ar   83  PHE83      -0.0000
     44  N          4.6830  138.2630   31.1410 N.am   84  GLY84      -0.1716
     45  CA         5.3540  138.7470   29.9480 C.2    84  GLY84       0.1480
     46  C          4.5650  139.5880   28.9820 C.2    84  GLY84       0.2820
     47  O          3.5260  140.1580   29.3270 O.2    84  GLY84      -0.2669
     48  N          5.0940  139.7050   27.7660 N.am   85  GLU85      -0.1929
     49  CA         4.4840  140.5260   26.7380 C.3    85  GLU85       0.1736
     50  C          4.8030  140.0300   25.3680 C.2    85  GLU85       0.2616
     51  O          5.8610  139.4410   25.1650 O.2    85  GLU85      -0.2715
     52  CB         4.8900  142.0170   26.8810 C.3    85  GLU85       0.0429
     53  CG         6.3770  142.3180   26.7480 C.3    85  GLU85       0.1163
     54  CD         6.7240  143.7840   26.9130 C.2    85  GLU85       0.3649
     55  OE1        7.1550  144.4080   25.9170 O.co2  85  GLU85      -0.2457
     56  OE2        6.5680  144.3090   28.0390 O.co2  85  GLU85      -0.2457
     57  N          3.9060  140.3100   24.4180 N.am   86  VAL86      -0.1977
     58  CA         4.0540  139.9700   23.0110 C.3    86  VAL86       0.1596
     59  C          4.3870  141.2800   22.3000 C.2    86  VAL86       0.2287
     60  O          3.7820  142.3100   22.6110 O.2    86  VAL86      -0.2864
     61  CB         2.7640  139.2980   22.4550 C.3    86  VAL86       0.0276
     62  CG1        2.9230  138.8800   20.9920 C.3    86  VAL86       0.0022
     63  CG2        2.3630  138.1030   23.3050 C.3    86  VAL86       0.0022
     64  N          6.4120  138.3520   15.2130 N.3    99  ALA99      -0.1245
     65  CA         5.7970  138.5730   16.5030 C.3    99  ALA99       0.1562
     66  C          6.6970  137.7980   17.4700 C.2    99  ALA99       0.2260
     67  O          7.1460  136.6860   17.1460 O.2    99  ALA99      -0.2867
     68  CB         4.3950  138.0020   16.5240 C.3    99  ALA99       0.0290
     69  N          7.0140  136.6180   21.5980 N.3   101  LYS101     -0.1231
     70  CA         6.4520  136.4710   22.9490 C.3   101  LYS101      0.1693
     71  C          7.6230  136.2810   23.9220 C.2   101  LYS101      0.2592
     72  O          8.4560  135.3840   23.7270 O.2   101  LYS101     -0.2718
     73  CB         5.4490  135.3090   23.0210 C.3   101  LYS101      0.0285
     74  CG         4.9120  135.0140   24.4300 C.3   101  LYS101      0.0035
     75  CD         3.6110  134.1900   24.3970 C.3   101  LYS101      0.0206
     76  CE         3.1880  133.7310   25.7660 C.3   101  LYS101      0.1093
     77  NZ         1.9270  132.9560   25.7000 N.3   101  LYS101     -0.1314
     78  N          7.6670  137.1560   24.9440 N.am  102  LEU102     -0.1966
     79  CA         8.6700  137.2130   26.0210 C.3   102  LEU102      0.1728
     80  C          8.0800  136.7070   27.3490 C.2   102  LEU102      0.2616
     81  O          6.9330  137.0390   27.6770 O.2   102  LEU102     -0.2715
     82  CB         9.1530  138.6630   26.2360 C.3   102  LEU102      0.0311
     83  CG        10.0130  139.2800   25.1460 C.3   102  LEU102      0.0022
     84  CD1        9.1440  139.8270   23.9880 C.3   102  LEU102      0.0001
     85  CD2       10.8930  140.3710   25.7200 C.3   102  LEU102      0.0001
     86  N          8.8700  135.9080   28.1110 N.am  103  LEU103     -0.1977
     87  CA         8.4370  135.3960   29.4230 C.3   103  LEU103      0.1596
     88  C          9.5230  135.6020   30.4720 C.2   103  LEU103      0.2287
     89  O         10.6360  135.1180   30.2760 O.2   103  LEU103     -0.2864
     90  CB         7.9990  133.9180   29.3620 C.3   103  LEU103      0.0297
     91  CG         6.7300  133.5680   28.5650 C.3   103  LEU103      0.0022
     92  CD1        6.6020  132.0780   28.3890 C.3   103  LEU103      0.0001
     93  CD2        5.4700  134.0940   29.2430 C.3   103  LEU103      0.0001
     94  N          4.7030  125.4730   31.8000 N.3   116  PHE116     -0.1241
     95  CA         3.6390  125.7150   30.8080 C.3   116  PHE116      0.1605
     96  C          4.1180  126.1270   29.3990 C.2   116  PHE116      0.2264
     97  O          3.4010  125.9110   28.4030 O.2   116  PHE116     -0.2867
     98  CB         2.6620  126.7520   31.3630 C.3   116  PHE116      0.0534
     99  CG         3.2230  128.1430   31.6000 C.ar  116  PHE116     -0.0203
    100  CD1        3.8600  128.4590   32.7910 C.ar  116  PHE116     -0.0042
    101  CD2        3.0320  129.1610   30.6640 C.ar  116  PHE116     -0.0042
    102  CE1        4.3500  129.7490   33.0230 C.ar  116  PHE116     -0.0003
    103  CE2        3.5090  130.4540   30.9040 C.ar  116  PHE116     -0.0003
    104  CZ         4.1750  130.7360   32.0770 C.ar  116  PHE116     -0.0000
    105  N          3.5380  125.0740   24.5610 N.3   120  GLU120     -0.1245
    106  CA         3.4350  126.1660   23.5820 C.3   120  GLU120      0.1567
    107  C          4.6420  126.1380   22.6060 C.2   120  GLU120      0.2260
    108  O          4.4700  126.4430   21.4270 O.2   120  GLU120     -0.2867
    109  CB         3.3500  127.5210   24.2940 C.3   120  GLU120      0.0388
    110  CG         3.1300  128.7110   23.3780 C.3   120  GLU120      0.1160
    111  CD         2.8230  130.0410   24.0440 C.2   120  GLU120      0.3649
    112  OE1        1.9660  130.7780   23.5050 O.co2 120  GLU120     -0.2457
    113  OE2        3.4440  130.3620   25.0860 O.co2 120  GLU120     -0.2457
    114  N          3.8850  125.1020   18.5180 N.3   124  MET124     -0.1245
    115  CA         4.2210  126.0430   17.4480 C.3   124  MET124      0.1570
    116  C          5.4140  125.5930   16.5910 C.2   124  MET124      0.2261
    117  O          5.4440  125.8780   15.3880 O.2   124  MET124     -0.2867
    118  CB         4.4260  127.4710   17.9770 C.3   124  MET124      0.0387
    119  CG         3.2140  128.0650   18.6840 C.3   124  MET124      0.0595
    120  SD         3.3890  129.8200   18.9330 S.3   124  MET124     -0.1393
    121  CE         4.7110  129.8500   20.1600 C.3   124  MET124      0.0692
    122  N         -0.1770  128.9990   14.5710 N.3   133  VAL133     -0.1245
    123  CA         0.8650  130.0250   14.4260 C.3   133  VAL133      0.1561
    124  C          2.2160  129.3120   14.5220 C.2   133  VAL133      0.2260
    125  O          2.4160  128.4840   15.4150 O.2   133  VAL133     -0.2867
    126  CB         0.7130  131.1520   15.4820 C.3   133  VAL133      0.0252
    127  CG1        1.8820  132.1400   15.4320 C.3   133  VAL133      0.0019
    128  CG2       -0.6140  131.8790   15.3080 C.3   133  VAL133      0.0019
    129  N          7.6300  134.1760   16.1230 N.3   149  MET149     -0.1230
    130  CA         6.4830  133.5990   15.3940 C.3   149  MET149      0.1702
    131  C          6.1070  134.3850   14.1470 C.2   149  MET149      0.2592
    132  O          6.4310  135.5690   14.0780 O.2   149  MET149     -0.2718
    133  CB         5.2400  133.6040   16.3180 C.3   149  MET149      0.0401
    134  CG         5.4270  132.8690   17.6170 C.3   149  MET149      0.0596
    135  SD         4.2140  133.2380   18.9140 S.3   149  MET149     -0.1393
    136  CE         4.6280  134.9180   19.2800 C.3   149  MET149      0.0692
    137  N          5.3370  133.7870   13.1970 N.am  150  GLU150     -0.1966
    138  CA         4.8730  134.6200   12.0700 C.3   150  GLU150      0.1733
    139  C          3.7900  135.5060   12.5610 C.2   150  GLU150      0.2616
    140  O          2.9410  135.0590   13.3350 O.2   150  GLU150     -0.2715
    141  CB         4.4550  133.8770   10.7960 C.3   150  GLU150      0.0429
    142  CG         3.2950  132.9160   10.9220 C.3   150  GLU150      0.1163
    143  CD         2.8740  132.3510    9.5800 C.2   150  GLU150      0.3649
    144  OE1        2.2340  131.2740    9.5750 O.co2 150  GLU150     -0.2457
    145  OE2        3.2000  132.9700    8.5360 O.co2 150  GLU150     -0.2457
    146  N          3.8720  136.7930   12.1850 N.am  151  TYR151     -0.1960
    147  CA         2.9320  137.8360   12.5960 C.3   151  TYR151      0.1771
    148  C          1.6170  137.6400   11.8860 C.2   151  TYR151      0.2619
    149  O          1.5990  137.4320   10.6710 O.2   151  TYR151     -0.2715
    150  CB         3.5400  139.2180   12.3150 C.3   151  TYR151      0.0574
    151  CG         2.6290  140.4100   12.5200 C.ar  151  TYR151     -0.0198
    152  CD1        1.9480  140.5960   13.7220 C.ar  151  TYR151     -0.0009
    153  CD2        2.5470  141.4210   11.5600 C.ar  151  TYR151     -0.0009
    154  CE1        1.1750  141.7320   13.9450 C.ar  151  TYR151      0.0417
    155  CE2        1.7770  142.5610   11.7720 C.ar  151  TYR151      0.0417
    156  CZ         1.0920  142.7110   12.9650 C.ar  151  TYR151      0.1957
    157  OH         0.3500  143.8430   13.1750 O.3   151  TYR151     -0.2866
    158  N          0.5290  137.6510   12.6670 N.am  152  MET152     -0.1977
    159  CA        -0.8720  137.5240   12.2480 C.3   152  MET152      0.1605
    160  C         -1.4520  138.9310   12.2880 C.2   152  MET152      0.2287
    161  O         -1.8630  139.3880   13.3490 O.2   152  MET152     -0.2864
    162  CB        -1.6070  136.5850   13.2100 C.3   152  MET152      0.0413
    163  CG        -1.0560  135.1900   13.1810 C.3   152  MET152      0.0598
    164  SD        -1.5520  134.3830   11.6540 S.3   152  MET152     -0.1393
    165  CE         0.0220  134.2790   10.7990 C.3   152  MET152      0.0692
    166  N         -9.3950  135.4610   22.2300 N.3   198  ASP198     -0.1239
    167  CA        -8.0740  136.0310   22.4550 C.3   198  ASP198      0.1674
    168  C         -7.0290  135.1240   21.8150 C.2   198  ASP198      0.2266
    169  O         -5.9260  135.5950   21.4730 O.2   198  ASP198     -0.2867
    170  CB        -7.7790  136.0420   23.9820 C.3   198  ASP198      0.1410
    171  CG        -8.8150  136.7220   24.8470 C.2   198  ASP198      0.3668
    172  OD1       -9.9940  136.2830   24.8320 O.co2 198  ASP198     -0.2456
    173  OD2       -8.4460  137.6620   25.5790 O.co2 198  ASP198     -0.2456
    174  N         -6.5450  134.0510   16.1990 N.3   201  LEU201     -0.1245
    175  CA        -5.8510  135.0940   15.4250 C.3   201  LEU201      0.1561
    176  C         -6.1850  135.0310   13.9450 C.2   201  LEU201      0.2260
    177  O         -6.4880  133.9570   13.4280 O.2   201  LEU201     -0.2867
    178  CB        -4.3160  134.9750   15.6350 C.3   201  LEU201      0.0270
    179  CG        -3.6700  135.5620   16.9250 C.3   201  LEU201      0.0019
    180  CD1       -3.6450  137.0680   16.9050 C.3   201  LEU201      0.0001
    181  CD2       -4.3740  135.1320   18.1810 C.3   201  LEU201      0.0001
    182  N         -3.3700  130.5750   18.6590 N.3   211  ALA211     -0.1231
    183  CA        -2.1570  131.0570   19.3180 C.3   211  ALA211      0.1694
    184  C         -2.4190  131.1070   20.8020 C.2   211  ALA211      0.2592
    185  O         -3.5640  130.9070   21.2150 O.2   211  ALA211     -0.2718
    186  CB        -1.7740  132.4280   18.7940 C.3   211  ALA211      0.0304
    187  N         -1.3650  131.3620   21.6050 N.am  212  ASP212     -0.1974
    188  CA        -1.3540  131.3740   23.0740 C.3   212  ASP212      0.1709
    189  C         -1.6840  129.9900   23.6190 C.2   212  ASP212      0.2293
    190  O         -2.8390  129.7060   23.9230 O.2   212  ASP212     -0.2864
    191  CB        -2.2430  132.4700   23.6810 C.3   212  ASP212      0.1436
    192  CG        -2.0820  132.6590   25.1750 C.2   212  ASP212      0.3671
    193  OD1       -1.0120  132.2760   25.7150 O.co2 212  ASP212     -0.2456
    194  OD2       -2.9880  133.2580   25.7950 O.co2 212  ASP212     -0.2456
    195  N         -0.3670  128.5220   26.4820 N.3   214  GLY214     -0.1225
    196  CA         0.0220  128.4670   27.8970 C.3   214  GLY214      0.1811
    197  C         -0.7610  127.5130   28.8060 C.2   214  GLY214      0.2280
    198  O         -0.2380  127.0650   29.8300 O.2   214  GLY214     -0.2866
    199  N         -4.4990  146.0860   16.3860 N.3   364  PHE364     -0.1241
    200  CA        -3.9500  145.8710   17.7190 C.3   364  PHE364      0.1605
    201  C         -4.1860  147.0890   18.5720 C.2   364  PHE364      0.2264
    202  O         -3.8010  148.2080   18.1950 O.2   364  PHE364     -0.2867
    203  CB        -2.4640  145.4510   17.6660 C.3   364  PHE364      0.0534
    204  CG        -2.3000  144.0970   17.0340 C.ar  364  PHE364     -0.0203
    205  CD1       -2.4000  142.9430   17.7960 C.ar  364  PHE364     -0.0042
    206  CD2       -2.1050  143.9710   15.6640 C.ar  364  PHE364     -0.0042
    207  CE1       -2.3140  141.6880   17.2000 C.ar  364  PHE364     -0.0003
    208  CE2       -2.0280  142.7140   15.0700 C.ar  364  PHE364     -0.0003
    209  CZ        -2.1270  141.5820   15.8410 C.ar  364  PHE364     -0.0000
@<TRIPOS>BOND
     1   145   143   ar
     2   144   143   ar
     3   143   142    1
     4   149   148    2
     5   141   142    1
     6   141   138    1
     7   165   164    1
     8   153   155   ar
     9   153   151   ar
    10   164   163    1
    11   155   156   ar
    12   148   147    1
    13   148   158   am
    14   138   139    1
    15   138   137    1
    16   146   139   am
    17   146   147    1
    18   159   160    1
    19   159   158    1
    20   159   162    1
    21   160   161    2
    22   150   151    1
    23   150   147    1
    24   151   152   ar
    25   139   140    2
    26   156   157    1
    27   156   154   ar
    28   163   162    1
    29   137   131   am
    30   177   176    2
    31   152   154   ar
    32   176   175    1
    33   132   131    2
    34   131   130    1
    35   123   124    1
    36   123   122    1
    37   123   126    1
    38   124   125    2
    39   208   206   ar
    40   208   209   ar
    41    64    65    1
    42   128   126    1
    43   117   116    2
    44   130   129    1
    45   130   133    1
    46   175   178    1
    47   175   174    1
    48   127   126    1
    49   178   179    1
    50   206   204   ar
    51   209   207   ar
    52   133   134    1
    53   199   200    1
    54    65    68    1
    55    65    66    1
    56   116   115    1
    57   180   179    1
    58   179   181    1
    59   204   203    1
    60   204   205   ar
    61    67    66    2
    62   207   205   ar
    63   115   118    1
    64   115   114    1
    65   134   135    1
    66   203   200    1
    67   200   201    1
    68     8     6    1
    69   118   119    1
    70   202   201    2
    71     7     5    1
    72   182   183    1
    73   119   120    1
    74   186   183    1
    75   135   136    1
    76   120   121    1
    77     6     5    1
    78   183   184    1
    79     5     2    1
    80   184   185    2
    81   184   187   am
    82     2     1    1
    83     2     3    1
    84    62    61    1
    85     4     3    2
    86   108   107    2
    87   169   168    2
    88    69    70    1
    89   187   188    1
    90     3     9   am
    91   168   167    1
    92   166   167    1
    93    59    60    2
    94    59    58    1
    95    61    58    1
    96    61    63    1
    97   167   170    1
    98   107   106    1
    99    70    73    1
   100    70    71    1
   101    58    57    1
   102    73    74    1
   103     9    10    1
   104   188   189    1
   105   188   191    1
   106   110   111    1
   107   110   109    1
   108   112   111   ar
   109   106   109    1
   110   106   105    1
   111   189   190    2
   112   191   192    1
   113    72    71    2
   114    71    78   am
   115   170   171    1
   116    84    83    1
   117    10    11    1
   118   111   113   ar
   119    75    74    1
   120    75    76    1
   121    57    50   am
   122   172   171   ar
   123   171   173   ar
   124    78    79    1
   125    83    85    1
   126    83    82    1
   127    51    50    2
   128   192   193   ar
   129   192   194   ar
   130    12    11    2
   131    11    13   am
   132    50    49    1
   133    77    76    1
   134    55    54   ar
   135    79    82    1
   136    79    80    1
   137    13    14    1
   138   195   196    1
   139    49    52    1
   140    49    48    1
   141    53    52    1
   142    53    54    1
   143    54    56   ar
   144    80    81    2
   145    80    86   am
   146    48    46   am
   147    14    17    1
   148    14    15    1
   149    23    21    1
   150   196   197    1
   151    86    87    1
   152    22    21    1
   153    21    20    2
   154    16    15    2
   155    92    91    1
   156    97    96    2
   157    17    18    1
   158    91    93    1
   159    91    90    1
   160    15    24   am
   161    20    19    1
   162   197   198    2
   163    46    47    2
   164    46    45    1
   165    19    18    1
   166    90    87    1
   167    96    95    1
   168    87    88    1
   169    24    25    1
   170    45    44    2
   171    89    88    2
   172    25    26    1
   173   101   103   ar
   174   101    99   ar
   175    95    98    1
   176    95    94    1
   177   103   104   ar
   178    44    35    1
   179    98    99    1
   180    99   100   ar
   181    36    35    2
   182    35    34    1
   183    26    27    2
   184    26    28   am
   185   104   102   ar
   186   100   102   ar
   187    28    29    1
   188    34    37    1
   189    34    33    1
   190    37    38    1
   191    33    30   am
   192    30    29    1
   193    30    31    2
   194    29    32    1
   195    38    40   ar
   196    38    39   ar
   197    40    42   ar
   198    39    41   ar
   199    42    43   ar
   200    41    43   ar
