@<TRIPOS>MOLECULE
tmp/5bmpA00.pdb
 132 125 0 0 0
SMALL
GASTEIGER

@<TRIPOS>ATOM
      1  N        -11.7150    7.9840  -10.5230 N.3    10  TYR10      -0.1241
      2  CA       -10.8050    7.7180  -11.6340 C.3    10  TYR10       0.1605
      3  C        -10.1630    8.9680  -12.2180 C.2    10  TYR10       0.2264
      4  O         -9.1340    8.8870  -12.8880 O.2    10  TYR10      -0.2867
      5  CB       -11.5410    6.9710  -12.7460 C.3    10  TYR10       0.0534
      6  CG       -12.0140    5.5960  -12.3450 C.ar   10  TYR10      -0.0201
      7  CD1      -11.1930    4.7480  -11.6130 C.ar   10  TYR10      -0.0009
      8  CD2      -13.2820    5.1470  -12.6910 C.ar   10  TYR10      -0.0009
      9  CE1      -11.6180    3.4880  -11.2430 C.ar   10  TYR10       0.0417
     10  CE2      -13.7200    3.8860  -12.3210 C.ar   10  TYR10       0.0417
     11  CZ       -12.8810    3.0620  -11.5950 C.ar   10  TYR10       0.1957
     12  OH       -13.3020    1.8060  -11.2240 O.3    10  TYR10      -0.2866
     13  N        -19.9980   -8.0180  -15.4270 N.3   280  ARG280     -0.1245
     14  CA       -21.3880   -7.6090  -15.6250 C.3   280  ARG280      0.1563
     15  C        -22.1350   -8.5470  -16.5660 C.2   280  ARG280      0.2260
     16  O        -23.2230   -9.0360  -16.2480 O.2   280  ARG280     -0.2867
     17  CB       -21.4450   -6.1820  -16.1600 C.3   280  ARG280      0.0307
     18  CG       -21.0270   -5.1460  -15.1440 C.3   280  ARG280      0.0489
     19  CD       -20.9460   -3.7830  -15.7830 C.3   280  ARG280      0.2205
     20  NE       -19.7440   -3.6250  -16.5850 N.pl3 280  ARG280     -0.0865
     21  CZ       -18.9970   -2.5280  -16.5810 C.cat 280  ARG280      0.5346
     22  NH1      -19.3370   -1.5000  -15.8150 N.pl3 280  ARG280      0.1354
     23  NH2      -17.9130   -2.4590  -17.3380 N.pl3 280  ARG280      0.1354
     24  N        -14.8690   -4.6110  -12.8880 N.3   301  SER301     -0.1202
     25  CA       -15.0690   -3.5470  -13.8630 C.3   301  SER301      0.2020
     26  C        -14.3790   -2.2750  -13.3880 C.2   301  SER301      0.2619
     27  O        -14.2050   -2.0660  -12.1890 O.2   301  SER301     -0.2717
     28  CB       -16.5600   -3.2890  -14.1030 C.3   301  SER301      0.2103
     29  OG       -17.1500   -2.6330  -12.9960 O.3   301  SER301     -0.2182
     30  N        -13.9870   -1.4320  -14.3360 N.am  302  GLY302     -0.1942
     31  CA       -13.2340   -0.2290  -14.0310 C.3   302  GLY302      0.2014
     32  C        -11.9030   -0.2870  -14.7500 C.2   302  GLY302      0.2638
     33  O        -11.1900   -1.2850  -14.6480 O.2   302  GLY302     -0.2714
     34  N        -11.5680    0.7770  -15.4760 N.am  303  HIS303     -0.1973
     35  CA       -10.4170    0.7520  -16.3730 C.3   303  HIS303      0.1656
     36  C         -9.0980    0.4650  -15.6500 C.2   303  HIS303      0.2291
     37  O         -8.2240   -0.2010  -16.2000 O.2   303  HIS303     -0.2864
     38  CB       -10.3170    2.0720  -17.1450 C.3   303  HIS303      0.0771
     39  CG        -9.7440    3.2020  -16.3510 C.ar  303  HIS303      0.0820
     40  ND1       -8.4660    3.6760  -16.5480 N.ar  303  HIS303     -0.2267
     41  CD2      -10.2750    3.9580  -15.3590 C.ar  303  HIS303      0.1154
     42  CE1       -8.2310    4.6700  -15.7110 C.ar  303  HIS303      0.1986
     43  NE2       -9.3140    4.8600  -14.9780 N.ar  303  HIS303     -0.2212
     44  N        -14.6700   -4.0070  -21.8540 N.3   320  GLU320     -0.1245
     45  CA       -15.8080   -3.8060  -20.9660 C.3   320  GLU320      0.1567
     46  C        -17.0770   -3.5860  -21.7760 C.2   320  GLU320      0.2260
     47  O        -17.0290   -3.0460  -22.8790 O.2   320  GLU320     -0.2867
     48  CB       -15.5750   -2.6110  -20.0390 C.3   320  GLU320      0.0388
     49  CG       -14.4180   -2.7590  -19.0820 C.3   320  GLU320      0.1160
     50  CD       -14.3570   -1.6070  -18.0990 C.2   320  GLU320      0.3649
     51  OE1      -13.7100   -0.5880  -18.4150 O.co2 320  GLU320     -0.2457
     52  OE2      -14.9750   -1.7140  -17.0190 O.co2 320  GLU320     -0.2457
     53  N        -19.1350   -1.4520  -21.3200 N.3   322  SER322     -0.1217
     54  CA       -19.3620   -0.0060  -21.3400 C.3   322  SER322      0.1889
     55  C        -18.5720    0.7200  -22.4340 C.2   322  SER322      0.2288
     56  O        -18.2400    1.8990  -22.2920 O.2   322  SER322     -0.2866
     57  CB       -19.0130    0.5910  -19.9770 C.3   322  SER322      0.2089
     58  OG       -17.6890    0.2460  -19.6080 O.3   322  SER322     -0.2183
     59  N        -15.4690    0.2790  -23.6610 N.3   324  HIS324     -0.1241
     60  CA       -14.0450    0.5240  -23.4720 C.3   324  HIS324      0.1621
     61  C        -13.2790   -0.7100  -23.9200 C.2   324  HIS324      0.2264
     62  O        -13.5670   -1.8160  -23.4720 O.2   324  HIS324     -0.2867
     63  CB       -13.7160    0.8490  -22.0110 C.3   324  HIS324      0.0745
     64  CG       -14.3930    2.0820  -21.4960 C.ar  324  HIS324      0.0817
     65  ND1      -15.4910    2.0370  -20.6650 N.ar  324  HIS324     -0.2268
     66  CD2      -14.1290    3.3960  -21.6980 C.ar  324  HIS324      0.1154
     67  CE1      -15.8740    3.2680  -20.3740 C.ar  324  HIS324      0.1986
     68  NE2      -15.0630    4.1100  -20.9910 N.ar  324  HIS324     -0.2212
     69  N         -9.3470   -2.2780  -24.5730 N.3   326  TYR326     -0.1241
     70  CA        -7.9440   -2.0780  -24.2170 C.3   326  TYR326      0.1605
     71  C         -7.0320   -3.0270  -24.9940 C.2   326  TYR326      0.2264
     72  O         -7.3800   -4.1890  -25.2230 O.2   326  TYR326     -0.2867
     73  CB        -7.7500   -2.2750  -22.7100 C.3   326  TYR326      0.0534
     74  CG        -8.7700   -1.5460  -21.8580 C.ar  326  TYR326     -0.0201
     75  CD1       -9.9850   -2.1390  -21.5290 C.ar  326  TYR326     -0.0009
     76  CD2       -8.5190   -0.2660  -21.3850 C.ar  326  TYR326     -0.0009
     77  CE1      -10.9190   -1.4740  -20.7520 C.ar  326  TYR326      0.0417
     78  CE2       -9.4510    0.4080  -20.6100 C.ar  326  TYR326      0.0417
     79  CZ       -10.6470   -0.1990  -20.2960 C.ar  326  TYR326      0.1957
     80  OH       -11.5710    0.4700  -19.5210 O.3   326  TYR326     -0.2866
     81  N        -27.5200   -2.3250  -19.6100 N.3   370  GLU370     -0.1245
     82  CA       -27.2900   -1.8380  -18.2570 C.3   370  GLU370      0.1567
     83  C        -28.4530   -0.9590  -17.8160 C.2   370  GLU370      0.2260
     84  O        -28.8230   -0.0040  -18.5010 O.2   370  GLU370     -0.2867
     85  CB       -25.9710   -1.0740  -18.1650 C.3   370  GLU370      0.0388
     86  CG       -25.4950   -0.8470  -16.7390 C.3   370  GLU370      0.1160
     87  CD       -24.0220   -0.4900  -16.6680 C.2   370  GLU370      0.3649
     88  OE1      -23.6710    0.6620  -17.0080 O.co2 370  GLU370     -0.2457
     89  OE2      -23.2180   -1.3660  -16.2760 O.co2 370  GLU370     -0.2457
     90  N        -24.4260   -4.0030   -9.0120 N.3   414  ARG414     -0.1245
     91  CA       -23.2160   -3.2620   -8.6620 C.3   414  ARG414      0.1563
     92  C        -23.4900   -1.8550   -8.1690 C.2   414  ARG414      0.2260
     93  O        -24.3340   -1.1640   -8.7280 O.2   414  ARG414     -0.2867
     94  CB       -22.3060   -3.1320   -9.8860 C.3   414  ARG414      0.0307
     95  CG       -21.1870   -4.1060   -9.9970 C.3   414  ARG414      0.0489
     96  CD       -20.3100   -3.7140  -11.1750 C.3   414  ARG414      0.2205
     97  NE       -19.3650   -2.6520  -10.8330 N.pl3 414  ARG414     -0.0865
     98  CZ       -19.4470   -1.3950  -11.2610 C.cat 414  ARG414      0.5346
     99  NH1      -20.4370   -1.0220  -12.0620 N.pl3 414  ARG414      0.1354
    100  NH2      -18.5240   -0.5110  -10.8940 N.pl3 414  ARG414      0.1354
    101  N        -22.0650    1.7300   -8.5140 N.3   416  SER416     -0.1202
    102  CA       -21.1620    2.4660   -9.3850 C.3   416  SER416      0.2020
    103  C        -20.0570    3.1250   -8.5670 C.2   416  SER416      0.2619
    104  O        -20.2850    3.5580   -7.4360 O.2   416  SER416     -0.2717
    105  CB       -21.9270    3.5190  -10.1890 C.3   416  SER416      0.2103
    106  OG       -21.0410    4.4520  -10.7890 O.3   416  SER416     -0.2182
    107  N        -18.8590    3.1930   -9.1370 N.am  417  ASN417     -0.1960
    108  CA       -17.7510    3.8690   -8.4740 C.3   417  ASN417      0.1819
    109  C        -17.6470    5.3290   -8.8970 C.2   417  ASN417      0.2621
    110  O        -16.9400    6.1170   -8.2660 O.2   417  ASN417     -0.2715
    111  CB       -16.4330    3.1460   -8.7600 C.3   417  ASN417      0.1195
    112  CG       -16.3120    1.8350   -8.0070 C.2   417  ASN417      0.2630
    113  OD1      -16.6400    1.7540   -6.8220 O.2   417  ASN417     -0.2716
    114  ND2      -15.8410    0.7990   -8.6930 N.am  417  ASN417     -0.0877
    115  N        -18.3640    5.6880   -9.9570 N.am  418  THR418     -0.1951
    116  CA       -18.2840    7.0340  -10.5150 C.3   418  THR418      0.1897
    117  C        -19.5580    7.8480  -10.2670 C.2   418  THR418      0.2313
    118  O        -19.5500    9.0760  -10.3660 O.2   418  THR418     -0.2863
    119  CB       -18.0050    6.9860  -12.0270 C.3   418  THR418      0.1794
    120  OG1      -19.1010    6.3530  -12.6970 O.3   418  THR418     -0.2208
    121  CG2      -16.7350    6.2000  -12.3050 C.3   418  THR418      0.0378
    122  N        -26.1330   -0.3830  -10.5160 N.3   423  ARG423     -0.1245
    123  CA       -26.2080   -0.8160  -11.9090 C.3   423  ARG423      0.1563
    124  C        -26.5850   -2.2900  -12.0170 C.2   423  ARG423      0.2260
    125  O        -25.9850   -3.1430  -11.3650 O.2   423  ARG423     -0.2867
    126  CB       -24.8820   -0.5730  -12.6260 C.3   423  ARG423      0.0307
    127  CG       -24.3450    0.8460  -12.5220 C.3   423  ARG423      0.0489
    128  CD       -23.3490    1.1090  -13.6420 C.3   423  ARG423      0.2205
    129  NE       -22.6180    2.3630  -13.4800 N.pl3 423  ARG423     -0.0865
    130  CZ       -23.0480    3.5460  -13.9110 C.cat 423  ARG423      0.5346
    131  NH1      -24.2210    3.6530  -14.5210 N.pl3 423  ARG423      0.1354
    132  NH2      -22.3040    4.6260  -13.7230 N.pl3 423  ARG423      0.1354
@<TRIPOS>BOND
     1    72    71    2
     2    71    70    1
     3    69    70    1
     4    70    73    1
     5    61    60    1
     6    61    62    2
     7    59    60    1
     8    60    63    1
     9    47    46    2
    10    73    74    1
    11    55    56    2
    12    55    54    1
    13    63    64    1
    14    74    75   ar
    15    74    76   ar
    16    44    45    1
    17    46    45    1
    18    66    64   ar
    19    66    68   ar
    20    75    77   ar
    21    64    65   ar
    22    76    78   ar
    23    54    53    1
    24    54    57    1
    25    68    67   ar
    26    45    48    1
    27    77    79   ar
    28    65    67   ar
    29    78    79   ar
    30    79    80    1
    31    48    49    1
    32    57    58    1
    33    81    82    1
    34    49    50    1
    35    84    83    2
    36    51    50   ar
    37    82    85    1
    38    82    83    1
    39    85    86    1
    40    50    52   ar
    41    23    21    1
    42    38    35    1
    43    38    39    1
    44    88    87   ar
    45    86    87    1
    46    87    89   ar
    47    20    21    2
    48    20    19    1
    49    21    22    1
    50    15    16    2
    51    15    14    1
    52    40    39   ar
    53    40    42   ar
    54    35    36    1
    55    35    34    1
    56    39    41   ar
    57    37    36    2
    58    17    14    1
    59    17    18    1
    60    19    18    1
    61    42    43   ar
    62    14    13    1
    63    34    32   am
    64    41    43   ar
    65    32    33    2
    66    32    31    1
    67   131   130    1
    68    30    31    1
    69    30    26   am
    70    28    25    1
    71    28    29    1
    72   130   132    1
    73   130   129    2
    74    25    26    1
    75    25    24    1
    76   128   129    1
    77   128   127    1
    78    26    27    2
    79     4     3    2
    80     5     6    1
    81     5     2    1
    82   120   119    1
    83     8     6   ar
    84     8    10   ar
    85   126   127    1
    86   126   123    1
    87     6     7   ar
    88    10    11   ar
    89   121   119    1
    90     3     2    1
    91    99    98    1
    92   119   116    1
    93   124   123    1
    94   124   125    2
    95   123   122    1
    96     2     1    1
    97     7     9   ar
    98    11     9   ar
    99    11    12    1
   100    98   100    1
   101    98    97    2
   102    96    97    1
   103    96    95    1
   104   106   105    1
   105   116   117    1
   106   116   115    1
   107   118   117    2
   108   105   102    1
   109    95    94    1
   110   115   109   am
   111    94    91    1
   112   102   103    1
   113   102   101    1
   114   107   103   am
   115   107   108    1
   116    90    91    1
   117   109   108    1
   118   109   110    2
   119   111   108    1
   120   111   112    1
   121    93    92    2
   122   114   112   am
   123    91    92    1
   124   103   104    2
   125   112   113    2
