@<TRIPOS>MOLECULE
tmp/5bmsA00.pdb
 137 128 0 0 0
SMALL
GASTEIGER

@<TRIPOS>ATOM
      1  N        -38.3870   19.0880  -17.7870 N.3    29  ILE29      -0.1231
      2  CA       -38.9540   18.2580  -16.7220 C.3    29  ILE29       0.1692
      3  C        -38.2510   18.4460  -15.3840 C.2    29  ILE29       0.2593
      4  O        -38.7330   17.9750  -14.3560 O.2    29  ILE29      -0.2718
      5  CB       -38.9150   16.7570  -17.0800 C.3    29  ILE29       0.0266
      6  CG1      -37.4760   16.2540  -17.1310 C.3    29  ILE29       0.0019
      7  CG2      -39.6350   16.4920  -18.4050 C.3    29  ILE29       0.0020
      8  CD1      -37.3590   14.8190  -17.5980 C.3    29  ILE29       0.0001
      9  N        -37.1160   19.1320  -15.3910 N.am   30  GLY30      -0.1942
     10  CA       -36.3640   19.3200  -14.1690 C.3    30  GLY30       0.2014
     11  C        -35.2200   20.2990  -14.3020 C.2    30  GLY30       0.2639
     12  O        -34.8690   20.7260  -15.3980 O.2    30  GLY30      -0.2714
     13  N        -34.6390   20.6560  -13.1660 N.am   31  GLU31      -0.1963
     14  CA       -33.5160   21.5740  -13.1350 C.3    31  GLU31       0.1733
     15  C        -32.5760   21.1900  -12.0030 C.2    31  GLU31       0.2616
     16  O        -32.9660   21.1610  -10.8400 O.2    31  GLU31      -0.2715
     17  CB       -34.0000   23.0160  -12.9730 C.3    31  GLU31       0.0429
     18  CG       -32.9020   24.0550  -13.1000 C.3    31  GLU31       0.1163
     19  CD       -33.4260   25.3960  -13.5890 C.2    31  GLU31       0.3649
     20  OE1      -32.6000   26.2480  -13.9800 O.co2  31  GLU31      -0.2457
     21  OE2      -34.6610   25.5950  -13.5890 O.co2  31  GLU31      -0.2457
     22  N        -31.3430   20.8640  -12.3590 N.am   32  GLY32      -0.1955
     23  CA       -30.3290   20.5540  -11.3770 C.3    32  GLY32       0.1869
     24  C        -29.4680   21.7750  -11.1420 C.2    32  GLY32       0.2309
     25  O        -29.7610   22.8690  -11.6320 O.2    32  GLY32      -0.2863
     26  N        -33.1400   19.6390  -17.5450 N.3    37  VAL37      -0.1245
     27  CA       -33.4040   18.3830  -18.2370 C.3    37  VAL37       0.1561
     28  C        -34.7090   18.4310  -19.0400 C.2    37  VAL37       0.2260
     29  O        -35.7610   18.8150  -18.5160 O.2    37  VAL37      -0.2867
     30  CB       -33.4640   17.2000  -17.2430 C.3    37  VAL37       0.0252
     31  CG1      -33.9450   15.9320  -17.9440 C.3    37  VAL37       0.0019
     32  CG2      -32.1020   16.9660  -16.6160 C.3    37  VAL37       0.0019
     33  N        -33.8540   11.6480  -23.0440 N.3    50  ALA50      -0.1245
     34  CA       -33.7230   12.6910  -22.0380 C.3    50  ALA50       0.1562
     35  C        -32.5080   13.5260  -22.3790 C.2    50  ALA50       0.2260
     36  O        -31.4350   12.9860  -22.6530 O.2    50  ALA50      -0.2867
     37  CB       -33.5890   12.0960  -20.6410 C.3    50  ALA50       0.0290
     38  N        -30.0200   16.4350  -21.0970 N.3    52  LYS52      -0.1245
     39  CA       -29.4850   17.2810  -20.0390 C.3    52  LYS52       0.1561
     40  C        -28.7190   18.4120  -20.7010 C.2    52  LYS52       0.2260
     41  O        -27.8940   18.1670  -21.5820 O.2    52  LYS52      -0.2867
     42  CB       -28.5820   16.4770  -19.1030 C.3    52  LYS52       0.0271
     43  CG       -28.0600   17.2160  -17.8870 C.3    52  LYS52       0.0035
     44  CD       -27.1910   16.2730  -17.0600 C.3    52  LYS52       0.0206
     45  CE       -26.8030   16.8700  -15.7200 C.3    52  LYS52       0.1093
     46  NZ       -26.0970   15.8700  -14.8660 N.3    52  LYS52      -0.1314
     47  N        -27.0490    4.3590  -16.3030 N.3    81  VAL81      -0.1245
     48  CA       -27.8540    5.0390  -17.3100 C.3    81  VAL81       0.1561
     49  C        -27.1550    5.0440  -18.6640 C.2    81  VAL81       0.2260
     50  O        -25.9790    5.3950  -18.7550 O.2    81  VAL81      -0.2867
     51  CB       -28.1710    6.4930  -16.8820 C.3    81  VAL81       0.0252
     52  CG1      -28.7670    7.2800  -18.0410 C.3    81  VAL81       0.0019
     53  CG2      -29.1210    6.4990  -15.6960 C.3    81  VAL81       0.0019
     54  N        -29.6300   11.1340  -23.2150 N.3    97  MET97      -0.1230
     55  CA       -29.6390    9.8890  -22.4550 C.3    97  MET97       0.1702
     56  C        -30.9040    9.0790  -22.6310 C.2    97  MET97       0.2592
     57  O        -31.9090    9.5560  -23.1530 O.2    97  MET97      -0.2718
     58  CB       -29.4650   10.1680  -20.9640 C.3    97  MET97       0.0401
     59  CG       -28.0720   10.5460  -20.5440 C.3    97  MET97       0.0596
     60  SD       -28.1330   11.5530  -19.0560 S.3    97  MET97      -0.1393
     61  CE       -28.9760   12.9990  -19.6820 C.3    97  MET97       0.0692
     62  N        -30.8170    7.8380  -22.1710 N.am   98  GLU98      -0.1966
     63  CA       -31.9610    6.9720  -21.9460 C.3    98  GLU98       0.1733
     64  C        -32.9630    7.6630  -21.0110 C.2    98  GLU98       0.2616
     65  O        -32.5730    8.3050  -20.0310 O.2    98  GLU98      -0.2715
     66  CB       -31.4650    5.6440  -21.3630 C.3    98  GLU98       0.0429
     67  CG       -32.4970    4.7560  -20.7070 C.3    98  GLU98       0.1163
     68  CD       -31.8540    3.5480  -20.0460 C.2    98  GLU98       0.3649
     69  OE1      -30.6480    3.6270  -19.7160 O.co2  98  GLU98      -0.2457
     70  OE2      -32.5470    2.5220  -19.8670 O.co2  98  GLU98      -0.2457
     71  N        -34.2500    7.5480  -21.3300 N.am   99  PHE99      -0.1960
     72  CA       -35.2980    8.1470  -20.5120 C.3    99  PHE99       0.1771
     73  C        -35.9190    7.1100  -19.5740 C.2    99  PHE99       0.2619
     74  O        -36.5770    6.1610  -20.0180 O.2    99  PHE99      -0.2715
     75  CB       -36.3670    8.7890  -21.4060 C.3    99  PHE99       0.0574
     76  CG       -37.6280    9.1910  -20.6740 C.ar   99  PHE99      -0.0200
     77  CD1      -37.5970   10.1610  -19.6860 C.ar   99  PHE99      -0.0042
     78  CD2      -38.8490    8.6110  -20.9980 C.ar   99  PHE99      -0.0042
     79  CE1      -38.7550   10.5330  -19.0210 C.ar   99  PHE99      -0.0003
     80  CE2      -40.0070    8.9780  -20.3390 C.ar   99  PHE99      -0.0003
     81  CZ       -39.9610    9.9420  -19.3470 C.ar   99  PHE99      -0.0000
     82  N        -35.6850    7.2970  -18.2770 N.am  100  LEU100     -0.1963
     83  CA       -36.2060    6.4100  -17.2400 C.3   100  LEU100      0.1728
     84  C        -37.5380    6.9270  -16.7060 C.2   100  LEU100      0.2616
     85  O        -37.5840    7.8490  -15.8810 O.2   100  LEU100     -0.2715
     86  CB       -35.2030    6.2590  -16.0920 C.3   100  LEU100      0.0311
     87  CG       -33.9460    5.4140  -16.3250 C.3   100  LEU100      0.0022
     88  CD1      -34.2640    4.1950  -17.1700 C.3   100  LEU100      0.0001
     89  CD2      -32.8230    6.2280  -16.9580 C.3   100  LEU100      0.0001
     90  N        -38.6150    6.3140  -17.1870 N.am  101  GLU101     -0.1977
     91  CA       -39.9790    6.7240  -16.8720 C.3   101  GLU101      0.1602
     92  C        -40.2580    6.8850  -15.3710 C.2   101  GLU101      0.2287
     93  O        -41.0150    7.7700  -14.9640 O.2   101  GLU101     -0.2864
     94  CB       -40.9600    5.7130  -17.4750 C.3   101  GLU101      0.0415
     95  CG       -40.4590    4.2730  -17.4650 C.3   101  GLU101      0.1163
     96  CD       -39.7050    3.8990  -18.7200 C.2   101  GLU101      0.3649
     97  OE1      -40.2840    4.0390  -19.8210 O.co2 101  GLU101     -0.2457
     98  OE2      -38.5390    3.4600  -18.6060 O.co2 101  GLU101     -0.2457
     99  N        -38.6160    8.0070  -12.8800 N.3   103  GLY103     -0.1210
    100  CA       -38.1160    9.1700  -12.1690 C.3   103  GLY103      0.1956
    101  C        -37.1200    8.8300  -11.0770 C.2   103  GLY103      0.2611
    102  O        -36.7140    7.6750  -10.9320 O.2   103  GLY103     -0.2717
    103  N        -36.7310    9.8410  -10.3030 N.am  104  ALA104     -0.1979
    104  CA       -35.7250    9.6780   -9.2570 C.3   104  ALA104      0.1597
    105  C        -36.2650    8.9410   -8.0320 C.2   104  ALA104      0.2287
    106  O        -37.4770    8.8490   -7.8290 O.2   104  ALA104     -0.2864
    107  CB       -35.1720   11.0320   -8.8460 C.3   104  ALA104      0.0319
    108  N        -31.2950   11.2090   -5.0320 N.3   146  ASP146     -0.1239
    109  CA       -31.4210   12.0540   -6.2150 C.3   146  ASP146      0.1674
    110  C        -30.7560   11.4240   -7.4280 C.2   146  ASP146      0.2266
    111  O        -31.2450   11.5360   -8.5500 O.2   146  ASP146     -0.2867
    112  CB       -30.8070   13.4280   -5.9580 C.3   146  ASP146      0.1410
    113  CG       -31.5710   14.2240   -4.9250 C.2   146  ASP146      0.3668
    114  OD1      -32.4620   14.9980   -5.3280 O.co2 146  ASP146     -0.2456
    115  OD2      -31.2770   14.0780   -3.7170 O.co2 146  ASP146     -0.2456
    116  N        -32.1540    6.6410  -10.6560 N.3   149  LEU149     -0.1245
    117  CA       -33.3170    6.6640  -11.5380 C.3   149  LEU149      0.1561
    118  C        -33.9890    5.2930  -11.5840 C.2   149  LEU149      0.2260
    119  O        -33.3590    4.2730  -11.2840 O.2   149  LEU149     -0.2867
    120  CB       -32.9130    7.1140  -12.9430 C.3   149  LEU149      0.0270
    121  CG       -32.4450    8.5680  -13.0600 C.3   149  LEU149      0.0019
    122  CD1      -31.9570    8.8990  -14.4690 C.3   149  LEU149      0.0001
    123  CD2      -33.5590    9.5130  -12.6480 C.3   149  LEU149      0.0001
    124  N        -27.1450    7.3930  -11.8050 N.3   159  SER159     -0.1202
    125  CA       -27.0780    8.5370  -12.7050 C.3   159  SER159      0.2020
    126  C        -26.1380    9.6060  -12.1470 C.2   159  SER159      0.2618
    127  O        -25.2600    9.2890  -11.3470 O.2   159  SER159     -0.2717
    128  CB       -28.4800    9.1060  -12.9370 C.3   159  SER159      0.2103
    129  OG       -28.4740   10.1480  -13.9020 O.3   159  SER159     -0.2182
    130  N        -26.3330   10.8540  -12.5790 N.am  160  ASP160     -0.1973
    131  CA       -25.5340   12.0170  -12.1610 C.3   160  ASP160      0.1709
    132  C        -24.0440   11.7450  -11.9170 C.2   160  ASP160      0.2293
    133  O        -23.6150   11.6360  -10.7680 O.2   160  ASP160     -0.2864
    134  CB       -26.1350   12.6270  -10.8920 C.3   160  ASP160      0.1436
    135  CG       -27.4270   13.3700  -11.1520 C.2   160  ASP160      0.3671
    136  OD1      -27.4640   14.2060  -12.0810 O.co2 160  ASP160     -0.2456
    137  OD2      -28.4060   13.1140  -10.4200 O.co2 160  ASP160     -0.2456
@<TRIPOS>BOND
     1    54    55    1
     2    57    56    2
     3    33    34    1
     4    36    35    2
     5    56    55    1
     6    56    62   am
     7    55    58    1
     8    35    34    1
     9    62    63    1
    10    34    37    1
    11    63    66    1
    12    63    64    1
    13    41    40    2
    14    75    76    1
    15    75    72    1
    16    66    67    1
    17    71    64   am
    18    71    72    1
    19    38    39    1
    20    64    65    2
    21    78    76   ar
    22    78    80   ar
    23    58    59    1
    24    67    68    1
    25    40    39    1
    26    76    77   ar
    27    59    60    1
    28    72    73    1
    29    80    81   ar
    30    68    70   ar
    31    68    69   ar
    32    39    42    1
    33    74    73    2
    34    97    96   ar
    35    77    79   ar
    36    61    60    1
    37    73    82   am
    38    81    79   ar
    39    42    43    1
    40    28    29    2
    41    28    27    1
    42    50    49    2
    43    96    98   ar
    44    96    95    1
    45    49    48    1
    46     7     5    1
    47    82    83    1
    48    27    26    1
    49    27    30    1
    50    52    51    1
    51    31    30    1
    52    43    44    1
    53     1     2    1
    54     8     6    1
    55    94    95    1
    56    94    91    1
    57    48    51    1
    58    48    47    1
    59    30    32    1
    60    83    84    1
    61    83    86    1
    62    90    91    1
    63    90    84   am
    64    88    87    1
    65     6     5    1
    66     5     2    1
    67    44    45    1
    68    89    87    1
    69    51    53    1
    70    91    92    1
    71     2     3    1
    72    84    85    2
    73    87    86    1
    74    45    46    1
    75    12    11    2
    76     9     3   am
    77     9    10    1
    78     3     4    2
    79    92    93    2
    80   122   121    1
    81    11    10    1
    82    11    13   am
    83    20    19   ar
    84   129   128    1
    85    21    19   ar
    86    19    18    1
    87    13    14    1
    88    14    17    1
    89    14    15    1
    90    18    17    1
    91   121   120    1
    92   121   123    1
    93   120   117    1
    94   128   125    1
    95    99   100    1
    96   125   126    1
    97   125   124    1
    98   130   131    1
    99   130   126   am
   100    22    15   am
   101    22    23    1
   102   100   101    1
   103   131   132    1
   104   131   134    1
   105   126   127    2
   106   136   135   ar
   107    15    16    2
   108   132   133    2
   109    25    24    2
   110   118   117    1
   111   118   119    2
   112   117   116    1
   113    23    24    1
   114   135   134    1
   115   135   137   ar
   116   101   102    2
   117   101   103   am
   118   103   104    1
   119   104   107    1
   120   104   105    1
   121   111   110    2
   122   105   106    2
   123   110   109    1
   124   109   112    1
   125   109   108    1
   126   112   113    1
   127   114   113   ar
   128   113   115   ar
