@<TRIPOS>MOLECULE
tmp/5bmtB03.pdb
 80 76 0 0 0
SMALL
GASTEIGER

@<TRIPOS>ATOM
      1  N         48.9500    3.5250   16.2210 N.3   116  PHE116     -0.1241
      2  CA        49.9590    4.5700   16.0480 C.3   116  PHE116      0.1605
      3  C         49.6770    5.7160   16.9660 C.2   116  PHE116      0.2264
      4  O         48.5220    6.1410   17.0540 O.2   116  PHE116     -0.2867
      5  CB        49.9120    5.0970   14.5970 C.3   116  PHE116      0.0534
      6  CG        50.1290    3.9970   13.5790 C.ar  116  PHE116     -0.0203
      7  CD1       49.0480    3.2520   13.0940 C.ar  116  PHE116     -0.0042
      8  CD2       51.4110    3.6550   13.1680 C.ar  116  PHE116     -0.0042
      9  CE1       49.2570    2.1720   12.2150 C.ar  116  PHE116     -0.0003
     10  CE2       51.6150    2.5930   12.2750 C.ar  116  PHE116     -0.0003
     11  CZ        50.5370    1.8530   11.8140 C.ar  116  PHE116     -0.0000
     12  N         48.8410    9.8040   13.2490 N.3   119  VAL119     -0.1231
     13  CA        48.8110    9.6560   11.7920 C.3   119  VAL119      0.1692
     14  C         48.2420   10.9300   11.2090 C.2   119  VAL119      0.2591
     15  O         47.6290   11.7190   11.9310 O.2   119  VAL119     -0.2718
     16  CB        47.9870    8.4300   11.2760 C.3   119  VAL119      0.0266
     17  CG1       48.5070    7.0990   11.8100 C.3   119  VAL119      0.0020
     18  CG2       46.4870    8.6090   11.5640 C.3   119  VAL119      0.0020
     19  N         48.3760   11.1060    9.8900 N.am  120  LEU120     -0.1980
     20  CA        47.7100   12.2350    9.2360 C.3   120  LEU120      0.1596
     21  C         46.3940   11.7360    8.6490 C.2   120  LEU120      0.2287
     22  O         46.2150   10.5290    8.4720 O.2   120  LEU120     -0.2864
     23  CB        48.5820   12.8990    8.1420 C.3   120  LEU120      0.0297
     24  CG        49.8040   13.6940    8.6170 C.3   120  LEU120      0.0022
     25  CD1       50.4670   14.4230    7.4320 C.3   120  LEU120      0.0001
     26  CD2       49.4360   14.7280    9.6880 C.3   120  LEU120      0.0001
     27  N         46.2860    9.2690    5.5430 N.3   123  GLN123     -0.1231
     28  CA        47.5520    8.5280    5.4860 C.3   123  GLN123      0.1698
     29  C         47.2380    7.0600    5.1340 C.2   123  GLN123      0.2592
     30  O         46.2110    6.5360    5.5520 O.2   123  GLN123     -0.2718
     31  CB        48.2720    8.6120    6.8490 C.3   123  GLN123      0.0381
     32  CG        49.5950    7.8400    6.9180 C.3   123  GLN123      0.0905
     33  CD        50.2740    8.0230    8.2520 C.2   123  GLN123      0.2608
     34  OE1       50.3100    9.1200    8.8080 O.2   123  GLN123     -0.2717
     35  NE2       50.8870    6.9630    8.7620 N.am  123  GLN123     -0.0878
     36  N         48.1020    6.4130    4.3430 N.am  124  LYS124     -0.1966
     37  CA        47.9310    5.0030    4.0090 C.3   124  LYS124      0.1728
     38  C         49.2270    4.3040    4.2970 C.2   124  LYS124      0.2616
     39  O         50.2890    4.8630    4.0010 O.2   124  LYS124     -0.2715
     40  CB        47.5320    4.7980    2.5330 C.3   124  LYS124      0.0311
     41  CG        46.2000    5.4480    2.1340 C.3   124  LYS124      0.0038
     42  CD        44.9990    4.5560    2.4530 C.3   124  LYS124      0.0206
     43  CE        43.6770    5.2500    2.2080 C.3   124  LYS124      0.1093
     44  NZ        43.2680    6.1090    3.3520 N.3   124  LYS124     -0.1314
     45  N         49.1520    3.0860    4.8460 N.am  125  ASN125     -0.1972
     46  CA        50.3470    2.3140    5.1730 C.3   125  ASN125      0.1688
     47  C         50.3760    0.9900    4.4600 C.2   125  ASN125      0.2292
     48  O         49.3260    0.4910    4.0520 O.2   125  ASN125     -0.2864
     49  CB        50.3860    2.0080    6.6890 C.3   125  ASN125      0.1181
     50  CG        50.3600    3.2200    7.6010 C.2   125  ASN125      0.2629
     51  OD1       50.7360    4.3330    7.2250 O.2   125  ASN125     -0.2716
     52  ND2       50.0060    2.9970    8.8700 N.am  125  ASN125     -0.0877
     53  N         45.6530   12.8640   13.5510 N.3   162  ILE162     -0.1245
     54  CA        44.7660   11.9590   14.2840 C.3   162  ILE162      0.1561
     55  C         45.6100   11.2710   15.3560 C.2   162  ILE162      0.2260
     56  O         46.6300   10.6460   15.0220 O.2   162  ILE162     -0.2867
     57  CB        44.0710   10.9500   13.3450 C.3   162  ILE162      0.0252
     58  CG1       43.2650   11.6910   12.2490 C.3   162  ILE162      0.0019
     59  CG2       43.2000    9.9480   14.1610 C.3   162  ILE162      0.0019
     60  CD1       42.8120   10.8230   11.0580 C.3   162  ILE162      0.0001
     61  N         45.5930    6.2120   16.5540 N.3   165  ALA165     -0.1245
     62  CA        44.8830    5.6450   15.4150 C.3   165  ALA165      0.1562
     63  C         45.0860    4.1410   15.2870 C.2   165  ALA165      0.2260
     64  O         46.1330    3.6400   15.6660 O.2   165  ALA165     -0.2867
     65  CB        45.3290    6.3240   14.1320 C.3   165  ALA165      0.0290
     66  N         44.5840    0.5240   12.6100 N.3   166  ASP166     -0.1225
     67  CA        44.4540    0.1300   11.2140 C.3   166  ASP166      0.1790
     68  C         44.3010   -1.3990   11.1100 C.2   166  ASP166      0.2439
     69  O         45.2610   -2.0990   10.7560 O.2   166  ASP166     -0.2733
     70  CB        45.6760    0.6040   10.4120 C.3   166  ASP166      0.1423
     71  CG        45.5740    0.4900    8.8950 C.2   166  ASP166      0.3668
     72  OD1       44.4590    0.2850    8.3880 O.co2 166  ASP166     -0.2456
     73  OD2       46.6250    0.6380    8.2070 O.co2 166  ASP166     -0.2456
     74  N         43.1010   -1.9450   11.3830 N.am  167  PRO167     -0.2729
     75  CA        42.9290   -3.4180   11.3080 C.3   167  PRO167      0.1401
     76  C         43.2600   -3.9700    9.9320 C.2   167  PRO167      0.2269
     77  O         42.8010   -3.4360    8.9030 O.2   167  PRO167     -0.2865
     78  CB        41.4460   -3.6350   11.6280 C.3   167  PRO167      0.0296
     79  CG        41.0310   -2.3710   12.3890 C.3   167  PRO167      0.0237
     80  CD        41.8670   -1.2490   11.8090 C.3   167  PRO167      0.0939
@<TRIPOS>BOND
     1    41    42    1
     2    41    40    1
     3    43    42    1
     4    43    44    1
     5    40    37    1
     6    39    38    2
     7    37    38    1
     8    37    36    1
     9    48    47    2
    10    38    45   am
    11    36    29   am
    12    47    46    1
    13    45    46    1
    14    29    28    1
    15    29    30    2
    16    46    49    1
    17    28    27    1
    18    28    31    1
    19    49    50    1
    20    31    32    1
    21    32    33    1
    22    51    50    2
    23    25    24    1
    24    50    52   am
    25    23    24    1
    26    23    20    1
    27    73    71   ar
    28    33    35   am
    29    33    34    2
    30    72    71   ar
    31    22    21    2
    32    24    26    1
    33    21    20    1
    34    71    70    1
    35    77    76    2
    36    20    19    1
    37    19    14   am
    38    76    75    1
    39    70    67    1
    40    69    68    2
    41    60    58    1
    42    68    67    1
    43    68    74   am
    44    14    13    1
    45    14    15    2
    46    67    66    1
    47    16    18    1
    48    16    13    1
    49    16    17    1
    50    75    74    1
    51    75    78    1
    52    74    80    1
    53    78    79    1
    54    13    12    1
    55    80    79    1
    56    11     9   ar
    57    11    10   ar
    58     9     7   ar
    59    58    57    1
    60    10     8   ar
    61     7     6   ar
    62     8     6   ar
    63    57    59    1
    64    57    54    1
    65    53    54    1
    66     6     5    1
    67    65    62    1
    68    54    55    1
    69     5     2    1
    70    56    55    2
    71    63    62    1
    72    63    64    2
    73    62    61    1
    74     2     1    1
    75     2     3    1
    76     3     4    2
