@<TRIPOS>MOLECULE
tmp/5bmvC01.pdb
 100 96 0 0 0
SMALL
GASTEIGER

@<TRIPOS>ATOM
      1  N         -4.3320   29.4940    7.5860 N.3   248  LEU248     -0.1245
      2  CA        -4.3020   30.7360    8.3520 C.3   248  LEU248      0.1561
      3  C         -4.9340   31.8470    7.6410 C.2   248  LEU248      0.2260
      4  O         -4.8720   32.9960    8.1040 O.2   248  LEU248     -0.2867
      5  CB        -2.8790   31.1260    8.6860 C.3   248  LEU248      0.0270
      6  CG        -2.2200   30.2390    9.7330 C.3   248  LEU248      0.0019
      7  CD1       -0.8030   30.7630    9.8810 C.3   248  LEU248      0.0001
      8  CD2       -3.0050   30.2360   11.0500 C.3   248  LEU248      0.0001
      9  N          3.9130   33.1610   11.3480 N.3   325  PRO325     -0.2102
     10  CA         3.4050   33.8420   12.5120 C.3   325  PRO325      0.1504
     11  C          4.4540   34.4450   13.4050 C.2   325  PRO325      0.2575
     12  O          4.2780   35.5830   13.8670 O.2   325  PRO325     -0.2718
     13  CB         2.6340   32.7280   13.2280 C.3   325  PRO325      0.0282
     14  CG         2.0690   31.8910   12.1020 C.3   325  PRO325      0.0208
     15  CD         3.1460   31.9240   11.0520 C.3   325  PRO325      0.0893
     16  N          5.5400   33.7160   13.6630 N.am  326  LYS326     -0.1977
     17  CA         6.6160   34.2520   14.5230 C.3   326  LYS326      0.1639
     18  C          7.0290   35.7070   14.1030 C.2   326  LYS326      0.2290
     19  O          7.1940   36.6200   14.9580 O.2   326  LYS326     -0.2864
     20  CB         7.8280   33.2910   14.5430 C.3   326  LYS326      0.0554
     21  CG         9.0850   33.8530   15.2680 C.2   326  LYS326     -0.0270
     22  CD        10.4000   33.0260   15.2640 C.2   326  LYS326     -0.0102
     23  CE        10.3590   31.7440   14.4400 C.3   326  LYS326      0.1350
     24  NZ        10.3590   31.9690   12.9650 N.3   326  LYS326     -0.1262
     25  N          5.3600   37.9860   12.1970 N.3   328  VAL328     -0.1231
     26  CA         4.2720   38.9120   12.3830 C.3   328  VAL328      0.1692
     27  C          4.2610   39.3070   13.8390 C.2   328  VAL328      0.2592
     28  O          4.1270   40.4730   14.1670 O.2   328  VAL328     -0.2718
     29  CB         2.9110   38.2990   11.9640 C.3   328  VAL328      0.0266
     30  CG1        1.7980   39.3190   12.1240 C.3   328  VAL328      0.0020
     31  CG2        2.9720   37.7890   10.5280 C.3   328  VAL328      0.0020
     32  N          4.4250   38.3700   14.7490 N.am  329  ASN329     -0.1974
     33  CA         4.2740   38.7840   16.1520 C.3   329  ASN329      0.1688
     34  C          5.3150   39.8560   16.5060 C.2   329  ASN329      0.2292
     35  O          4.9770   40.9700   16.9620 O.2   329  ASN329     -0.2864
     36  CB         4.3400   37.5900   17.1180 C.3   329  ASN329      0.1181
     37  CG         3.0600   36.7250   17.1220 C.2   329  ASN329      0.2629
     38  OD1        2.4650   36.4210   16.0880 O.2   329  ASN329     -0.2716
     39  ND2        2.6750   36.2870   18.2910 N.am  329  ASN329     -0.0877
     40  N          4.6730   43.2710   15.0180 N.3   332  ILE332     -0.1231
     41  CA         3.5960   44.0300   15.7120 C.3   332  ILE332      0.1692
     42  C          4.0900   44.4890   17.0870 C.2   332  ILE332      0.2591
     43  O          3.7910   45.6020   17.5220 O.2   332  ILE332     -0.2718
     44  CB         2.2860   43.2080   15.8130 C.3   332  ILE332      0.0266
     45  CG1        1.7250   42.9890   14.4210 C.3   332  ILE332      0.0019
     46  CG2        1.2570   43.9140   16.6610 C.3   332  ILE332      0.0020
     47  CD1        0.7080   41.8610   14.3240 C.3   332  ILE332      0.0001
     48  N          4.8470   43.6340   17.7670 N.am  333  ALA333     -0.1980
     49  CA         5.5190   44.0340   19.0260 C.3   333  ALA333      0.1597
     50  C          6.2350   45.3520   18.8250 C.2   333  ALA333      0.2287
     51  O          5.9360   46.3180   19.5320 O.2   333  ALA333     -0.2864
     52  CB         6.5150   42.9700   19.4740 C.3   333  ALA333      0.0319
     53  N          3.9480   48.3600   18.3300 N.3   336  LYS336     -0.1245
     54  CA         3.1850   48.7890   19.5200 C.3   336  LYS336      0.1561
     55  C          4.0250   49.6950   20.4260 C.2   336  LYS336      0.2260
     56  O          3.5650   50.7700   20.8320 O.2   336  LYS336     -0.2867
     57  CB         2.5970   47.6010   20.3030 C.3   336  LYS336      0.0271
     58  CG         1.3030   47.0490   19.6840 C.3   336  LYS336      0.0035
     59  CD         0.3040   46.4690   20.6890 C.3   336  LYS336      0.0206
     60  CE         0.7860   45.1460   21.2650 C.3   336  LYS336      0.1093
     61  NZ        -0.3210   44.3880   21.9200 N.3   336  LYS336     -0.1314
     62  N         -6.0270   44.4380   17.4140 N.3   351  PHE351     -0.1227
     63  CA        -5.4740   43.9980   16.1340 C.3   351  PHE351      0.1736
     64  C         -5.9680   42.6630   15.6990 C.2   351  PHE351      0.2595
     65  O         -6.0790   41.8080   16.5350 O.2   351  PHE351     -0.2718
     66  CB        -4.0080   43.8230   16.2620 C.3   351  PHE351      0.0547
     67  CG        -3.2600   45.0740   16.1470 C.ar  351  PHE351     -0.0202
     68  CD1       -3.1350   45.9090   17.2430 C.ar  351  PHE351     -0.0042
     69  CD2       -2.6520   45.4150   14.9570 C.ar  351  PHE351     -0.0042
     70  CE1       -2.4160   47.0800   17.1410 C.ar  351  PHE351     -0.0003
     71  CE2       -1.9110   46.5770   14.8590 C.ar  351  PHE351     -0.0003
     72  CZ        -1.8030   47.4140   15.9450 C.ar  351  PHE351     -0.0000
     73  N         -6.1890   42.4740   14.3890 N.am  352  LYS352     -0.1966
     74  CA        -6.6210   41.1990   13.8390 C.3   352  LYS352      0.1728
     75  C         -5.8360   40.8760   12.5900 C.2   352  LYS352      0.2616
     76  O         -5.6880   41.7530   11.7770 O.2   352  LYS352     -0.2715
     77  CB        -8.1180   41.2020   13.5190 C.3   352  LYS352      0.0311
     78  CG        -8.5590   39.9810   12.6780 C.3   352  LYS352      0.0038
     79  CD       -10.0790   39.9080   12.4810 C.3   352  LYS352      0.0206
     80  CE       -10.5890   38.4970   12.2370 C.3   352  LYS352      0.1093
     81  NZ       -11.0180   37.7780   13.4790 N.3   352  LYS352     -0.1314
     82  N         -5.4110   39.6130   12.4110 N.am  353  VAL353     -0.1963
     83  CA        -4.3580   39.2720   11.4690 C.3   353  VAL353      0.1727
     84  C         -4.5760   37.9860   10.6780 C.2   353  VAL353      0.2617
     85  O         -4.9650   37.0020   11.1990 O.2   353  VAL353     -0.2715
     86  CB        -3.0140   39.0900   12.2260 C.3   353  VAL353      0.0290
     87  CG1       -1.9660   38.5490   11.2960 C.3   353  VAL353      0.0023
     88  CG2       -2.4980   40.3900   12.8070 C.3   353  VAL353      0.0023
     89  N         -4.2890   37.9950    9.3960 N.am  354  GLY354     -0.1940
     90  CA        -4.4030   36.7930    8.6200 C.3   354  GLY354      0.2014
     91  C         -3.2580   36.7230    7.6390 C.2   354  GLY354      0.2638
     92  O         -2.6120   37.7290    7.3660 O.2   354  GLY354     -0.2714
     93  N         -3.0420   35.5260    7.1090 N.am  355  ILE355     -0.1977
     94  CA        -2.0260   35.2650    6.1460 C.3   355  ILE355      0.1596
     95  C         -2.6230   34.3960    5.0550 C.2   355  ILE355      0.2287
     96  O         -3.2390   33.3790    5.3620 O.2   355  ILE355     -0.2864
     97  CB        -0.8760   34.4710    6.7850 C.3   355  ILE355      0.0276
     98  CG1       -0.2070   35.2660    7.8740 C.3   355  ILE355      0.0022
     99  CG2        0.2010   34.1850    5.7670 C.3   355  ILE355      0.0022
    100  CD1        0.8990   34.5070    8.5550 C.3   355  ILE355      0.0001
@<TRIPOS>BOND
     1    95    96    2
     2    95    94    1
     3    99    97    1
     4    94    97    1
     5    94    93    1
     6    97    98    1
     7    93    91   am
     8    92    91    2
     9     1     2    1
    10    91    90    1
    11     3     4    2
    12     3     2    1
    13    98   100    1
    14     2     5    1
    15    90    89    1
    16     5     6    1
    17    89    84   am
    18     6     7    1
    19     6     8    1
    20    31    29    1
    21    84    85    2
    22    84    83    1
    23    15     9    1
    24    15    14    1
    25    87    86    1
    26     9    10    1
    27    83    86    1
    28    83    82    1
    29    76    75    2
    30    29    30    1
    31    29    26    1
    32    14    13    1
    33    25    26    1
    34    86    88    1
    35    80    79    1
    36    80    81    1
    37    26    27    1
    38    82    75   am
    39    79    78    1
    40    10    13    1
    41    10    11    1
    42    75    74    1
    43    78    77    1
    44    24    23    1
    45    11    16   am
    46    11    12    2
    47    77    74    1
    48    16    17    1
    49    27    28    2
    50    27    32   am
    51    74    73    1
    52    18    17    1
    53    18    19    2
    54    47    45    1
    55    73    64   am
    56    45    44    1
    57    23    22    1
    58    17    20    1
    59    20    21    1
    60    32    33    1
    61    71    69   ar
    62    71    72   ar
    63    69    67   ar
    64    40    41    1
    65    22    21    2
    66    64    63    1
    67    64    65    2
    68    41    44    1
    69    41    42    1
    70    44    46    1
    71    72    70   ar
    72    38    37    2
    73    63    66    1
    74    63    62    1
    75    67    66    1
    76    67    68   ar
    77    33    34    1
    78    33    36    1
    79    34    35    2
    80    42    43    2
    81    42    48   am
    82    36    37    1
    83    37    39   am
    84    70    68   ar
    85    48    49    1
    86    53    54    1
    87    50    49    1
    88    50    51    2
    89    49    52    1
    90    54    57    1
    91    54    55    1
    92    58    57    1
    93    58    59    1
    94    55    56    2
    95    59    60    1
    96    60    61    1
