@<TRIPOS>MOLECULE
tmp/5bn3A00.pdb
 137 135 0 0 0
SMALL
GASTEIGER

@<TRIPOS>ATOM
      1  N        -12.9040   16.1920  -19.1830 N.3   225  PHE225     -0.1227
      2  CA       -13.1940   17.6200  -19.0610 C.3   225  PHE225      0.1736
      3  C        -13.3230   18.2850  -20.4330 C.2   225  PHE225      0.2596
      4  O        -12.5490   17.9980  -21.3480 O.2   225  PHE225     -0.2718
      5  CB       -12.1770   18.3510  -18.1620 C.3   225  PHE225      0.0547
      6  CG       -10.7960   18.4870  -18.7530 C.ar  225  PHE225     -0.0202
      7  CD1      -10.4850   19.5390  -19.6080 C.ar  225  PHE225     -0.0042
      8  CD2       -9.7940   17.5960  -18.4060 C.ar  225  PHE225     -0.0042
      9  CE1       -9.2100   19.6720  -20.1350 C.ar  225  PHE225     -0.0003
     10  CE2       -8.5180   17.7220  -18.9270 C.ar  225  PHE225     -0.0003
     11  CZ        -8.2240   18.7630  -19.7930 C.ar  225  PHE225     -0.0000
     12  N        -14.3220   19.1490  -20.5760 N.am  226  GLY226     -0.1942
     13  CA       -14.5350   19.8650  -21.8220 C.3   226  GLY226      0.2014
     14  C        -15.3160   19.0960  -22.8760 C.2   226  GLY226      0.2640
     15  O        -15.4810   19.5770  -23.9960 O.2   226  GLY226     -0.2714
     16  N        -15.8060   17.9090  -22.5280 N.am  227  SER227     -0.1935
     17  CA       -16.5310   17.0870  -23.4990 C.3   227  SER227      0.2055
     18  C        -18.0090   17.4670  -23.6330 C.2   227  SER227      0.2644
     19  O        -18.6480   17.1340  -24.6330 O.2   227  SER227     -0.2714
     20  CB       -16.3710   15.5940  -23.1950 C.3   227  SER227      0.2130
     21  OG       -16.9390   15.2480  -21.9470 O.3   227  SER227     -0.2179
     22  N        -18.5560   18.1570  -22.6340 N.am  228  GLY228     -0.1939
     23  CA       -19.8910   18.7220  -22.7690 C.3   228  GLY228      0.2014
     24  C        -20.9770   18.2460  -21.8170 C.2   228  GLY228      0.2639
     25  O        -22.1590   18.4430  -22.1010 O.2   228  GLY228     -0.2714
     26  N        -20.5880   17.6400  -20.6950 N.am  229  LYS229     -0.1963
     27  CA       -21.5450   17.1350  -19.7050 C.3   229  LYS229      0.1728
     28  C        -22.4820   18.2190  -19.1880 C.2   229  LYS229      0.2617
     29  O        -23.7000   18.0340  -19.1380 O.2   229  LYS229     -0.2715
     30  CB       -20.8100   16.5700  -18.4870 C.3   229  LYS229      0.0311
     31  CG       -20.0240   15.3020  -18.6910 C.3   229  LYS229      0.0038
     32  CD       -19.3100   14.9730  -17.3920 C.3   229  LYS229      0.0206
     33  CE       -17.8080   15.1140  -17.5210 C.3   229  LYS229      0.1093
     34  NZ       -17.3250   16.4140  -18.0460 N.3   229  LYS229     -0.1314
     35  N        -21.8980   19.3400  -18.7770 N.am  230  THR230     -0.1937
     36  CA       -22.6540   20.4220  -18.1480 C.3   230  THR230      0.2028
     37  C        -23.6620   21.0580  -19.1050 C.2   230  THR230      0.2642
     38  O        -24.8140   21.2880  -18.7380 O.2   230  THR230     -0.2714
     39  CB       -21.7100   21.5020  -17.5790 C.3   230  THR230      0.1808
     40  OG1      -20.9300   20.9390  -16.5120 O.3   230  THR230     -0.2208
     41  CG2      -22.5030   22.6850  -17.0530 C.3   230  THR230      0.0379
     42  N        -23.2280   21.3350  -20.3310 N.am  231  VAL231     -0.1963
     43  CA       -24.1200   21.8880  -21.3430 C.3   231  VAL231      0.1727
     44  C        -25.2430   20.9060  -21.6640 C.2   231  VAL231      0.2616
     45  O        -26.4060   21.2990  -21.7790 O.2   231  VAL231     -0.2715
     46  CB       -23.3510   22.2640  -22.6290 C.3   231  VAL231      0.0290
     47  CG1      -24.3160   22.6000  -23.7510 C.3   231  VAL231      0.0023
     48  CG2      -22.4280   23.4390  -22.3630 C.3   231  VAL231      0.0023
     49  N        -24.8990   19.6280  -21.7860 N.am  232  LEU232     -0.1977
     50  CA       -25.8950   18.6050  -22.0930 C.3   232  LEU232      0.1596
     51  C        -26.9550   18.5170  -21.0050 C.2   232  LEU232      0.2287
     52  O        -28.1440   18.4520  -21.3000 O.2   232  LEU232     -0.2864
     53  CB       -25.2370   17.2370  -22.2950 C.3   232  LEU232      0.0297
     54  CG       -26.2150   16.1370  -22.7200 C.3   232  LEU232      0.0022
     55  CD1      -26.8720   16.5120  -24.0320 C.3   232  LEU232      0.0001
     56  CD2      -25.5290   14.7880  -22.8430 C.3   232  LEU232      0.0001
     57  N        -29.1160   21.6290  -21.1240 N.3   235  GLN235     -0.1245
     58  CA       -30.0460   21.5170  -22.2470 C.3   235  GLN235      0.1566
     59  C        -31.2500   20.6670  -21.8750 C.2   235  GLN235      0.2260
     60  O        -32.3830   20.9940  -22.2210 O.2   235  GLN235     -0.2867
     61  CB       -29.3500   20.9110  -23.4680 C.3   235  GLN235      0.0367
     62  CG       -28.4340   21.8740  -24.1970 C.3   235  GLN235      0.0905
     63  CD       -29.1560   23.1190  -24.6690 C.2   235  GLN235      0.2608
     64  OE1      -29.0320   24.1870  -24.0690 O.2   235  GLN235     -0.2717
     65  NE2      -29.9120   22.9900  -25.7530 N.am  235  GLN235     -0.0878
     66  N        -18.5730   24.3680  -10.9460 N.3   253  ARG253     -0.1245
     67  CA       -18.2640   25.8010  -11.0050 C.3   253  ARG253      0.1563
     68  C        -19.4110   26.6990  -10.5420 C.2   253  ARG253      0.2260
     69  O        -20.5760   26.4550  -10.8670 O.2   253  ARG253     -0.2867
     70  CB       -17.8330   26.2080  -12.4210 C.3   253  ARG253      0.0307
     71  CG       -16.5910   25.4770  -12.9260 C.3   253  ARG253      0.0489
     72  CD       -16.2090   25.9000  -14.3410 C.3   253  ARG253      0.2205
     73  NE       -15.1140   25.0810  -14.8640 N.pl3 253  ARG253     -0.0865
     74  CZ       -15.2830   23.9460  -15.5360 C.cat 253  ARG253      0.5346
     75  NH1      -16.5040   23.4970  -15.7840 N.pl3 253  ARG253      0.1354
     76  NH2      -14.2340   23.2630  -15.9660 N.pl3 253  ARG253      0.1354
     77  N        -21.4780   28.3760  -13.3430 N.3   256  GLU256     -0.1245
     78  CA       -22.4450   27.5480  -14.0570 C.3   256  GLU256      0.1567
     79  C        -23.8200   27.5960  -13.3970 C.2   256  GLU256      0.2260
     80  O        -24.8450   27.4880  -14.0700 O.2   256  GLU256     -0.2867
     81  CB       -21.9290   26.1110  -14.1880 C.3   256  GLU256      0.0388
     82  CG       -20.7680   25.9920  -15.1730 C.3   256  GLU256      0.1160
     83  CD       -19.9010   24.7760  -14.9350 C.2   256  GLU256      0.3649
     84  OE1      -20.1620   24.0260  -13.9680 O.co2 256  GLU256     -0.2457
     85  OE2      -18.9480   24.5700  -15.7180 O.co2 256  GLU256     -0.2457
     86  N        -20.8630   18.6340  -31.2220 N.3   414  TYR414     -0.1228
     87  CA       -21.6640   18.6040  -30.0000 C.3   414  TYR414      0.1721
     88  C        -23.1360   18.3520  -30.3220 C.2   414  TYR414      0.2437
     89  O        -23.6520   18.8860  -31.3020 O.2   414  TYR414     -0.2733
     90  CB       -21.5540   19.9210  -29.2280 C.3   414  TYR414      0.0547
     91  CG       -20.1560   20.4030  -28.9150 C.ar  414  TYR414     -0.0200
     92  CD1      -19.3550   19.7440  -27.9900 C.ar  414  TYR414     -0.0009
     93  CD2      -19.6580   21.5480  -29.5130 C.ar  414  TYR414     -0.0009
     94  CE1      -18.0790   20.2050  -27.6950 C.ar  414  TYR414      0.0417
     95  CE2      -18.3930   22.0130  -29.2260 C.ar  414  TYR414      0.0417
     96  CZ       -17.6090   21.3400  -28.3180 C.ar  414  TYR414      0.1957
     97  OH       -16.3480   21.8100  -28.0350 O.3   414  TYR414     -0.2866
     98  N        -23.8210   17.5360  -29.5020 N.am  415  PRO415     -0.2729
     99  CA       -23.3020   16.7670  -28.3610 C.3   415  PRO415      0.1401
    100  C        -22.2960   15.7050  -28.7890 C.2   415  PRO415      0.2269
    101  O        -22.5130   15.0150  -29.7860 O.2   415  PRO415     -0.2865
    102  CB       -24.5550   16.0820  -27.8040 C.3   415  PRO415      0.0296
    103  CG       -25.6930   16.9420  -28.2610 C.3   415  PRO415      0.0237
    104  CD       -25.2850   17.4210  -29.6190 C.3   415  PRO415      0.0939
    105  N        -26.0700   19.2870  -32.5780 N.3   489  GLN489     -0.1231
    106  CA       -27.1170   20.2180  -32.1790 C.3   489  GLN489      0.1698
    107  C        -26.5140   21.3640  -31.3710 C.2   489  GLN489      0.2592
    108  O        -25.9640   21.1510  -30.2870 O.2   489  GLN489     -0.2718
    109  CB       -28.2020   19.4910  -31.3760 C.3   489  GLN489      0.0381
    110  CG       -29.4310   20.3400  -31.0730 C.3   489  GLN489      0.0905
    111  CD       -30.6110   19.5190  -30.5900 C.2   489  GLN489      0.2608
    112  OE1      -30.6360   18.2950  -30.7340 O.2   489  GLN489     -0.2717
    113  NE2      -31.6000   20.1930  -30.0130 N.am  489  GLN489     -0.0878
    114  N        -26.6110   22.5760  -31.9120 N.am  490  ASP490     -0.1960
    115  CA       -26.0130   23.7560  -31.2930 C.3   490  ASP490      0.1840
    116  C        -26.8790   24.2540  -30.1370 C.2   490  ASP490      0.2622
    117  O        -27.9810   24.7630  -30.3440 O.2   490  ASP490     -0.2715
    118  CB       -25.8360   24.8650  -32.3360 C.3   490  ASP490      0.1450
    119  CG       -24.9130   25.9760  -31.8670 C.2   490  ASP490      0.3671
    120  OD1      -24.6610   26.0890  -30.6480 O.co2 490  ASP490     -0.2456
    121  OD2      -24.4400   26.7490  -32.7250 O.co2 490  ASP490     -0.2456
    122  N        -26.3680   24.1110  -28.9180 N.am  491  ALA491     -0.1963
    123  CA       -27.1020   24.5090  -27.7200 C.3   491  ALA491      0.1728
    124  C        -27.2750   26.0190  -27.6200 C.2   491  ALA491      0.2616
    125  O        -28.1260   26.5040  -26.8710 O.2   491  ALA491     -0.2715
    126  CB       -26.3960   23.9910  -26.4900 C.3   491  ALA491      0.0334
    127  N        -26.4590   26.7580  -28.3630 N.am  492  PHE492     -0.1974
    128  CA       -26.4600   28.2130  -28.2630 C.3   492  PHE492      0.1639
    129  C        -26.8660   28.8960  -29.5670 C.2   492  PHE492      0.2290
    130  O        -26.5080   30.0470  -29.8170 O.2   492  PHE492     -0.2864
    131  CB       -25.1000   28.7060  -27.7650 C.3   492  PHE492      0.0560
    132  CG       -24.6250   27.9880  -26.5340 C.ar  492  PHE492     -0.0200
    133  CD1      -25.3100   28.1210  -25.3350 C.ar  492  PHE492     -0.0042
    134  CD2      -23.5090   27.1670  -26.5770 C.ar  492  PHE492     -0.0042
    135  CE1      -24.8870   27.4540  -24.1990 C.ar  492  PHE492     -0.0003
    136  CE2      -23.0780   26.4970  -25.4430 C.ar  492  PHE492     -0.0003
    137  CZ       -23.7690   26.6420  -24.2520 C.ar  492  PHE492     -0.0000
@<TRIPOS>BOND
     1   121   119   ar
     2   105   106    1
     3   118   119    1
     4   118   115    1
     5   106   109    1
     6   106   107    1
     7   114   107   am
     8   114   115    1
     9   119   120   ar
    10   109   110    1
    11   107   108    2
    12    89    88    2
    13   115   116    1
    14    86    87    1
    15   110   111    1
    16   112   111    2
    17   111   113   am
    18   117   116    2
    19    88    87    1
    20    88    98   am
    21   116   122   am
    22    87    90    1
    23   130   129    2
    24   101   100    2
    25   104    98    1
    26   104   103    1
    27   129   128    1
    28    93    95   ar
    29    93    91   ar
    30    98    99    1
    31    90    91    1
    32    95    96   ar
    33   122   123    1
    34    91    92   ar
    35   100    99    1
    36   127   128    1
    37   127   124   am
    38    99   102    1
    39    96    97    1
    40    96    94   ar
    41   128   131    1
    42   103   102    1
    43    92    94   ar
    44   131   132    1
    45   123   124    1
    46   123   126    1
    47   124   125    2
    48   134   132   ar
    49   134   136   ar
    50   132   133   ar
    51    65    63   am
    52   136   137   ar
    53   133   135   ar
    54    63    62    1
    55    63    64    2
    56    19    18    2
    57   137   135   ar
    58    62    61    1
    59    55    54    1
    60    15    14    2
    61    47    46    1
    62    18    17    1
    63    18    22   am
    64    17    20    1
    65    17    16    1
    66    61    58    1
    67    20    21    1
    68    14    16   am
    69    14    13    1
    70    56    54    1
    71    23    22    1
    72    23    24    1
    73    54    53    1
    74    46    48    1
    75    46    43    1
    76    53    50    1
    77    58    59    1
    78    58    57    1
    79    60    59    2
    80    25    24    2
    81    50    49    1
    82    50    51    1
    83    13    12    1
    84    24    26   am
    85    49    44   am
    86    45    44    2
    87    44    43    1
    88     4     3    2
    89    43    42    1
    90    52    51    2
    91    26    27    1
    92    12     3   am
    93     3     2    1
    94    42    37   am
    95     9    11   ar
    96     9     7   ar
    97    11    10   ar
    98    27    28    1
    99    27    30    1
   100     7     6   ar
   101    28    29    2
   102    28    35   am
   103     1     2    1
   104    37    38    2
   105    37    36    1
   106     2     5    1
   107    10     8   ar
   108    35    36    1
   109     6     8   ar
   110     6     5    1
   111    31    30    1
   112    31    32    1
   113    36    39    1
   114    34    33    1
   115    39    41    1
   116    39    40    1
   117    33    32    1
   118    76    74    1
   119    75    74    1
   120    85    83   ar
   121    74    73    2
   122    82    83    1
   123    82    81    1
   124    83    84   ar
   125    73    72    1
   126    72    71    1
   127    81    78    1
   128    80    79    2
   129    78    79    1
   130    78    77    1
   131    71    70    1
   132    70    67    1
   133    67    66    1
   134    67    68    1
   135    69    68    2
