@<TRIPOS>MOLECULE
tmp/5bn4A00.pdb
 165 161 0 0 0
SMALL
GASTEIGER

@<TRIPOS>ATOM
      1  N        -12.9020   16.2580  -14.0530 N.3   225  PHE225     -0.1227
      2  CA       -13.1920   17.6860  -13.9680 C.3   225  PHE225      0.1736
      3  C        -13.2890   18.3230  -15.3520 C.2   225  PHE225      0.2596
      4  O        -12.4810   18.0390  -16.2360 O.2   225  PHE225     -0.2718
      5  CB       -12.1850   18.4260  -13.0700 C.3   225  PHE225      0.0547
      6  CG       -10.7900   18.5160  -13.6350 C.ar  225  PHE225     -0.0202
      7  CD1      -10.4410   19.5360  -14.5110 C.ar  225  PHE225     -0.0042
      8  CD2       -9.8160   17.6090  -13.2550 C.ar  225  PHE225     -0.0042
      9  CE1       -9.1570   19.6280  -15.0220 C.ar  225  PHE225     -0.0003
     10  CE2       -8.5300   17.6960  -13.7600 C.ar  225  PHE225     -0.0003
     11  CZ        -8.2000   18.7090  -14.6450 C.ar  225  PHE225     -0.0000
     12  N        -14.2930   19.1740  -15.5360 N.am  226  GLY226     -0.1942
     13  CA       -14.4880   19.8660  -16.7960 C.3   226  GLY226      0.2014
     14  C        -15.2850   19.0710  -17.8130 C.2   226  GLY226      0.2640
     15  O        -15.4630   19.5120  -18.9490 O.2   226  GLY226     -0.2714
     16  N        -15.7690   17.9000  -17.4080 N.am  227  SER227     -0.1935
     17  CA       -16.5050   17.0270  -18.3210 C.3   227  SER227      0.2055
     18  C        -17.9400   17.4990  -18.5510 C.2   227  SER227      0.2644
     19  O        -18.4760   17.3540  -19.6500 O.2   227  SER227     -0.2714
     20  CB       -16.4740   15.5730  -17.8390 C.3   227  SER227      0.2130
     21  OG       -16.8560   15.4730  -16.4790 O.3   227  SER227     -0.2179
     22  N        -18.5600   18.0600  -17.5150 N.am  228  GLY228     -0.1939
     23  CA       -19.8720   18.6660  -17.6630 C.3   228  GLY228      0.2014
     24  C        -20.9330   18.2130  -16.6760 C.2   228  GLY228      0.2639
     25  O        -22.1270   18.3400  -16.9500 O.2   228  GLY228     -0.2714
     26  N        -20.5050   17.7020  -15.5240 N.am  229  LYS229     -0.1963
     27  CA       -21.4310   17.1910  -14.5120 C.3   229  LYS229      0.1728
     28  C        -22.3940   18.2460  -13.9740 C.2   229  LYS229      0.2617
     29  O        -23.6020   18.0160  -13.9100 O.2   229  LYS229     -0.2715
     30  CB       -20.6660   16.5650  -13.3450 C.3   229  LYS229      0.0311
     31  CG       -19.9870   15.2550  -13.6790 C.3   229  LYS229      0.0038
     32  CD       -19.2690   14.6870  -12.4700 C.3   229  LYS229      0.0206
     33  CE       -18.0920   15.5530  -12.0720 C.3   229  LYS229      0.1093
     34  NZ       -17.1350   15.7160  -13.2010 N.3   229  LYS229     -0.1314
     35  N        -21.8570   19.3930  -13.5730 N.am  230  THR230     -0.1937
     36  CA       -22.6780   20.4390  -12.9710 C.3   230  THR230      0.2028
     37  C        -23.6910   20.9870  -13.9650 C.2   230  THR230      0.2642
     38  O        -24.8830   21.0730  -13.6630 O.2   230  THR230     -0.2714
     39  CB       -21.8260   21.5910  -12.3950 C.3   230  THR230      0.1808
     40  OG1      -21.2290   21.1690  -11.1640 O.3   230  THR230     -0.2208
     41  CG2      -22.6910   22.8090  -12.1160 C.3   230  THR230      0.0379
     42  N        -23.2160   21.3430  -15.1540 N.am  231  VAL231     -0.1963
     43  CA       -24.0860   21.8810  -16.1910 C.3   231  VAL231      0.1727
     44  C        -25.1930   20.8930  -16.5600 C.2   231  VAL231      0.2616
     45  O        -26.3550   21.2780  -16.6940 O.2   231  VAL231     -0.2715
     46  CB       -23.2880   22.2990  -17.4450 C.3   231  VAL231      0.0290
     47  CG1      -24.2260   22.6570  -18.5910 C.3   231  VAL231      0.0023
     48  CG2      -22.3760   23.4700  -17.1150 C.3   231  VAL231      0.0023
     49  N        -24.8360   19.6210  -16.6980 N.am  232  LEU232     -0.1977
     50  CA       -25.8210   18.5950  -17.0220 C.3   232  LEU232      0.1596
     51  C        -26.8850   18.5110  -15.9350 C.2   232  LEU232      0.2287
     52  O        -28.0790   18.4580  -16.2290 O.2   232  LEU232     -0.2864
     53  CB       -25.1550   17.2310  -17.2120 C.3   232  LEU232      0.0297
     54  CG       -26.1000   16.0990  -17.6230 C.3   232  LEU232      0.0022
     55  CD1      -26.7290   16.3900  -18.9790 C.3   232  LEU232      0.0001
     56  CD2      -25.3790   14.7600  -17.6350 C.3   232  LEU232      0.0001
     57  N        -29.0420   21.5580  -16.0360 N.3   235  GLN235     -0.1245
     58  CA       -29.9560   21.4570  -17.1690 C.3   235  GLN235      0.1566
     59  C        -31.1590   20.5830  -16.8300 C.2   235  GLN235      0.2260
     60  O        -32.2830   20.8760  -17.2390 O.2   235  GLN235     -0.2867
     61  CB       -29.2360   20.9070  -18.4020 C.3   235  GLN235      0.0367
     62  CG       -28.3480   21.9220  -19.0950 C.3   235  GLN235      0.0905
     63  CD       -29.1260   23.1170  -19.6090 C.2   235  GLN235      0.2608
     64  OE1      -28.9590   24.2360  -19.1240 O.2   235  GLN235     -0.2717
     65  NE2      -29.9780   22.8850  -20.6010 N.am  235  GLN235     -0.0878
     66  N        -19.1660   21.6070   -3.4160 N.3   252  GLU252     -0.1231
     67  CA       -18.6710   22.1660   -4.6700 C.3   252  GLU252      0.1699
     68  C        -18.5290   23.6850   -4.6110 C.2   252  GLU252      0.2592
     69  O        -18.4850   24.2690   -3.5300 O.2   252  GLU252     -0.2718
     70  CB       -19.5620   21.7540   -5.8440 C.3   252  GLU252      0.0402
     71  CG       -19.6270   20.2480   -6.0880 C.3   252  GLU252      0.1161
     72  CD       -18.2790   19.6410   -6.4510 C.2   252  GLU252      0.3649
     73  OE1      -17.3950   20.3850   -6.9190 O.co2 252  GLU252     -0.2457
     74  OE2      -18.1020   18.4170   -6.2670 O.co2 252  GLU252     -0.2457
     75  N        -18.4520   24.3160   -5.7790 N.am  253  ARG253     -0.1980
     76  CA       -18.1990   25.7530   -5.8680 C.3   253  ARG253      0.1597
     77  C        -19.3910   26.6010   -5.4280 C.2   253  ARG253      0.2287
     78  O        -20.5440   26.2630   -5.7010 O.2   253  ARG253     -0.2864
     79  CB       -17.7890   26.1380   -7.2920 C.3   253  ARG253      0.0334
     80  CG       -16.5140   25.4650   -7.7760 C.3   253  ARG253      0.0492
     81  CD       -16.1990   25.8460   -9.2160 C.3   253  ARG253      0.2205
     82  NE       -15.0250   25.1400   -9.7210 N.pl3 253  ARG253     -0.0865
     83  CZ       -15.0660   23.9500  -10.3120 C.cat 253  ARG253      0.5346
     84  NH1      -16.2250   23.3280  -10.4770 N.pl3 253  ARG253      0.1354
     85  NH2      -13.9470   23.3800  -10.7390 N.pl3 253  ARG253      0.1354
     86  N        -21.5980   28.4450   -8.2970 N.3   256  GLU256     -0.1245
     87  CA       -22.5490   27.6370   -9.0530 C.3   256  GLU256      0.1567
     88  C        -23.9100   27.6110   -8.3900 C.2   256  GLU256      0.2260
     89  O        -24.9200   27.3960   -9.0560 O.2   256  GLU256     -0.2867
     90  CB       -22.0470   26.2090   -9.2380 C.3   256  GLU256      0.0388
     91  CG       -20.7910   26.1080  -10.0670 C.3   256  GLU256      0.1160
     92  CD       -20.0190   24.8370   -9.7990 C.2   256  GLU256      0.3649
     93  OE1      -20.2800   24.1790   -8.7690 O.co2 256  GLU256     -0.2457
     94  OE2      -19.1470   24.4990  -10.6240 O.co2 256  GLU256     -0.2457
     95  N        -24.8480   17.1760   -6.4010 N.3   320  ASP320     -0.1239
     96  CA       -23.5900   17.5460   -7.0400 C.3   320  ASP320      0.1674
     97  C        -22.5660   18.0320   -6.0150 C.2   320  ASP320      0.2266
     98  O        -22.6290   19.1770   -5.5700 O.2   320  ASP320     -0.2867
     99  CB       -23.8410   18.6300   -8.0940 C.3   320  ASP320      0.1410
    100  CG       -22.5660   19.1050   -8.7670 C.2   320  ASP320      0.3668
    101  OD1      -21.5990   18.3190   -8.8490 O.co2 320  ASP320     -0.2456
    102  OD2      -22.5350   20.2690   -9.2210 O.co2 320  ASP320     -0.2456
    103  N        -18.0310   14.1580   -2.7050 N.3   324  ARG324     -0.1245
    104  CA       -17.6430   15.0490   -1.6160 C.3   324  ARG324      0.1563
    105  C        -18.2260   14.5550   -0.2980 C.2   324  ARG324      0.2260
    106  O        -17.6380   14.7480    0.7650 O.2   324  ARG324     -0.2867
    107  CB       -18.0950   16.4840   -1.8970 C.3   324  ARG324      0.0307
    108  CG       -17.7250   16.9940   -3.2820 C.3   324  ARG324      0.0489
    109  CD       -16.2460   16.8080   -3.5820 C.3   324  ARG324      0.2205
    110  NE       -15.9370   17.1420   -4.9700 N.pl3 324  ARG324     -0.0865
    111  CZ       -14.8910   16.6670   -5.6400 C.cat 324  ARG324      0.5346
    112  NH1      -14.0460   15.8280   -5.0530 N.pl3 324  ARG324      0.1354
    113  NH2      -14.6920   17.0260   -6.9010 N.pl3 324  ARG324      0.1354
    114  N        -20.7550   18.5310  -26.1290 N.3   414  TYR414     -0.1228
    115  CA       -21.5750   18.5720  -24.9240 C.3   414  TYR414      0.1721
    116  C        -23.0410   18.2670  -25.2240 C.2   414  TYR414      0.2437
    117  O        -23.5990   18.7970  -26.1840 O.2   414  TYR414     -0.2733
    118  CB       -21.4580   19.9360  -24.2480 C.3   414  TYR414      0.0547
    119  CG       -20.0530   20.3080  -23.8360 C.ar  414  TYR414     -0.0200
    120  CD1      -19.3590   19.5500  -22.9030 C.ar  414  TYR414     -0.0009
    121  CD2      -19.4280   21.4270  -24.3680 C.ar  414  TYR414     -0.0009
    122  CE1      -18.0760   19.8910  -22.5190 C.ar  414  TYR414      0.0417
    123  CE2      -18.1460   21.7770  -23.9880 C.ar  414  TYR414      0.0417
    124  CZ       -17.4740   21.0050  -23.0640 C.ar  414  TYR414      0.1957
    125  OH       -16.1950   21.3490  -22.6840 O.3   414  TYR414     -0.2866
    126  N        -23.6740   17.4170  -24.3970 N.am  415  PRO415     -0.2729
    127  CA       -23.0870   16.7230  -23.2430 C.3   415  PRO415      0.1401
    128  C        -22.1060   15.6220  -23.6460 C.2   415  PRO415      0.2269
    129  O        -22.3260   14.9250  -24.6360 O.2   415  PRO415     -0.2865
    130  CB       -24.3060   16.1060  -22.5470 C.3   415  PRO415      0.0296
    131  CG       -25.4780   16.8930  -23.0430 C.3   415  PRO415      0.0237
    132  CD       -25.1340   17.2350  -24.4550 C.3   415  PRO415      0.0939
    133  N        -26.0870   19.2110  -27.4180 N.3   491  GLN491     -0.1231
    134  CA       -27.1450   20.1360  -27.0360 C.3   491  GLN491      0.1698
    135  C        -26.5690   21.3120  -26.2530 C.2   491  GLN491      0.2592
    136  O        -26.0990   21.1490  -25.1280 O.2   491  GLN491     -0.2718
    137  CB       -28.2100   19.4090  -26.2120 C.3   491  GLN491      0.0381
    138  CG       -29.4350   20.2430  -25.9000 C.3   491  GLN491      0.0905
    139  CD       -30.5720   19.4200  -25.3260 C.2   491  GLN491      0.2608
    140  OE1      -30.5580   18.1890  -25.3850 O.2   491  GLN491     -0.2717
    141  NE2      -31.5660   20.0970  -24.7650 N.am  491  GLN491     -0.0878
    142  N        -26.6040   22.4960  -26.8580 N.am  492  ASP492     -0.1960
    143  CA       -26.0010   23.6830  -26.2600 C.3   492  ASP492      0.1840
    144  C        -26.8390   24.2060  -25.0970 C.2   492  ASP492      0.2622
    145  O        -27.9080   24.7830  -25.2980 O.2   492  ASP492     -0.2715
    146  CB       -25.8050   24.7760  -27.3150 C.3   492  ASP492      0.1450
    147  CG       -24.7030   25.7570  -26.9460 C.2   492  ASP492      0.3671
    148  OD1      -24.4900   25.9970  -25.7390 O.co2 492  ASP492     -0.2456
    149  OD2      -24.0470   26.2850  -27.8690 O.co2 492  ASP492     -0.2456
    150  N        -26.3400   24.0020  -23.8820 N.am  493  ALA493     -0.1963
    151  CA       -27.0500   24.4040  -22.6730 C.3   493  ALA493      0.1728
    152  C        -27.1840   25.9170  -22.5680 C.2   493  ALA493      0.2616
    153  O        -28.0720   26.4250  -21.8830 O.2   493  ALA493     -0.2715
    154  CB       -26.3420   23.8600  -21.4460 C.3   493  ALA493      0.0334
    155  N        -26.2960   26.6320  -23.2480 N.am  494  PHE494     -0.1974
    156  CA       -26.2600   28.0850  -23.1530 C.3   494  PHE494      0.1639
    157  C        -26.7280   28.7570  -24.4390 C.2   494  PHE494      0.2290
    158  O        -26.4280   29.9240  -24.6910 O.2   494  PHE494     -0.2864
    159  CB       -24.8600   28.5530  -22.7560 C.3   494  PHE494      0.0560
    160  CG       -24.3650   27.9340  -21.4830 C.ar  494  PHE494     -0.0200
    161  CD1      -24.9870   28.2160  -20.2770 C.ar  494  PHE494     -0.0042
    162  CD2      -23.2900   27.0600  -21.4910 C.ar  494  PHE494     -0.0042
    163  CE1      -24.5440   27.6430  -19.1010 C.ar  494  PHE494     -0.0003
    164  CE2      -22.8390   26.4830  -20.3160 C.ar  494  PHE494     -0.0003
    165  CZ       -23.4670   26.7760  -19.1200 C.ar  494  PHE494     -0.0000
@<TRIPOS>BOND
     1   149   147   ar
     2   133   134    1
     3   146   147    1
     4   146   143    1
     5   134   135    1
     6   134   137    1
     7   147   148   ar
     8   142   143    1
     9   142   135   am
    10   143   144    1
    11   135   136    2
    12   137   138    1
    13   117   116    2
    14   114   115    1
    15   138   139    1
    16   140   139    2
    17   139   141   am
    18   145   144    2
    19   116   115    1
    20   116   126   am
    21   144   150   am
    22   115   118    1
    23   158   157    2
    24   129   128    2
    25   132   126    1
    26   132   131    1
    27   157   156    1
    28   126   127    1
    29   121   123   ar
    30   121   119   ar
    31   118   119    1
    32   123   124   ar
    33   150   151    1
    34   119   120   ar
    35   128   127    1
    36   155   156    1
    37   155   152   am
    38   127   130    1
    39   156   159    1
    40   124   125    1
    41   124   122   ar
    42   131   130    1
    43   120   122   ar
    44   159   160    1
    45   151   152    1
    46   151   154    1
    47   152   153    2
    48   162   160   ar
    49   162   164   ar
    50   160   161   ar
    51    65    63   am
    52   164   165   ar
    53   161   163   ar
    54    19    18    2
    55    63    64    2
    56    63    62    1
    57   165   163   ar
    58    62    61    1
    59    55    54    1
    60    15    14    2
    61    47    46    1
    62    18    17    1
    63    18    22   am
    64    61    58    1
    65    17    20    1
    66    17    16    1
    67    20    21    1
    68    14    16   am
    69    14    13    1
    70    23    22    1
    71    23    24    1
    72    56    54    1
    73    54    53    1
    74    46    48    1
    75    46    43    1
    76    60    59    2
    77    53    50    1
    78    58    59    1
    79    58    57    1
    80    50    49    1
    81    50    51    1
    82    25    24    2
    83    13    12    1
    84    49    44   am
    85    45    44    2
    86    24    26   am
    87    44    43    1
    88     4     3    2
    89    52    51    2
    90    43    42    1
    91    12     3   am
    92    26    27    1
    93     3     2    1
    94    42    37   am
    95     9    11   ar
    96     9     7   ar
    97    11    10   ar
    98    27    28    1
    99    27    30    1
   100     7     6   ar
   101     1     2    1
   102    28    29    2
   103    28    35   am
   104     2     5    1
   105    37    38    2
   106    37    36    1
   107    10     8   ar
   108    31    30    1
   109    31    32    1
   110     6     8   ar
   111     6     5    1
   112    35    36    1
   113    34    33    1
   114    36    39    1
   115    32    33    1
   116    39    41    1
   117    39    40    1
   118    85    83    1
   119    94    92   ar
   120    84    83    1
   121    83    82    2
   122    91    92    1
   123    91    90    1
   124    92    93   ar
   125    82    81    1
   126    90    87    1
   127   102   100   ar
   128    81    80    1
   129    89    88    2
   130    87    88    1
   131    87    86    1
   132   101   100   ar
   133   100    99    1
   134    99    96    1
   135    80    79    1
   136    79    76    1
   137    96    95    1
   138    96    97    1
   139    73    72   ar
   140   113   111    1
   141    72    74   ar
   142    72    71    1
   143    71    70    1
   144    97    98    2
   145    76    75    1
   146    76    77    1
   147    70    67    1
   148    75    68   am
   149    78    77    2
   150   111   112    1
   151   111   110    2
   152   110   109    1
   153    67    68    1
   154    67    66    1
   155    68    69    2
   156   109   108    1
   157   108   107    1
   158   103   104    1
   159   107   104    1
   160   104   105    1
   161   105   106    2
