@<TRIPOS>MOLECULE
tmp/5bncA00.pdb
 118 114 0 0 0
SMALL
GASTEIGER

@<TRIPOS>ATOM
      1  N         -1.6870   43.6800    8.3590 N.3    44  SER44      -0.1202
      2  CA        -2.5730   43.3880    9.5160 C.3    44  SER44       0.2020
      3  C         -1.8140   42.9100   10.7560 C.2    44  SER44       0.2619
      4  O         -0.9960   41.9970   10.6840 O.2    44  SER44      -0.2717
      5  CB        -3.5680   42.2680    9.1550 C.3    44  SER44       0.2103
      6  OG        -4.1950   42.4790    7.8950 O.3    44  SER44      -0.2182
      7  N         -2.1280   43.4690   11.9060 N.am   45  PHE45      -0.1961
      8  CA        -1.6970   42.9270   13.1650 C.3    45  PHE45       0.1771
      9  C         -2.2850   41.5100   13.3090 C.2    45  PHE45       0.2619
     10  O         -3.4830   41.3040   13.0670 O.2    45  PHE45      -0.2715
     11  CB        -2.1960   43.8210   14.2930 C.3    45  PHE45       0.0574
     12  CG        -2.0130   43.2450   15.6790 C.ar   45  PHE45      -0.0200
     13  CD1       -0.7600   43.1430   16.2460 C.ar   45  PHE45      -0.0042
     14  CD2       -3.1060   42.8540   16.4290 C.ar   45  PHE45      -0.0042
     15  CE1       -0.6040   42.6440   17.5390 C.ar   45  PHE45      -0.0003
     16  CE2       -2.9480   42.3700   17.7230 C.ar   45  PHE45      -0.0003
     17  CZ        -1.7010   42.2550   18.2760 C.ar   45  PHE45      -0.0000
     18  N         -1.4690   40.5480   13.7130 N.am   46  VAL46      -0.1963
     19  CA        -1.9330   39.1940   14.0030 C.3    46  VAL46       0.1727
     20  C         -1.2290   38.5780   15.1960 C.2    46  VAL46       0.2616
     21  O         -0.0800   38.9230   15.5050 O.2    46  VAL46      -0.2715
     22  CB        -1.7290   38.2460   12.8160 C.3    46  VAL46       0.0290
     23  CG1       -2.5200   38.7170   11.6190 C.3    46  VAL46       0.0023
     24  CG2       -0.2520   38.1440   12.4240 C.3    46  VAL46       0.0023
     25  N         -1.9040   37.6170   15.8170 N.am   47  THR47      -0.1951
     26  CA        -1.3020   36.7630   16.8230 C.3    47  THR47       0.1897
     27  C         -0.9920   35.3780   16.2140 C.2    47  THR47       0.2313
     28  O         -1.6090   34.9570   15.2340 O.2    47  THR47      -0.2863
     29  CB        -2.2650   36.6080   17.9920 C.3    47  THR47       0.1794
     30  OG1       -3.5020   36.1160   17.5150 O.3    47  THR47      -0.2208
     31  CG2       -2.5160   37.9200   18.6560 C.3    47  THR47       0.0378
     32  N         -1.9540   30.9390   12.3560 N.3    57  LEU57      -0.1231
     33  CA        -2.8770   32.0420   12.6150 C.3    57  LEU57       0.1693
     34  C         -4.2660   31.4850   12.8520 C.2    57  LEU57       0.2592
     35  O         -4.5900   30.4200   12.3560 O.2    57  LEU57      -0.2718
     36  CB        -2.9120   32.9650   11.4110 C.3    57  LEU57       0.0284
     37  CG        -1.5580   33.2930   10.8200 C.3    57  LEU57       0.0019
     38  CD1       -1.7480   34.1710    9.6100 C.3    57  LEU57       0.0001
     39  CD2       -0.6930   34.0050   11.8190 C.3    57  LEU57       0.0001
     40  N         -5.0720   32.2030   13.6180 N.am   58  CYS58      -0.1956
     41  CA        -6.4960   31.9210   13.7370 C.3    58  CYS58       0.1843
     42  C         -7.2180   33.1850   13.2850 C.2    58  CYS58       0.2625
     43  O         -7.1940   34.1970   13.9630 O.2    58  CYS58      -0.2714
     44  CB        -6.8390   31.5950   15.1800 C.3    58  CYS58       0.0997
     45  SG        -8.5960   31.3530   15.5050 S.3    58  CYS58      -0.0797
     46  N         -7.8210   33.1530   12.1170 N.am   59  VAL59      -0.1963
     47  CA        -8.3300   34.3730   11.4910 C.3    59  VAL59       0.1727
     48  C         -9.8330   34.2930   11.2690 C.2    59  VAL59       0.2616
     49  O        -10.3270   33.2750   10.7580 O.2    59  VAL59      -0.2715
     50  CB        -7.7260   34.5240   10.0990 C.3    59  VAL59       0.0290
     51  CG1       -8.1400   35.8450    9.4720 C.3    59  VAL59       0.0023
     52  CG2       -6.2100   34.3740   10.1710 C.3    59  VAL59       0.0023
     53  N        -10.5500   35.3540   11.6240 N.am   60  SER60      -0.1950
     54  CA       -11.9480   35.4720   11.2500 C.3    60  SER60       0.1924
     55  C        -12.1400   35.4550    9.7340 C.2    60  SER60       0.2314
     56  O        -11.5580   36.2610    9.0480 O.2    60  SER60      -0.2863
     57  CB       -12.5590   36.7580   11.8200 C.3    60  SER60       0.2116
     58  OG       -13.8660   36.9640   11.3110 O.3    60  SER60      -0.2180
     59  N        -12.7530   38.8710    8.5750 N.3    63  ALA63      -0.1245
     60  CA       -11.7020   39.8760    8.6720 C.3    63  ALA63       0.1562
     61  C        -11.1320   40.1790    7.2760 C.2    63  ALA63       0.2260
     62  O        -11.1230   39.3010    6.4200 O.2    63  ALA63      -0.2867
     63  CB       -10.6160   39.3720    9.6020 C.3    63  ALA63       0.0290
     64  N         -8.0620   40.2870    6.2930 N.3    65  HIS65      -0.1241
     65  CA        -6.9650   39.3560    5.9360 C.3    65  HIS65       0.1621
     66  C         -7.4250   37.9070    5.7600 C.2    65  HIS65       0.2264
     67  O         -6.7960   37.1250    5.0570 O.2    65  HIS65      -0.2867
     68  CB        -5.7580   39.4860    6.8830 C.3    65  HIS65       0.0745
     69  CG        -6.0610   39.1720    8.3100 C.ar   65  HIS65       0.0817
     70  ND1       -6.8140   39.9890    9.1120 N.ar   65  HIS65      -0.2268
     71  CD2       -5.6800   38.1370    9.0920 C.ar   65  HIS65       0.1154
     72  CE1       -6.9230   39.4520   10.3140 C.ar   65  HIS65       0.1986
     73  NE2       -6.2250   38.3410   10.3300 N.ar   65  HIS65      -0.2212
     74  N         -1.4300   27.0680   18.5020 N.3   115  HIS115     -0.1241
     75  CA        -1.9510   28.4230   18.5410 C.3   115  HIS115      0.1621
     76  C         -2.5440   28.7170   19.8990 C.2   115  HIS115      0.2264
     77  O         -2.2490   29.7440   20.5120 O.2   115  HIS115     -0.2867
     78  CB        -3.0130   28.6270   17.4880 C.3   115  HIS115      0.0745
     79  CG        -3.4770   30.0370   17.3910 C.ar  115  HIS115      0.0817
     80  ND1       -2.9170   30.9420   16.5190 N.ar  115  HIS115     -0.2268
     81  CD2       -4.3860   30.7200   18.1170 C.ar  115  HIS115      0.1154
     82  CE1       -3.5080   32.1090   16.6720 C.ar  115  HIS115      0.1986
     83  NE2       -4.3890   32.0020   17.6510 N.ar  115  HIS115     -0.2212
     84  N         -1.5040   31.7000   22.5700 N.3   119  VAL119     -0.1245
     85  CA        -2.4440   32.8200   22.6570 C.3   119  VAL119      0.1561
     86  C         -3.6700   32.4060   23.4750 C.2   119  VAL119      0.2260
     87  O         -4.6260   31.8130   22.9720 O.2   119  VAL119     -0.2867
     88  CB        -2.9030   33.2800   21.2530 C.3   119  VAL119      0.0252
     89  CG1       -3.6230   34.6040   21.3190 C.3   119  VAL119      0.0019
     90  CG2       -1.7130   33.3610   20.2940 C.3   119  VAL119      0.0019
     91  N         -7.3580   32.9820   22.3970 N.3   122  ALA122     -0.1245
     92  CA        -7.8580   32.2950   21.2060 C.3   122  ALA122      0.1562
     93  C         -8.8000   31.1290   21.5760 C.2   122  ALA122      0.2260
     94  O         -9.5860   30.6580   20.7470 O.2   122  ALA122     -0.2867
     95  CB        -6.7080   31.7960   20.3580 C.3   122  ALA122      0.0290
     96  N        -12.3180   31.6960   20.3440 N.3   125  TYR125     -0.1241
     97  CA       -12.5480   31.8110   18.8960 C.3   125  TYR125      0.1605
     98  C        -12.2900   30.5440   18.0280 C.2   125  TYR125      0.2264
     99  O        -12.8930   30.3510   16.9840 O.2   125  TYR125     -0.2867
    100  CB       -11.6310   32.9220   18.3350 C.3   125  TYR125      0.0534
    101  CG       -11.8110   34.2640   18.9570 C.ar  125  TYR125     -0.0201
    102  CD1      -11.2020   34.5850   20.1540 C.ar  125  TYR125     -0.0009
    103  CD2      -12.6210   35.2270   18.3440 C.ar  125  TYR125     -0.0009
    104  CE1      -11.3920   35.8290   20.7290 C.ar  125  TYR125      0.0417
    105  CE2      -12.8230   36.4650   18.9050 C.ar  125  TYR125      0.0417
    106  CZ       -12.2080   36.7640   20.1020 C.ar  125  TYR125      0.1957
    107  OH       -12.4030   38.0130   20.6600 O.3   125  TYR125     -0.2866
    108  N        -14.0950   31.1440   12.1470 N.3   131  PHE131     -0.1241
    109  CA       -12.6520   31.3880   12.2860 C.3   131  PHE131      0.1605
    110  C        -11.9060   30.2210   11.7060 C.2   131  PHE131      0.2264
    111  O        -12.2610   29.0840   11.9350 O.2   131  PHE131     -0.2867
    112  CB       -12.2630   31.5840   13.7730 C.3   131  PHE131      0.0534
    113  CG       -12.6760   32.9270   14.3210 C.ar  131  PHE131     -0.0203
    114  CD1      -14.0250   33.2170   14.5460 C.ar  131  PHE131     -0.0042
    115  CD2      -11.7380   33.9060   14.5610 C.ar  131  PHE131     -0.0042
    116  CE1      -14.4270   34.4600   14.9910 C.ar  131  PHE131     -0.0003
    117  CE2      -12.1170   35.1570   15.0100 C.ar  131  PHE131     -0.0003
    118  CZ       -13.4630   35.4350   15.2270 C.ar  131  PHE131     -0.0000
@<TRIPOS>BOND
     1    67    66    2
     2    66    65    1
     3    65    64    1
     4    65    68    1
     5    62    61    2
     6    68    69    1
     7    61    60    1
     8     6     5    1
     9    69    71   ar
    10    69    70   ar
    11     1     2    1
    12    59    60    1
    13    60    63    1
    14    56    55    2
    15    71    73   ar
    16    70    72   ar
    17     5     2    1
    18    51    50    1
    19     2     3    1
    20    38    37    1
    21    55    54    1
    22    50    52    1
    23    50    47    1
    24    72    73   ar
    25     4     3    2
    26     3     7   am
    27    49    48    2
    28    37    36    1
    29    37    39    1
    30    54    53    1
    31    54    57    1
    32    48    47    1
    33    48    53   am
    34    58    57    1
    35    36    33    1
    36    47    46    1
    37    23    22    1
    38   110   111    2
    39   110   109    1
    40     7     8    1
    41    46    42   am
    42   108   109    1
    43   109   112    1
    44    35    34    2
    45    32    33    1
    46    24    22    1
    47    33    34    1
    48    22    19    1
    49    34    40   am
    50    10     9    2
    51     8     9    1
    52     8    11    1
    53    42    41    1
    54    42    43    2
    55     9    18   am
    56    40    41    1
    57    18    19    1
    58    41    44    1
    59   112   113    1
    60    19    20    1
    61    11    12    1
    62   113   114   ar
    63   113   115   ar
    64   114   116   ar
    65   115   117   ar
    66   116   118   ar
    67   117   118   ar
    68    44    45    1
    69    20    21    2
    70    20    25   am
    71    28    27    2
    72    12    13   ar
    73    12    14   ar
    74    25    26    1
    75    27    26    1
    76    13    15   ar
    77    14    16   ar
    78    80    82   ar
    79    80    79   ar
    80    82    83   ar
    81    26    29    1
    82    99    98    2
    83    79    78    1
    84    79    81   ar
    85    78    75    1
    86    30    29    1
    87    15    17   ar
    88    83    81   ar
    89    16    17   ar
    90    29    31    1
    91    98    97    1
    92   100    97    1
    93   100   101    1
    94   103   105   ar
    95   103   101   ar
    96    74    75    1
    97    75    76    1
    98    97    96    1
    99   105   106   ar
   100   101   102   ar
   101    76    77    2
   102   106   107    1
   103   106   104   ar
   104   102   104   ar
   105    90    88    1
   106    95    92    1
   107    94    93    2
   108    92    93    1
   109    92    91    1
   110    88    89    1
   111    88    85    1
   112    84    85    1
   113    85    86    1
   114    87    86    2
