@<TRIPOS>MOLECULE
tmp/5bneB00.pdb
 147 143 0 0 0
SMALL
GASTEIGER

@<TRIPOS>ATOM
      1  N        -18.8310   -7.0690   33.6450 N.3    62  MET62      -0.1245
      2  CA       -20.0480   -6.3830   33.2190 C.3    62  MET62       0.1570
      3  C        -20.8730   -5.9140   34.4110 C.2    62  MET62       0.2261
      4  O        -21.3600   -4.7830   34.4410 O.2    62  MET62      -0.2867
      5  CB       -20.8910   -7.3010   32.3390 C.3    62  MET62       0.0387
      6  CG       -22.2390   -6.7190   31.9630 C.3    62  MET62       0.0595
      7  SD       -22.9120   -7.5500   30.5180 S.3    62  MET62      -0.1393
      8  CE       -24.5850   -6.9130   30.4720 C.3    62  MET62       0.0692
      9  N        -32.3840  -18.0240   30.0080 N.3    84  THR84      -0.1218
     10  CA       -31.5190  -17.4160   29.0040 C.3    84  THR84       0.1862
     11  C        -32.2580  -17.1560   27.6930 C.2    84  THR84       0.2287
     12  O        -31.8690  -16.2810   26.9200 O.2    84  THR84      -0.2866
     13  CB       -30.3020  -18.3010   28.7100 C.3    84  THR84       0.1770
     14  OG1      -30.7480  -19.6070   28.3250 O.3    84  THR84      -0.2211
     15  CG2      -29.4110  -18.4070   29.9360 C.3    84  THR84       0.0375
     16  N        -34.4140   -9.0210   36.2440 N.3   105  HIS105     -0.1226
     17  CA       -33.5270   -8.2720   35.3660 C.3   105  HIS105      0.1752
     18  C        -33.8560   -8.6570   33.9320 C.2   105  HIS105      0.2597
     19  O        -33.6450   -9.8000   33.5330 O.2   105  HIS105     -0.2718
     20  CB       -32.0640   -8.5770   35.7060 C.3   105  HIS105      0.0759
     21  CG       -31.0700   -7.9660   34.7650 C.ar  105  HIS105      0.0818
     22  ND1      -29.9280   -8.6230   34.3700 N.ar  105  HIS105     -0.2268
     23  CD2      -31.0370   -6.7520   34.1680 C.ar  105  HIS105      0.1154
     24  CE1      -29.2330   -7.8430   33.5560 C.ar  105  HIS105      0.1986
     25  NE2      -29.8860   -6.7040   33.4180 N.ar  105  HIS105     -0.2212
     26  N        -34.3940   -7.7150   33.1610 N.am  106  GLY106     -0.1942
     27  CA       -34.8490   -8.0280   31.8200 C.3   106  GLY106      0.2014
     28  C        -34.8980   -6.8560   30.8600 C.2   106  GLY106      0.2638
     29  O        -34.5410   -5.7300   31.1990 O.2   106  GLY106     -0.2714
     30  N        -35.3640   -7.1440   29.6500 N.am  107  ASN107     -0.1972
     31  CA       -35.3820   -6.1840   28.5590 C.3   107  ASN107      0.1688
     32  C        -36.6220   -6.3850   27.6880 C.2   107  ASN107      0.2292
     33  O        -37.3410   -7.3690   27.8460 O.2   107  ASN107     -0.2864
     34  CB       -34.1080   -6.3370   27.7290 C.3   107  ASN107      0.1181
     35  CG       -33.8800   -5.1820   26.7850 C.2   107  ASN107      0.2629
     36  OD1      -34.6250   -4.2020   26.7840 O.2   107  ASN107     -0.2716
     37  ND2      -32.8340   -5.2860   25.9790 N.am  107  ASN107     -0.0877
     38  N        -32.8510   -3.6010   31.8710 N.3   142  ALA142     -0.1231
     39  CA       -31.4430   -3.8090   31.5270 C.3   142  ALA142      0.1679
     40  C        -30.7880   -2.5840   30.8760 C.2   142  ALA142      0.2434
     41  O        -29.6970   -2.1870   31.2850 O.2   142  ALA142     -0.2733
     42  CB       -31.2940   -5.0360   30.6190 C.3   142  ALA142      0.0304
     43  N        -31.4430   -1.9770   29.8690 N.am  143  PRO143     -0.2729
     44  CA       -30.8360   -0.7890   29.2530 C.3   143  PRO143      0.1401
     45  C        -30.5430    0.3190   30.2700 C.2   143  PRO143      0.2269
     46  O        -29.5430    1.0290   30.1390 O.2   143  PRO143     -0.2865
     47  CB       -31.8960   -0.3360   28.2420 C.3   143  PRO143      0.0296
     48  CG       -32.6950   -1.5420   27.9560 C.3   143  PRO143      0.0237
     49  CD       -32.7330   -2.3130   29.2410 C.3   143  PRO143      0.0939
     50  N        -27.4630   -1.3450   32.4150 N.3   146  HIS146     -0.1227
     51  CA       -26.2790   -1.7610   31.6550 C.3   146  HIS146      0.1737
     52  C        -26.0610   -0.9350   30.3860 C.2   146  HIS146      0.2438
     53  O        -25.9260   -1.4980   29.3000 O.2   146  HIS146     -0.2733
     54  CB       -26.3910   -3.2380   31.2650 C.3   146  HIS146      0.0758
     55  CG       -26.4010   -4.1750   32.4300 C.ar  146  HIS146      0.0818
     56  ND1      -25.2580   -4.5160   33.1210 N.ar  146  HIS146     -0.2268
     57  CD2      -27.4140   -4.8570   33.0170 C.ar  146  HIS146      0.1154
     58  CE1      -25.5670   -5.3640   34.0860 C.ar  146  HIS146      0.1986
     59  NE2      -26.8690   -5.5860   34.0460 N.ar  146  HIS146     -0.2212
     60  N        -26.0230    0.3990   30.5130 N.am  147  PRO147     -0.2729
     61  CA       -25.8930    1.2410   29.3170 C.3   147  PRO147      0.1401
     62  C        -24.5950    0.9960   28.5460 C.2   147  PRO147      0.2269
     63  O        -24.5680    1.1430   27.3280 O.2   147  PRO147     -0.2865
     64  CB       -25.9330    2.6660   29.8840 C.3   147  PRO147      0.0296
     65  CG       -25.5470    2.5250   31.3230 C.3   147  PRO147      0.0237
     66  CD       -26.0880    1.1990   31.7480 C.3   147  PRO147      0.0939
     67  N        -23.3200   -1.6590   27.8420 N.3   149  TYR149     -0.1227
     68  CA       -23.4710   -2.8880   27.0670 C.3   149  TYR149      0.1736
     69  C        -24.1530   -2.6430   25.7170 C.2   149  TYR149      0.2595
     70  O        -24.3150   -3.5700   24.9240 O.2   149  TYR149     -0.2718
     71  CB       -24.2750   -3.9080   27.8860 C.3   149  TYR149      0.0548
     72  CG       -24.3490   -5.3060   27.3040 C.ar  149  TYR149     -0.0200
     73  CD1      -23.2850   -6.1900   27.4260 C.ar  149  TYR149     -0.0009
     74  CD2      -25.4930   -5.7480   26.6530 C.ar  149  TYR149     -0.0009
     75  CE1      -23.3570   -7.4700   26.9050 C.ar  149  TYR149      0.0417
     76  CE2      -25.5770   -7.0240   26.1330 C.ar  149  TYR149      0.0417
     77  CZ       -24.5060   -7.8800   26.2610 C.ar  149  TYR149      0.1957
     78  OH       -24.5930   -9.1460   25.7400 O.3   149  TYR149     -0.2866
     79  N        -24.5300   -1.3960   25.4450 N.am  150  ARG150     -0.1980
     80  CA       -25.4240   -1.1020   24.3170 C.3   150  ARG150      0.1597
     81  C        -24.8350   -1.4570   22.9550 C.2   150  ARG150      0.2287
     82  O        -25.5730   -1.8030   22.0340 O.2   150  ARG150     -0.2864
     83  CB       -25.8250    0.3760   24.3230 C.3   150  ARG150      0.0334
     84  CG       -24.6780    1.3580   24.1170 C.3   150  ARG150      0.0492
     85  CD       -25.1820    2.7870   24.2570 C.3   150  ARG150      0.2205
     86  NE       -24.1180    3.7780   24.1340 N.pl3 150  ARG150     -0.0865
     87  CZ       -23.3750    4.2200   25.1430 C.cat 150  ARG150      0.5346
     88  NH1      -23.5600    3.7610   26.3750 N.pl3 150  ARG150      0.1354
     89  NH2      -22.4360    5.1280   24.9140 N.pl3 150  ARG150      0.1354
     90  N        -25.1400   -5.1340   22.6940 N.3   153  ALA153     -0.1245
     91  CA       -26.5510   -5.4400   22.4730 C.3   153  ALA153      0.1562
     92  C        -26.8990   -5.2610   20.9960 C.2   153  ALA153      0.2260
     93  O        -27.6210   -6.0730   20.4150 O.2   153  ALA153     -0.2867
     94  CB       -27.4400   -4.5580   23.3510 C.3   153  ALA153      0.0290
     95  N        -25.3460   -8.1510   18.9930 N.3   156  ARG156     -0.1231
     96  CA       -26.1350   -9.3670   19.1780 C.3   156  ARG156      0.1694
     97  C        -27.3720   -9.3820   18.2800 C.2   156  ARG156      0.2591
     98  O        -27.7730  -10.4320   17.7780 O.2   156  ARG156     -0.2718
     99  CB       -26.5570   -9.5130   20.6420 C.3   156  ARG156      0.0321
    100  CG       -27.1830  -10.8620   20.9970 C.3   156  ARG156      0.0489
    101  CD       -27.0790  -11.1620   22.4720 C.3   156  ARG156      0.2205
    102  NE       -27.6290  -10.0810   23.2960 N.pl3 156  ARG156     -0.0865
    103  CZ       -28.9260   -9.8670   23.4980 C.cat 156  ARG156      0.5346
    104  NH1      -29.8390  -10.6510   22.9280 N.pl3 156  ARG156      0.1354
    105  NH2      -29.3100   -8.9140   24.3410 N.pl3 156  ARG156      0.1354
    106  N        -27.9740   -8.2160   18.0780 N.am  157  ARG157     -0.1980
    107  CA       -29.1310   -8.1090   17.1980 C.3   157  ARG157      0.1597
    108  C        -28.7240   -8.3010   15.7400 C.2   157  ARG157      0.2287
    109  O        -29.4040   -8.9930   14.9810 O.2   157  ARG157     -0.2864
    110  CB       -29.8210   -6.7540   17.3710 C.3   157  ARG157      0.0334
    111  CG       -30.5100   -6.5630   18.7110 C.3   157  ARG157      0.0492
    112  CD       -31.4850   -5.3960   18.6710 C.3   157  ARG157      0.2205
    113  NE       -30.8330   -4.1320   18.3390 N.pl3 157  ARG157     -0.0865
    114  CZ       -30.2930   -3.3000   19.2260 C.cat 157  ARG157      0.5346
    115  NH1      -30.3120   -3.5860   20.5230 N.pl3 157  ARG157      0.1354
    116  NH2      -29.7280   -2.1730   18.8140 N.pl3 157  ARG157      0.1354
    117  N        -22.9530  -14.6090   24.9220 N.3   165  PHE165     -0.1227
    118  CA       -23.4860  -13.4340   25.6060 C.3   165  PHE165      0.1736
    119  C        -24.9230  -13.6480   26.0830 C.2   165  PHE165      0.2595
    120  O        -25.3970  -12.9290   26.9640 O.2   165  PHE165     -0.2718
    121  CB       -23.4260  -12.2010   24.6950 C.3   165  PHE165      0.0547
    122  CG       -22.0440  -11.6270   24.5200 C.ar  165  PHE165     -0.0202
    123  CD1      -21.0380  -11.8680   25.4450 C.ar  165  PHE165     -0.0042
    124  CD2      -21.7540  -10.8370   23.4250 C.ar  165  PHE165     -0.0042
    125  CE1      -19.7730  -11.3360   25.2730 C.ar  165  PHE165     -0.0003
    126  CE2      -20.4930  -10.3030   23.2480 C.ar  165  PHE165     -0.0003
    127  CZ       -19.5020  -10.5510   24.1730 C.ar  165  PHE165     -0.0000
    128  N        -25.6080  -14.6360   25.5140 N.am  166  ASN166     -0.1974
    129  CA       -26.9700  -14.9670   25.9340 C.3   166  ASN166      0.1688
    130  C        -27.0210  -15.5770   27.3370 C.2   166  ASN166      0.2292
    131  O        -28.1020  -15.8270   27.8710 O.2   166  ASN166     -0.2864
    132  CB       -27.6190  -15.9380   24.9460 C.3   166  ASN166      0.1181
    133  CG       -27.8710  -15.3170   23.5870 C.2   166  ASN166      0.2629
    134  OD1      -27.0490  -14.5630   23.0670 O.2   166  ASN166     -0.2716
    135  ND2      -29.0190  -15.6350   23.0020 N.am  166  ASN166     -0.0877
    136  N        -25.4370  -14.0500   29.8770 N.3   168  LEU168     -0.1231
    137  CA       -25.0640  -12.9580   30.7700 C.3   168  LEU168      0.1693
    138  C        -26.2400  -12.3670   31.5420 C.2   168  LEU168      0.2592
    139  O        -26.0560  -11.8470   32.6440 O.2   168  LEU168     -0.2718
    140  CB       -24.3710  -11.8490   29.9740 C.3   168  LEU168      0.0284
    141  CG       -23.0350  -12.2270   29.3290 C.3   168  LEU168      0.0019
    142  CD1      -22.4570  -11.0440   28.5650 C.3   168  LEU168      0.0001
    143  CD2      -22.0330  -12.7280   30.3690 C.3   168  LEU168      0.0001
    144  N        -27.4400  -12.4480   30.9730 N.am  169  GLY169     -0.1957
    145  CA       -28.6250  -11.8960   31.6080 C.3   169  GLY169      0.1869
    146  C        -28.7860  -12.3530   33.0510 C.2   169  GLY169      0.2309
    147  O        -28.7820  -11.5330   33.9690 O.2   169  GLY169     -0.2863
@<TRIPOS>BOND
     1   109   108    2
     2   108   107    1
     3   107   110    1
     4   107   106    1
     5   110   111    1
     6    98    97    2
     7   106    97   am
     8    97    96    1
     9   113   112    1
    10   113   114    2
    11   112   111    1
    12   116   114    1
    13    95    96    1
    14    96    99    1
    15   114   115    1
    16    93    92    2
    17    99   100    1
    18    92    91    1
    19   100   101    1
    20    82    81    2
    21   101   102    1
    22    91    90    1
    23    91    94    1
    24   104   103    1
    25    81    80    1
    26   135   133   am
    27   134   133    2
    28   126   124   ar
    29   126   127   ar
    30   102   103    2
    31   124   122   ar
    32   103   105    1
    33   133   132    1
    34    84    85    1
    35    84    83    1
    36    86    85    1
    37    86    87    2
    38   127   125   ar
    39    80    83    1
    40    80    79    1
    41   122   121    1
    42   122   123   ar
    43   121   118    1
    44    89    87    1
    45   117   118    1
    46    70    69    2
    47   132   129    1
    48    87    88    1
    49   125   123   ar
    50    79    69   am
    51   128   129    1
    52   128   119   am
    53   118   119    1
    54    69    68    1
    55    78    77    1
    56   129   130    1
    57    37    35   am
    58   119   120    2
    59    76    77   ar
    60    76    74   ar
    61    77    75   ar
    62    74    72   ar
    63    36    35    2
    64    35    34    1
    65    75    73   ar
    66    12    11    2
    67    68    67    1
    68    68    71    1
    69    72    73   ar
    70    72    71    1
    71    63    62    2
    72   130   131    2
    73    32    33    2
    74    32    31    1
    75    11    10    1
    76    34    31    1
    77    48    47    1
    78    48    49    1
    79    47    44    1
    80    14    13    1
    81    62    61    1
    82    31    30    1
    83   142   141    1
    84    13    10    1
    85    13    15    1
    86    10     9    1
    87    49    43    1
    88    44    43    1
    89    44    45    1
    90    53    52    2
    91    61    64    1
    92    61    60    1
    93   141   140    1
    94   141   143    1
    95    30    28   am
    96    43    40   am
    97   136   137    1
    98    64    65    1
    99   140   137    1
   100    46    45    2
   101    52    60   am
   102    52    51    1
   103     8     7    1
   104    60    66    1
   105     7     6    1
   106    42    39    1
   107   137   138    1
   108    28    29    2
   109    28    27    1
   110    40    41    2
   111    40    39    1
   112   144   138   am
   113   144   145    1
   114    54    51    1
   115    54    55    1
   116    65    66    1
   117    39    38    1
   118   138   139    2
   119   145   146    1
   120    51    50    1
   121    27    26    1
   122     6     5    1
   123     5     2    1
   124    55    57   ar
   125    55    56   ar
   126    57    59   ar
   127   146   147    2
   128    56    58   ar
   129    26    18   am
   130     2     1    1
   131     2     3    1
   132    25    24   ar
   133    25    23   ar
   134    19    18    2
   135    24    22   ar
   136    18    17    1
   137    59    58   ar
   138    23    21   ar
   139    22    21   ar
   140     3     4    2
   141    21    20    1
   142    17    20    1
   143    17    16    1
