@<TRIPOS>MOLECULE
tmp/5bnhC00.pdb
 163 161 0 0 0
SMALL
GASTEIGER

@<TRIPOS>ATOM
      1  N          4.4340  -10.6420    1.3060 N.3    16  VAL16      -0.1231
      2  CA         4.3060   -9.6500    2.3680 C.3    16  VAL16       0.1692
      3  C          2.8380   -9.5050    2.7370 C.2    16  VAL16       0.2592
      4  O          1.9260  -10.0560    2.0870 O.2    16  VAL16      -0.2718
      5  CB         4.9020   -8.2710    2.0130 C.3    16  VAL16       0.0266
      6  CG1        6.3260   -8.4650    1.5540 C.3    16  VAL16       0.0020
      7  CG2        4.1130   -7.6450    0.8930 C.3    16  VAL16       0.0020
      8  N          2.5910   -8.8050    3.8360 N.am   17  GLY17      -0.1957
      9  CA         1.2020   -8.5530    4.2310 C.3    17  GLY17       0.1869
     10  C          0.5410   -9.7380    4.9130 C.2    17  GLY17       0.2309
     11  O         -0.6850   -9.7890    5.0190 O.2    17  GLY17      -0.2863
     12  N          0.0910  -10.5240    7.9050 N.3    19  ARG19      -0.1231
     13  CA        -0.6850  -10.3400    9.1430 C.3    19  ARG19       0.1694
     14  C         -2.1570   -9.9850    8.8160 C.2    19  ARG19       0.2592
     15  O         -3.0480  -10.0780    9.6730 O.2    19  ARG19      -0.2718
     16  CB        -0.0150   -9.2980    9.9550 C.3    19  ARG19       0.0321
     17  CG        -0.2330   -7.9170    9.4270 C.3    19  ARG19       0.0489
     18  CD         0.7390   -6.9000    9.9730 C.3    19  ARG19       0.2205
     19  NE         0.8610   -6.9060   11.3990 N.pl3  19  ARG19      -0.0865
     20  CZ         1.8140   -6.2190   12.0830 C.cat  19  ARG19       0.5346
     21  NH1        2.6900   -5.4370   11.4730 N.pl3  19  ARG19       0.1354
     22  NH2        1.8100   -6.2860   13.3830 N.pl3  19  ARG19       0.1354
     23  N         -2.4130   -9.6080    7.5680 N.am   20  TYR20      -0.1962
     24  CA        -3.7020   -9.1080    7.1710 C.3    20  TYR20       0.1771
     25  C         -4.6240  -10.2070    6.6790 C.2    20  TYR20       0.2619
     26  O         -5.8100   -9.9270    6.5570 O.2    20  TYR20      -0.2715
     27  CB        -3.5930   -8.0070    6.1100 C.3    20  TYR20       0.0574
     28  CG        -2.8170   -6.8150    6.6500 C.ar   20  TYR20      -0.0198
     29  CD1       -3.3410   -6.0250    7.6540 C.ar   20  TYR20      -0.0009
     30  CD2       -1.5160   -6.6210    6.2650 C.ar   20  TYR20      -0.0009
     31  CE1       -2.6300   -4.9940    8.1880 C.ar   20  TYR20       0.0417
     32  CE2       -0.7580   -5.5890    6.7760 C.ar   20  TYR20       0.0417
     33  CZ        -1.3110   -4.7850    7.7510 C.ar   20  TYR20       0.1957
     34  OH        -0.5700   -3.7310    8.2840 O.3    20  TYR20      -0.2866
     35  N         -4.1070  -11.4210    6.4160 N.am   21  TYR21      -0.1974
     36  CA        -4.8590  -12.4580    5.6760 C.3    21  TYR21       0.1639
     37  C         -4.9250  -13.8040    6.3940 C.2    21  TYR21       0.2290
     38  O         -4.0820  -14.0490    7.2410 O.2    21  TYR21      -0.2864
     39  CB        -4.2570  -12.6140    4.2700 C.3    21  TYR21       0.0560
     40  CG        -4.4180  -11.3650    3.4800 C.ar   21  TYR21      -0.0198
     41  CD1       -5.6630  -10.9970    2.9220 C.ar   21  TYR21      -0.0009
     42  CD2       -3.3380  -10.4730    3.3300 C.ar   21  TYR21      -0.0009
     43  CE1       -5.7810   -9.8130    2.2400 C.ar   21  TYR21       0.0417
     44  CE2       -3.4830   -9.2970    2.6220 C.ar   21  TYR21       0.0417
     45  CZ        -4.7150   -8.9680    2.1170 C.ar   21  TYR21       0.1957
     46  OH        -4.7640   -7.7650    1.4910 O.3    21  TYR21      -0.2866
     47  N         -4.4990   -8.5680   -9.2700 N.3    36  ASP36      -0.1239
     48  CA        -5.5960   -7.8730   -8.5400 C.3    36  ASP36       0.1674
     49  C         -5.6610   -6.4720   -9.1440 C.2    36  ASP36       0.2266
     50  O         -5.3120   -5.4980   -8.4890 O.2    36  ASP36      -0.2867
     51  CB        -5.0900   -7.9000   -7.1080 C.3    36  ASP36       0.1410
     52  CG        -6.0890   -7.4910   -6.0430 C.2    36  ASP36       0.3668
     53  OD1       -7.2860   -7.5520   -6.3490 O.co2  36  ASP36      -0.2456
     54  OD2       -5.6070   -7.2210   -4.8500 O.co2  36  ASP36      -0.2456
     55  N         -7.1920   -3.4110   -7.3390 N.3    39  ASN39      -0.1226
     56  CA        -6.7220   -3.0640   -6.0150 C.3    39  ASN39       0.1770
     57  C         -6.5110   -1.5610   -5.9700 C.2    39  ASN39       0.2439
     58  O         -5.7260   -1.0230   -6.7260 O.2    39  ASN39      -0.2733
     59  CB        -5.3780   -3.7560   -5.7460 C.3    39  ASN39       0.1168
     60  CG        -4.8970   -3.5480   -4.3240 C.2    39  ASN39       0.2627
     61  OD1       -4.6720   -2.4200   -3.8830 O.2    39  ASN39      -0.2716
     62  ND2       -4.7340   -4.6440   -3.5820 N.am   39  ASN39      -0.0877
     63  N         -7.2090   -0.8410   -5.0780 N.am   40  PRO40      -0.2718
     64  CA        -7.0580    0.5970   -5.2040 C.3    40  PRO40       0.1535
     65  C         -5.7360    1.1480   -4.7110 C.2    40  PRO40       0.2599
     66  O         -5.4300    2.3190   -4.9410 O.2    40  PRO40      -0.2715
     67  CB        -8.2110    1.1580   -4.3690 C.3    40  PRO40       0.0310
     68  CG        -8.7110    0.0550   -3.5870 C.3    40  PRO40       0.0237
     69  CD        -8.1480   -1.2380   -4.0630 C.3    40  PRO40       0.0939
     70  N         -4.9700    0.3630   -3.9830 N.am   41  TYR41      -0.1960
     71  CA        -3.6580    0.8490   -3.5390 C.3    41  TYR41       0.1771
     72  C         -2.5850    0.6500   -4.5700 C.2    41  TYR41       0.2619
     73  O         -1.5280    1.2220   -4.4230 O.2    41  TYR41      -0.2715
     74  CB        -3.1870    0.0870   -2.2510 C.3    41  TYR41       0.0574
     75  CG        -4.0580    0.3450   -1.0890 C.ar   41  TYR41      -0.0198
     76  CD1       -3.8180    1.4520   -0.2880 C.ar   41  TYR41      -0.0009
     77  CD2       -5.1540   -0.4150   -0.8530 C.ar   41  TYR41      -0.0009
     78  CE1       -4.6200    1.7260    0.8070 C.ar   41  TYR41       0.0417
     79  CE2       -6.0200   -0.1280    0.2300 C.ar   41  TYR41       0.0417
     80  CZ        -5.7350    0.9450    1.0460 C.ar   41  TYR41       0.1957
     81  OH        -6.5500    1.2730    2.1250 O.3    41  TYR41      -0.2866
     82  N         -2.7990   -0.2040   -5.5880 N.am   42  ASP42      -0.1971
     83  CA        -1.7440   -0.5580   -6.5420 C.3    42  ASP42       0.1709
     84  C         -2.3460   -1.3240   -7.6930 C.2    42  ASP42       0.2293
     85  O         -2.7450   -2.4970   -7.5410 O.2    42  ASP42      -0.2864
     86  CB        -0.6840   -1.4390   -5.8700 C.3    42  ASP42       0.1436
     87  CG         0.4920   -1.7120   -6.7510 C.2    42  ASP42       0.3671
     88  OD1        0.4930   -1.2100   -7.9120 O.co2  42  ASP42      -0.2456
     89  OD2        1.3890   -2.4800   -6.3160 O.co2  42  ASP42      -0.2456
     90  N         -0.9500   -4.7540   -8.3970 N.3    45  ALA45      -0.1231
     91  CA        -0.9590   -5.7360   -7.2980 C.3    45  ALA45       0.1694
     92  C         -1.0750   -7.1740   -7.8050 C.2    45  ALA45       0.2591
     93  O         -1.8070   -7.4800   -8.7550 O.2    45  ALA45      -0.2718
     94  CB        -2.1190   -5.4680   -6.3460 C.3    45  ALA45       0.0304
     95  N         -0.3480   -8.0480   -7.1100 N.am   46  ILE46      -0.1980
     96  CA        -0.3970   -9.4980   -7.3100 C.3    46  ILE46       0.1595
     97  C         -0.6360  -10.1640   -5.9670 C.2    46  ILE46       0.2287
     98  O          0.2280  -10.1270   -5.0660 O.2    46  ILE46      -0.2864
     99  CB         0.9050  -10.0280   -7.9980 C.3    46  ILE46       0.0276
    100  CG1        1.1070   -9.3940   -9.4120 C.3    46  ILE46       0.0022
    101  CG2        0.8870  -11.5450   -8.0600 C.3    46  ILE46       0.0022
    102  CD1        2.4590   -9.6940  -10.0560 C.3    46  ILE46       0.0001
    103  N          0.4930  -10.6090   -0.4620 N.3    58  HIS58      -0.1226
    104  CA         0.7430  -10.0340   -1.7640 C.3    58  HIS58       0.1752
    105  C          2.2340  -10.1430   -2.0880 C.2    58  HIS58       0.2596
    106  O          3.0450  -10.2340   -1.1950 O.2    58  HIS58      -0.2718
    107  CB         0.4400   -8.5430   -1.8560 C.3    58  HIS58       0.0759
    108  CG        -1.0200   -8.1960   -1.9040 C.ar   58  HIS58       0.0818
    109  ND1       -1.7480   -7.7940   -0.7990 N.ar   58  HIS58      -0.2268
    110  CD2       -1.8770   -8.1320   -2.9540 C.ar   58  HIS58       0.1154
    111  CE1       -3.0110   -7.5940   -1.1440 C.ar   58  HIS58       0.1986
    112  NE2       -3.1090   -7.7700   -2.4400 N.ar   58  HIS58      -0.2212
    113  N          2.5820  -10.0910   -3.3810 N.am   59  LEU59      -0.1966
    114  CA         3.9720   -9.8830   -3.6900 C.3    59  LEU59       0.1728
    115  C          4.3460   -8.4750   -3.2660 C.2    59  LEU59       0.2616
    116  O          3.5790   -7.5240   -3.3340 O.2    59  LEU59      -0.2715
    117  CB         4.1800  -10.0320   -5.1880 C.3    59  LEU59       0.0311
    118  CG         4.0050  -11.3750   -5.7970 C.3    59  LEU59       0.0022
    119  CD1        4.5940  -11.2750   -7.2330 C.3    59  LEU59       0.0001
    120  CD2        4.7180  -12.4740   -5.0250 C.3    59  LEU59       0.0001
    121  N          5.5780   -8.3380   -2.8140 N.am   60  LYS60      -0.1963
    122  CA         6.0720   -7.0540   -2.4830 C.3    60  LYS60       0.1728
    123  C          5.9120   -6.0760   -3.6370 C.2    60  LYS60       0.2616
    124  O          6.0620   -6.4300   -4.8450 O.2    60  LYS60      -0.2715
    125  CB         7.5150   -7.2990   -2.0590 C.3    60  LYS60       0.0311
    126  CG         8.1580   -6.2600   -1.2290 C.3    60  LYS60       0.0038
    127  CD         9.6190   -6.6360   -1.1190 C.3    60  LYS60       0.0206
    128  CE        10.4680   -5.9680   -2.2040 C.3    60  LYS60       0.1093
    129  NZ        10.4430   -6.5380   -3.6130 N.3    60  LYS60      -0.1314
    130  N          5.5220   -4.8590   -3.3170 N.am   61  LYS61      -0.1963
    131  CA         5.0510   -3.8620   -4.3070 C.3    61  LYS61       0.1728
    132  C          6.0790   -3.6220   -5.4650 C.2    61  LYS61       0.2616
    133  O          5.7730   -3.5240   -6.6430 O.2    61  LYS61      -0.2715
    134  CB         4.9020   -2.5720   -3.5550 C.3    61  LYS61       0.0311
    135  CG         4.2820   -1.4650   -4.2960 C.3    61  LYS61       0.0038
    136  CD         4.2790   -0.2830   -3.3240 C.3    61  LYS61       0.0206
    137  CE         2.9400    0.4210   -3.3630 C.3    61  LYS61       0.1093
    138  NZ         2.5610    0.8310   -4.7390 N.3    61  LYS61      -0.1314
    139  N          7.3330   -3.5980   -5.0970 N.am   62  GLU62      -0.1977
    140  CA         8.3820   -3.3980   -6.0780 C.3    62  GLU62       0.1602
    141  C          8.5030   -4.5400   -7.1000 C.2    62  GLU62       0.2287
    142  O          8.6840   -4.3090   -8.2830 O.2    62  GLU62      -0.2864
    143  CB         9.7100   -3.2300   -5.3540 C.3    62  GLU62       0.0415
    144  CG         9.7880   -1.9810   -4.4890 C.3    62  GLU62       0.1163
    145  CD         8.9610   -1.9870   -3.1670 C.2    62  GLU62       0.3649
    146  OE1        8.6000   -3.0530   -2.6280 O.co2  62  GLU62      -0.2457
    147  OE2        8.6620   -0.8770   -2.6520 O.co2  62  GLU62      -0.2457
    148  N          5.8780   -6.6680   -7.7400 N.3    64  ALA64      -0.1245
    149  CA         4.6480   -6.5840   -8.5440 C.3    64  ALA64       0.1562
    150  C          4.6930   -5.5530   -9.6560 C.2    64  ALA64       0.2260
    151  O          4.1640   -5.7080  -10.7490 O.2    64  ALA64      -0.2867
    152  CB         3.4260   -6.3620   -7.6610 C.3    64  ALA64       0.0290
    153  N          5.1810  -12.2100    9.3640 N.3    90  PHE90      -0.1241
    154  CA         5.0720  -10.9710    8.5640 C.3    90  PHE90       0.1605
    155  C          5.3680  -11.1180    7.0700 C.2    90  PHE90       0.2264
    156  O          4.6340  -10.5790    6.2520 O.2    90  PHE90      -0.2867
    157  CB         6.0670   -9.9320    9.0540 C.3    90  PHE90       0.0534
    158  CG         5.8530   -9.5120   10.4840 C.ar   90  PHE90      -0.0203
    159  CD1        4.5550   -9.2910   10.9910 C.ar   90  PHE90      -0.0042
    160  CD2        6.9570   -9.3250   11.3230 C.ar   90  PHE90      -0.0042
    161  CE1        4.3780   -8.9030   12.3170 C.ar   90  PHE90      -0.0003
    162  CE2        6.7810   -8.9190   12.6380 C.ar   90  PHE90      -0.0003
    163  CZ         5.4960   -8.7170   13.1340 C.ar   90  PHE90      -0.0000
@<TRIPOS>BOND
     1   151   150    2
     2   102   100    1
     3   150   149    1
     4   100    99    1
     5    47    48    1
     6    49    48    1
     7    49    50    2
     8    93    92    2
     9   149   148    1
    10   149   152    1
    11    48    51    1
    12    90    91    1
    13   142   141    2
    14   101    99    1
    15    99    96    1
    16    88    87   ar
    17    92    91    1
    18    92    95   am
    19    84    85    2
    20    84    83    1
    21    55    56    1
    22    96    95    1
    23    96    97    1
    24    91    94    1
    25   119   118    1
    26    51    52    1
    27   141   140    1
    28    87    89   ar
    29    87    86    1
    30    58    57    2
    31   133   132    2
    32    83    86    1
    33    83    82    1
    34    53    52   ar
    35   140   143    1
    36   140   139    1
    37    52    54   ar
    38    56    57    1
    39    56    59    1
    40    57    63   am
    41    97    98    2
    42   118   117    1
    43   118   120    1
    44    59    60    1
    45    82    72   am
    46   132   139   am
    47   132   131    1
    48   143   144    1
    49    64    63    1
    50    64    65    1
    51    64    67    1
    52   117   114    1
    53    63    69    1
    54    66    65    2
    55   124   123    2
    56   138   137    1
    57    65    70   am
    58    72    73    2
    59    72    71    1
    60   144   145    1
    61    67    68    1
    62    60    61    2
    63    60    62   am
    64   131   134    1
    65   131   130    1
    66   135   134    1
    67   135   136    1
    68    69    68    1
    69    70    71    1
    70   114   113    1
    71   114   115    1
    72   123   130   am
    73   123   122    1
    74   129   128    1
    75    71    74    1
    76   113   105   am
    77   137   136    1
    78   116   115    2
    79   115   121   am
    80   145   147   ar
    81   145   146   ar
    82   110   112   ar
    83   110   108   ar
    84   121   122    1
    85   122   125    1
    86   112   111   ar
    87    74    75    1
    88   128   127    1
    89   105   104    1
    90   105   106    2
    91   125   126    1
    92   108   107    1
    93   108   109   ar
    94   107   104    1
    95   104   103    1
    96   126   127    1
    97   111   109   ar
    98    75    77   ar
    99    75    76   ar
   100    77    79   ar
   101    76    78   ar
   102    79    80   ar
   103    78    80   ar
   104     7     5    1
   105    80    81    1
   106     1     2    1
   107    46    45    1
   108     6     5    1
   109     5     2    1
   110     4     3    2
   111    45    43   ar
   112    45    44   ar
   113    43    41   ar
   114     2     3    1
   115    44    42   ar
   116     3     8   am
   117    41    40   ar
   118    42    40   ar
   119    40    39    1
   120     8     9    1
   121     9    10    1
   122    39    36    1
   123    10    11    2
   124    36    37    1
   125    36    35    1
   126    27    28    1
   127    27    24    1
   128   156   155    2
   129    30    28   ar
   130    30    32   ar
   131    37    38    2
   132    35    25   am
   133    26    25    2
   134    28    29   ar
   135    25    24    1
   136    32    33   ar
   137   155   154    1
   138    24    23    1
   139    23    14   am
   140    29    31   ar
   141    33    31   ar
   142    33    34    1
   143    12    13    1
   144   154   157    1
   145   154   153    1
   146    14    13    1
   147    14    15    2
   148   157   158    1
   149    13    16    1
   150    17    16    1
   151    17    18    1
   152    18    19    1
   153   158   159   ar
   154   158   160   ar
   155   159   161   ar
   156   160   162   ar
   157    19    20    2
   158    21    20    1
   159    20    22    1
   160   161   163   ar
   161   162   163   ar
