@<TRIPOS>MOLECULE
tmp/5bnhD00.pdb
 146 145 0 0 0
SMALL
GASTEIGER

@<TRIPOS>ATOM
      1  N         28.6910  -36.1550  -14.9120 N.3    16  VAL16      -0.1231
      2  CA        30.0960  -36.4850  -15.0430 C.3    16  VAL16       0.1692
      3  C         30.3480  -37.2740  -16.2910 C.2    16  VAL16       0.2592
      4  O         29.4520  -37.7360  -16.9950 O.2    16  VAL16      -0.2718
      5  CB        30.6500  -37.2920  -13.7980 C.3    16  VAL16       0.0266
      6  CG1       30.3970  -36.4980  -12.5610 C.3    16  VAL16       0.0020
      7  CG2       29.9950  -38.6460  -13.6550 C.3    16  VAL16       0.0020
      8  N         31.6210  -37.4060  -16.6100 N.am   17  GLY17      -0.1957
      9  CA        32.0010  -38.1840  -17.7510 C.3    17  GLY17       0.1869
     10  C         31.7330  -37.4900  -19.0750 C.2    17  GLY17       0.2309
     11  O         31.6200  -38.1880  -20.0780 O.2    17  GLY17      -0.2863
     12  N         33.6780  -35.9650  -20.9980 N.3    19  ARG19      -0.1231
     13  CA        34.7150  -36.1490  -22.0400 C.3    19  ARG19       0.1694
     14  C         34.4890  -37.4520  -22.9070 C.2    19  ARG19       0.2592
     15  O         35.1270  -37.5880  -24.0140 O.2    19  ARG19      -0.2718
     16  CB        36.0650  -36.1460  -21.3670 C.3    19  ARG19       0.0321
     17  CG        36.3130  -37.4580  -20.7080 C.3    19  ARG19       0.0489
     18  CD        37.1740  -37.4790  -19.4690 C.3    19  ARG19       0.2205
     19  NE        38.4580  -37.0890  -19.8070 N.pl3  19  ARG19      -0.0865
     20  CZ        39.6170  -37.5580  -19.3390 C.cat  19  ARG19       0.5346
     21  NH1       39.7600  -38.5370  -18.4250 N.pl3  19  ARG19       0.1354
     22  NH2       40.6860  -36.9930  -19.8670 N.pl3  19  ARG19       0.1354
     23  N         33.5820  -38.3480  -22.4780 N.am   20  TYR20      -0.1962
     24  CA        33.3260  -39.6220  -23.1280 C.3    20  TYR20       0.1771
     25  C         32.1930  -39.6120  -24.1400 C.2    20  TYR20       0.2619
     26  O         31.9890  -40.6210  -24.8190 O.2    20  TYR20      -0.2715
     27  CB        33.0540  -40.7140  -22.0660 C.3    20  TYR20       0.0574
     28  CG        34.2190  -40.9380  -21.0920 C.ar   20  TYR20      -0.0198
     29  CD1       35.2340  -41.8330  -21.3840 C.ar   20  TYR20      -0.0009
     30  CD2       34.2710  -40.2860  -19.8820 C.ar   20  TYR20      -0.0009
     31  CE1       36.3060  -41.9910  -20.5450 C.ar   20  TYR20       0.0417
     32  CE2       35.2930  -40.4530  -19.0080 C.ar   20  TYR20       0.0417
     33  CZ        36.3320  -41.3250  -19.3480 C.ar   20  TYR20       0.1957
     34  OH        37.3350  -41.5270  -18.4900 O.3    20  TYR20      -0.2866
     35  N         31.4840  -38.5070  -24.2350 N.am   21  TYR21      -0.1974
     36  CA        30.2280  -38.4220  -24.9990 C.3    21  TYR21       0.1639
     37  C         30.2540  -37.1940  -25.8330 C.2    21  TYR21       0.2290
     38  O         31.0010  -36.2500  -25.5610 O.2    21  TYR21      -0.2864
     39  CB        28.9730  -38.4080  -24.0700 C.3    21  TYR21       0.0560
     40  CG        28.9660  -39.6350  -23.2620 C.ar   21  TYR21      -0.0198
     41  CD1       28.6200  -40.8510  -23.8370 C.ar   21  TYR21      -0.0009
     42  CD2       29.4910  -39.6420  -21.9830 C.ar   21  TYR21      -0.0009
     43  CE1       28.7510  -42.0390  -23.1680 C.ar   21  TYR21       0.0417
     44  CE2       29.5780  -40.8430  -21.2860 C.ar   21  TYR21       0.0417
     45  CZ        29.2300  -42.0260  -21.9020 C.ar   21  TYR21       0.1957
     46  OH        29.3090  -43.2330  -21.1880 O.3    21  TYR21      -0.2866
     47  N         24.6560  -51.3530  -17.9210 N.3    39  ASN39      -0.1226
     48  CA        26.0090  -50.8030  -17.8440 C.3    39  ASN39       0.1770
     49  C         26.9340  -51.8130  -17.2030 C.2    39  ASN39       0.2439
     50  O         26.7390  -52.2350  -16.0690 O.2    39  ASN39      -0.2733
     51  CB        26.0500  -49.4750  -17.0370 C.3    39  ASN39       0.1168
     52  CG        27.4120  -48.8430  -17.0560 C.2    39  ASN39       0.2627
     53  OD1       28.3390  -49.3600  -16.4540 O.2    39  ASN39      -0.2716
     54  ND2       27.5250  -47.6800  -17.7110 N.am   39  ASN39      -0.0877
     55  N         28.0380  -52.1430  -17.8930 N.am   40  PRO40      -0.2718
     56  CA        28.7500  -53.2580  -17.3550 C.3    40  PRO40       0.1535
     57  C         29.6720  -52.8210  -16.2050 C.2    40  PRO40       0.2599
     58  O         30.3000  -53.6770  -15.6180 O.2    40  PRO40      -0.2715
     59  CB        29.5810  -53.7710  -18.5280 C.3    40  PRO40       0.0310
     60  CG        29.7340  -52.6400  -19.4420 C.3    40  PRO40       0.0237
     61  CD        28.5740  -51.6790  -19.1710 C.3    40  PRO40       0.0939
     62  N         29.7780  -51.5370  -15.8900 N.am   41  TYR41      -0.1960
     63  CA        30.5410  -51.0940  -14.7270 C.3    41  TYR41       0.1771
     64  C         29.7310  -50.7990  -13.4580 C.2    41  TYR41       0.2619
     65  O         30.2860  -50.8160  -12.3730 O.2    41  TYR41      -0.2715
     66  CB        31.3390  -49.8500  -15.0500 C.3    41  TYR41       0.0574
     67  CG        32.2510  -50.1390  -16.2040 C.ar   41  TYR41      -0.0198
     68  CD1       33.5080  -50.6510  -15.9710 C.ar   41  TYR41      -0.0009
     69  CD2       31.8130  -49.9920  -17.4980 C.ar   41  TYR41      -0.0009
     70  CE1       34.3370  -50.9830  -17.0390 C.ar   41  TYR41       0.0417
     71  CE2       32.6220  -50.3280  -18.5760 C.ar   41  TYR41       0.0417
     72  CZ        33.8890  -50.7790  -18.3260 C.ar   41  TYR41       0.1957
     73  OH        34.7010  -51.1030  -19.3920 O.3    41  TYR41      -0.2866
     74  N         28.4300  -50.5480  -13.6110 N.am   42  ASP42      -0.1971
     75  CA        27.6180  -50.0800  -12.5220 C.3    42  ASP42       0.1709
     76  C         26.1640  -50.3900  -12.8570 C.2    42  ASP42       0.2293
     77  O         25.5560  -49.7370  -13.6920 O.2    42  ASP42      -0.2864
     78  CB        27.8770  -48.5600  -12.2830 C.3    42  ASP42       0.1436
     79  CG        27.0380  -47.9830  -11.1080 C.2    42  ASP42       0.3671
     80  OD1       26.2730  -48.7690  -10.4400 O.co2  42  ASP42      -0.2456
     81  OD2       27.1180  -46.7350  -10.8690 O.co2  42  ASP42      -0.2456
     82  N         23.7700  -47.4040  -12.8910 N.3    45  ALA45      -0.1231
     83  CA        24.0280  -46.2960  -13.7820 C.3    45  ALA45       0.1694
     84  C         22.7710  -45.5410  -14.2130 C.2    45  ALA45       0.2591
     85  O         21.6920  -46.1210  -14.5960 O.2    45  ALA45      -0.2718
     86  CB        24.7960  -46.7480  -15.0030 C.3    45  ALA45       0.0304
     87  N         22.9230  -44.2080  -14.2390 N.am   46  ILE46      -0.1980
     88  CA        21.9220  -43.3360  -14.8660 C.3    46  ILE46       0.1595
     89  C         22.5350  -42.4160  -15.8650 C.2    46  ILE46       0.2287
     90  O         23.4060  -41.5780  -15.5400 O.2    46  ILE46      -0.2864
     91  CB        21.2180  -42.4820  -13.7520 C.3    46  ILE46       0.0276
     92  CG1       20.5100  -43.4080  -12.8010 C.3    46  ILE46       0.0022
     93  CG2       20.2520  -41.4670  -14.3800 C.3    46  ILE46       0.0022
     94  CD1       19.9310  -42.8080  -11.5440 C.3    46  ILE46       0.0001
     95  N         26.8550  -39.1220  -17.4050 N.3    58  HIS58      -0.1226
     96  CA        26.1780  -39.9460  -16.3810 C.3    58  HIS58       0.1752
     97  C         26.0000  -39.1410  -15.1100 C.2    58  HIS58       0.2596
     98  O         26.7620  -38.2240  -14.8660 O.2    58  HIS58      -0.2718
     99  CB        26.9790  -41.1950  -15.9890 C.3    58  HIS58       0.0759
    100  CG        26.8960  -42.3320  -16.9840 C.ar   58  HIS58       0.0818
    101  ND1       27.9130  -42.6090  -17.8860 N.ar   58  HIS58      -0.2268
    102  CD2       25.9610  -43.2770  -17.1770 C.ar   58  HIS58       0.1154
    103  CE1       27.5670  -43.6520  -18.6200 C.ar   58  HIS58       0.1986
    104  NE2       26.4060  -44.0910  -18.1820 N.ar   58  HIS58      -0.2212
    105  N         25.0250  -39.5130  -14.2600 N.am   59  LEU59      -0.1966
    106  CA        25.0630  -39.0130  -12.9140 C.3    59  LEU59       0.1728
    107  C         26.2630  -39.5880  -12.1730 C.2    59  LEU59       0.2616
    108  O         26.6650  -40.7230  -12.3670 O.2    59  LEU59      -0.2715
    109  CB        23.7970  -39.3710  -12.1470 C.3    59  LEU59       0.0311
    110  CG        22.5330  -38.7630  -12.6890 C.3    59  LEU59       0.0022
    111  CD1       21.4240  -39.0990  -11.7050 C.3    59  LEU59       0.0001
    112  CD2       22.6880  -37.2280  -12.7390 C.3    59  LEU59       0.0001
    113  N         26.8360  -38.7760  -11.3230 N.am   60  LYS60      -0.1963
    114  CA        27.9230  -39.2390  -10.4900 C.3    60  LYS60       0.1728
    115  C         27.5370  -40.5500   -9.7620 C.2    60  LYS60       0.2616
    116  O         26.3850  -40.7300   -9.3140 O.2    60  LYS60      -0.2715
    117  CB        28.2750  -38.1240   -9.4930 C.3    60  LYS60       0.0311
    118  CG        29.6010  -38.3700   -8.7840 C.3    60  LYS60       0.0038
    119  CD        30.0560  -37.1610   -7.9460 C.3    60  LYS60       0.0206
    120  CE        29.5100  -37.2100   -6.5070 C.3    60  LYS60       0.1093
    121  NZ        30.0810  -36.2050   -5.5150 N.3    60  LYS60      -0.1314
    122  N         28.4760  -41.4550   -9.5430 N.am   61  LYS61      -0.1977
    123  CA        28.0930  -42.7800   -9.1090 C.3    61  LYS61       0.1596
    124  C         27.3950  -42.8090   -7.7460 C.2    61  LYS61       0.2287
    125  O         26.5670  -43.6920   -7.5260 O.2    61  LYS61      -0.2864
    126  CB        29.2390  -43.7760   -9.0820 C.3    61  LYS61       0.0298
    127  CG        30.3860  -43.4220   -8.1240 C.3    61  LYS61       0.0038
    128  CD        31.5430  -44.4320   -8.3240 C.3    61  LYS61       0.0206
    129  CE        32.9030  -43.7980   -8.0720 C.3    61  LYS61       0.1093
    130  NZ        33.0780  -43.3890   -6.6520 N.3    61  LYS61      -0.1314
    131  N         23.8020  -41.7990   -8.4220 N.3    64  ALA64      -0.1245
    132  CA        23.0690  -42.8870   -9.0940 C.3    64  ALA64       0.1562
    133  C         22.7590  -44.0550   -8.1530 C.2    64  ALA64       0.2260
    134  O         21.7370  -44.7100   -8.1980 O.2    64  ALA64      -0.2867
    135  CB        23.8490  -43.3390  -10.3060 C.3    64  ALA64       0.0290
    136  N         34.6780  -31.0810  -17.9780 N.3    90  PHE90      -0.1241
    137  CA        34.6410  -32.3910  -17.3500 C.3    90  PHE90       0.1605
    138  C         33.3360  -32.7560  -16.6420 C.2    90  PHE90       0.2264
    139  O         32.9580  -33.9030  -16.7630 O.2    90  PHE90      -0.2867
    140  CB        35.7470  -32.5570  -16.3350 C.3    90  PHE90       0.0534
    141  CG        37.1200  -32.3870  -16.9300 C.ar   90  PHE90      -0.0203
    142  CD1       37.6180  -33.3450  -17.7910 C.ar   90  PHE90      -0.0042
    143  CD2       37.8950  -31.2600  -16.6460 C.ar   90  PHE90      -0.0042
    144  CE1       38.8720  -33.2130  -18.3530 C.ar   90  PHE90      -0.0003
    145  CE2       39.1580  -31.1290  -17.2200 C.ar   90  PHE90      -0.0003
    146  CZ        39.6260  -32.0860  -18.0850 C.ar   90  PHE90      -0.0000
@<TRIPOS>BOND
     1    37    38    2
     2    37    36    1
     3    36    35    1
     4    36    39    1
     5    26    25    2
     6    35    25   am
     7    25    24    1
     8    39    40    1
     9    15    14    2
    10    41    40   ar
    11    41    43   ar
    12    40    42   ar
    13    43    45   ar
    14    24    23    1
    15    24    27    1
    16    14    23   am
    17    14    13    1
    18    27    28    1
    19    13    16    1
    20    13    12    1
    21    42    44   ar
    22    45    44   ar
    23    45    46    1
    24    29    28   ar
    25    29    31   ar
    26    16    17    1
    27    28    30   ar
    28    17    18    1
    29    31    33   ar
    30    11    10    2
    31    30    32   ar
    32    22    20    1
    33    19    18    1
    34    19    20    2
    35    60    61    1
    36    60    59    1
    37    73    72    1
    38    33    32   ar
    39    33    34    1
    40    20    21    1
    41    61    55    1
    42    10     9    1
    43   103   104   ar
    44   103   101   ar
    45    71    72   ar
    46    71    69   ar
    47    59    56    1
    48   144   146   ar
    49   144   142   ar
    50    72    70   ar
    51   104   102   ar
    52   146   145   ar
    53   136   137    1
    54    47    48    1
    55    55    56    1
    56    55    49   am
    57   101   100   ar
    58    48    49    1
    59    48    51    1
    60   142   141   ar
    61     9     8    1
    62    54    52   am
    63    69    67   ar
    64    95    96    1
    65    56    57    1
    66   137   138    1
    67   137   140    1
    68   145   143   ar
    69    49    50    2
    70   102   100   ar
    71    52    51    1
    72    52    53    2
    73    70    68   ar
    74     4     3    2
    75   100    99    1
    76   141   143   ar
    77   141   140    1
    78   139   138    2
    79     8     3   am
    80    96    99    1
    81    96    97    1
    82     3     2    1
    83    57    62   am
    84    57    58    2
    85    67    68   ar
    86    67    66    1
    87    62    63    1
    88    89    90    2
    89    89    88    1
    90    97    98    2
    91    97   105   am
    92    66    63    1
    93     2     1    1
    94     2     5    1
    95    86    83    1
    96    88    87    1
    97    88    91    1
    98    63    64    1
    99    85    84    2
   100    93    91    1
   101   105   106    1
   102    87    84   am
   103    84    83    1
   104     5     7    1
   105     5     6    1
   106    83    82    1
   107    91    92    1
   108    77    76    2
   109    74    64   am
   110    74    75    1
   111    64    65    2
   112   106   107    1
   113   106   109    1
   114    76    75    1
   115    92    94    1
   116   112   110    1
   117   110   109    1
   118   110   111    1
   119    75    78    1
   120   108   107    2
   121    78    79    1
   122   107   113   am
   123   113   114    1
   124    79    81   ar
   125    79    80   ar
   126   114   115    1
   127   114   117    1
   128   135   132    1
   129   115   122   am
   130   115   116    2
   131   122   123    1
   132   117   118    1
   133   123   126    1
   134   123   124    1
   135   132   131    1
   136   132   133    1
   137   126   127    1
   138   118   119    1
   139   128   127    1
   140   128   129    1
   141   134   133    2
   142   129   130    1
   143   119   120    1
   144   124   125    2
   145   120   121    1
