@<TRIPOS>MOLECULE
tmp/5bniB00.pdb
 178 174 0 0 0
SMALL
GASTEIGER

@<TRIPOS>ATOM
      1  N        -22.9050   20.6010  -58.7490 N.3    75  VAL75      -0.1231
      2  CA       -24.3210   20.3050  -58.9010 C.3    75  VAL75       0.1692
      3  C        -24.8060   19.2910  -57.8620 C.2    75  VAL75       0.2592
      4  O        -24.0940   18.3570  -57.4970 O.2    75  VAL75      -0.2718
      5  CB       -24.6370   19.8070  -60.3350 C.3    75  VAL75       0.0266
      6  CG1      -26.0770   19.3020  -60.4390 C.3    75  VAL75       0.0020
      7  CG2      -24.4010   20.9280  -61.3390 C.3    75  VAL75       0.0020
      8  N        -26.0320   19.4890  -57.3970 N.am   76  PHE76      -0.1962
      9  CA       -26.6570   18.6230  -56.4030 C.3    76  PHE76       0.1771
     10  C        -27.9840   18.0760  -56.9160 C.2    76  PHE76       0.2620
     11  O        -28.5560   18.5840  -57.8830 O.2    76  PHE76      -0.2715
     12  CB       -26.9320   19.3920  -55.1030 C.3    76  PHE76       0.0574
     13  CG       -25.7010   19.8940  -54.3920 C.ar   76  PHE76      -0.0200
     14  CD1      -24.7760   19.0150  -53.8610 C.ar   76  PHE76      -0.0042
     15  CD2      -25.5040   21.2580  -54.2040 C.ar   76  PHE76      -0.0042
     16  CE1      -23.6670   19.4950  -53.1760 C.ar   76  PHE76      -0.0003
     17  CE2      -24.3860   21.7400  -53.5170 C.ar   76  PHE76      -0.0003
     18  CZ       -23.4660   20.8620  -53.0060 C.ar   76  PHE76      -0.0000
     19  N        -28.4680   17.0380  -56.2450 N.am   77  TRP77      -0.1960
     20  CA       -29.7470   16.4120  -56.5540 C.3    77  TRP77       0.1771
     21  C        -30.3160   15.9350  -55.2400 C.2    77  TRP77       0.2620
     22  O        -29.5800   15.5420  -54.3390 O.2    77  TRP77      -0.2715
     23  CB       -29.5580   15.2210  -57.4790 C.3    77  TRP77       0.0590
     24  CG       -28.3650   14.3690  -57.1190 C.ar   77  TRP77       0.0006
     25  CD1      -27.0550   14.5980  -57.4590 C.ar   77  TRP77       0.0946
     26  CD2      -28.3700   13.1560  -56.3620 C.ar   77  TRP77       0.0152
     27  NE1      -26.2500   13.6030  -56.9700 N.ar   77  TRP77      -0.2442
     28  CE2      -27.0290   12.7010  -56.2930 C.ar   77  TRP77       0.0810
     29  CE3      -29.3740   12.4020  -55.7430 C.ar   77  TRP77       0.0012
     30  CZ2      -26.6660   11.5340  -55.6230 C.ar   77  TRP77       0.0191
     31  CZ3      -29.0150   11.2280  -55.0900 C.ar   77  TRP77       0.0001
     32  CH2      -27.6700   10.8070  -55.0350 C.ar   77  TRP77       0.0015
     33  N        -31.6280   15.9920  -55.0970 N.am   78  SER78      -0.1936
     34  CA       -32.1960   15.5030  -53.8750 C.3    78  SER78       0.2055
     35  C        -33.4580   14.7020  -54.1220 C.2    78  SER78       0.2642
     36  O        -34.4310   15.2230  -54.6580 O.2    78  SER78      -0.2714
     37  CB       -32.4460   16.6650  -52.9170 C.3    78  SER78       0.2130
     38  OG       -32.5440   16.1930  -51.5860 O.3    78  SER78      -0.2179
     39  N        -33.4110   13.4240  -53.7380 N.am   79  LYS79      -0.1977
     40  CA       -34.5430   12.4900  -53.8040 C.3    79  LYS79       0.1596
     41  C        -35.0700   12.2580  -55.2120 C.2    79  LYS79       0.2287
     42  O        -36.1760   11.7630  -55.3970 O.2    79  LYS79      -0.2864
     43  CB       -35.6680   12.9550  -52.8770 C.3    79  LYS79       0.0298
     44  CG       -35.2580   14.1040  -51.9740 C.3    79  LYS79       0.0038
     45  CD       -36.0460   14.1220  -50.6920 C.3    79  LYS79       0.0206
     46  CE       -35.9120   12.7900  -49.9640 C.3    79  LYS79       0.1093
     47  NZ       -34.5090   12.3030  -50.0470 N.3    79  LYS79      -0.1314
     48  N        -33.1460   10.5460  -57.5400 N.3    81  LYS81      -0.1245
     49  CA       -32.0090    9.7770  -57.9980 C.3    81  LYS81       0.1561
     50  C        -32.2010    9.3890  -59.4590 C.2    81  LYS81       0.2260
     51  O        -31.3550    9.6830  -60.2890 O.2    81  LYS81      -0.2867
     52  CB       -31.8050    8.5440  -57.1260 C.3    81  LYS81       0.0271
     53  CG       -30.3800    8.3620  -56.6000 C.3    81  LYS81       0.0035
     54  CD       -29.3780    8.2270  -57.7410 C.3    81  LYS81       0.0206
     55  CE       -28.3410    7.1380  -57.5120 C.3    81  LYS81       0.1093
     56  NZ       -27.2340    7.5600  -56.6070 N.3    81  LYS81      -0.1314
     57  N        -21.8780   14.5160  -57.0830 N.3    97  LEU97      -0.1245
     58  CA       -20.8910   13.8560  -56.2500 C.3    97  LEU97       0.1561
     59  C        -20.3320   12.6000  -56.9100 C.2    97  LEU97       0.2260
     60  O        -19.1400   12.3270  -56.8190 O.2    97  LEU97      -0.2867
     61  CB       -21.5030   13.5030  -54.9090 C.3    97  LEU97       0.0270
     62  CG       -20.5160   13.1880  -53.7960 C.3    97  LEU97       0.0019
     63  CD1      -19.8620   14.4690  -53.3430 C.3    97  LEU97       0.0001
     64  CD2      -21.2780   12.5520  -52.6610 C.3    97  LEU97       0.0001
     65  N        -27.8540    2.7770  -41.9230 N.3   128  ARG128     -0.1245
     66  CA       -27.9920    3.8890  -41.0140 C.3   128  ARG128      0.1563
     67  C        -29.0270    3.7330  -39.9030 C.2   128  ARG128      0.2260
     68  O        -28.9100    4.3610  -38.8930 O.2   128  ARG128     -0.2867
     69  CB       -28.0810    5.2050  -41.7370 C.3   128  ARG128      0.0307
     70  CG       -29.4510    5.5700  -42.2370 C.3   128  ARG128      0.0489
     71  CD       -29.3280    6.4730  -43.4330 C.3   128  ARG128      0.2205
     72  NE       -28.3030    7.4810  -43.2130 N.pl3 128  ARG128     -0.0865
     73  CZ       -28.1710    8.5890  -43.9280 C.cat 128  ARG128      0.5346
     74  NH1      -29.0200    8.8530  -44.9120 N.pl3 128  ARG128      0.1354
     75  NH2      -27.1980    9.4370  -43.6300 N.pl3 128  ARG128      0.1354
     76  N        -20.1500    3.0310  -44.3110 N.3   136  VAL136     -0.1231
     77  CA       -20.6330    3.5160  -45.6110 C.3   136  VAL136      0.1692
     78  C        -21.2690    4.9070  -45.4780 C.2   136  VAL136      0.2592
     79  O        -21.0050    5.8030  -46.2830 O.2   136  VAL136     -0.2718
     80  CB       -21.6460    2.5460  -46.2580 C.3   136  VAL136      0.0266
     81  CG1      -22.2400    3.1660  -47.5220 C.3   136  VAL136      0.0020
     82  CG2      -20.9600    1.2510  -46.6220 C.3   136  VAL136      0.0020
     83  N        -22.1040    5.0660  -44.4570 N.am  137  SER137     -0.1952
     84  CA       -22.8020    6.3220  -44.2010 C.3   137  SER137      0.1924
     85  C        -21.8770    7.4380  -43.7300 C.2   137  SER137      0.2314
     86  O        -22.0450    8.5930  -44.1020 O.2   137  SER137     -0.2863
     87  CB       -23.9090    6.0890  -43.1780 C.3   137  SER137      0.2116
     88  OG       -24.6580    4.9190  -43.5140 O.3   137  SER137     -0.2180
     89  N        -20.1760    8.5520  -47.1170 N.3   140  TRP140     -0.1227
     90  CA       -20.9880    9.4170  -47.9770 C.3   140  TRP140      0.1737
     91  C        -21.2890   10.7590  -47.3260 C.2   140  TRP140      0.2595
     92  O        -21.3970   11.7630  -47.9950 O.2   140  TRP140     -0.2718
     93  CB       -22.3000    8.7340  -48.3890 C.3   140  TRP140      0.0564
     94  CG       -22.0860    7.5470  -49.2990 C.ar  140  TRP140      0.0003
     95  CD1      -22.3000    6.2260  -49.0020 C.ar  140  TRP140      0.0946
     96  CD2      -21.5600    7.5710  -50.6310 C.ar  140  TRP140      0.0152
     97  NE1      -21.9330    5.4300  -50.0610 N.ar  140  TRP140     -0.2442
     98  CE2      -21.4750    6.2290  -51.0740 C.ar  140  TRP140      0.0810
     99  CE3      -21.1560    8.5920  -51.4960 C.ar  140  TRP140      0.0012
    100  CZ2      -20.9970    5.8870  -52.3400 C.ar  140  TRP140      0.0191
    101  CZ3      -20.6750    8.2520  -52.7490 C.ar  140  TRP140      0.0001
    102  CH2      -20.6060    6.9100  -53.1610 C.ar  140  TRP140      0.0015
    103  N        -21.4240   10.7630  -46.0100 N.am  141  ASN141     -0.1974
    104  CA       -21.7430   11.9840  -45.2810 C.3   141  ASN141      0.1688
    105  C        -20.5670   12.9420  -45.2460 C.2   141  ASN141      0.2292
    106  O        -20.7400   14.1460  -45.3440 O.2   141  ASN141     -0.2864
    107  CB       -22.1480   11.6380  -43.8540 C.3   141  ASN141      0.1181
    108  CG       -22.8800   12.7540  -43.1820 C.2   141  ASN141      0.2629
    109  OD1      -24.1110   12.7820  -43.1790 O.2   141  ASN141     -0.2716
    110  ND2      -22.1330   13.6960  -42.6110 N.am  141  ASN141     -0.0877
    111  N        -20.1580   14.5170  -48.8020 N.3   144  SER144     -0.1217
    112  CA       -21.1090   15.5890  -49.0980 C.3   144  SER144      0.1889
    113  C        -20.6770   16.8950  -48.4540 C.2   144  SER144      0.2288
    114  O        -20.7210   17.9390  -49.0870 O.2   144  SER144     -0.2866
    115  CB       -22.4910   15.1920  -48.6240 C.3   144  SER144      0.2089
    116  OG       -22.8320   13.9220  -49.1590 O.3   144  SER144     -0.2183
    117  N        -17.6790   18.1290  -50.5290 N.3   147  PHE147     -0.1241
    118  CA       -18.1220   18.5440  -51.8540 C.3   147  PHE147      0.1605
    119  C        -18.7770   19.9040  -51.7880 C.2   147  PHE147      0.2264
    120  O        -18.5590   20.7300  -52.6610 O.2   147  PHE147     -0.2867
    121  CB       -19.1110   17.5190  -52.4100 C.3   147  PHE147      0.0534
    122  CG       -19.5660   17.7810  -53.8390 C.ar  147  PHE147     -0.0203
    123  CD1      -18.6500   18.0700  -54.8390 C.ar  147  PHE147     -0.0042
    124  CD2      -20.9160   17.6770  -54.1910 C.ar  147  PHE147     -0.0042
    125  CE1      -19.0610   18.2600  -56.1490 C.ar  147  PHE147     -0.0003
    126  CE2      -21.3320   17.8680  -55.4950 C.ar  147  PHE147     -0.0003
    127  CZ       -20.3970   18.1590  -56.4770 C.ar  147  PHE147     -0.0000
    128  N        -34.4400   16.7810  -43.7720 N.3   170  THR170     -0.1203
    129  CA       -33.8680   15.5480  -43.2200 C.3   170  THR170      0.1994
    130  C        -32.9630   14.8570  -44.2380 C.2   170  THR170      0.2619
    131  O        -32.3230   13.8640  -43.9130 O.2   170  THR170     -0.2717
    132  CB       -34.9520   14.5320  -42.7460 C.3   170  THR170      0.1784
    133  OG1      -35.4570   13.8060  -43.8710 O.3   170  THR170     -0.2211
    134  CG2      -36.1150   15.2170  -42.0360 C.3   170  THR170      0.0376
    135  N        -32.9090   15.3540  -45.4710 N.am  171  SER171     -0.1937
    136  CA       -32.0470   14.7230  -46.4800 C.3   171  SER171      0.2055
    137  C        -30.6320   15.2040  -46.2910 C.2   171  SER171      0.2644
    138  O        -30.3960   16.1420  -45.5530 O.2   171  SER171     -0.2714
    139  CB       -32.5430   15.0130  -47.9060 C.3   171  SER171      0.2130
    140  OG       -32.2350   16.3470  -48.3040 O.3   171  SER171     -0.2179
    141  N        -29.6860   14.5550  -46.9400 N.am  172  THR172     -0.1936
    142  CA       -28.2750   14.9220  -46.8320 C.3   172  THR172      0.2028
    143  C        -28.0780   16.3210  -47.4080 C.2   172  THR172      0.2642
    144  O        -27.2750   17.1130  -46.9140 O.2   172  THR172     -0.2714
    145  CB       -27.3980   13.9530  -47.6190 C.3   172  THR172      0.1808
    146  OG1      -27.9690   12.6380  -47.5700 O.3   172  THR172     -0.2208
    147  CG2      -26.0010   13.9170  -47.0460 C.3   172  THR172      0.0379
    148  N        -28.8100   16.6130  -48.4680 N.am  173  PHE173     -0.1973
    149  CA       -28.7140   17.9080  -49.0900 C.3   173  PHE173      0.1639
    150  C        -29.2990   18.9310  -48.1200 C.2   173  PHE173      0.2290
    151  O        -28.6670   19.9370  -47.8130 O.2   173  PHE173     -0.2864
    152  CB       -29.4750   17.9510  -50.4170 C.3   173  PHE173      0.0560
    153  CG       -29.5220   19.3290  -51.0100 C.ar  173  PHE173     -0.0200
    154  CD1      -28.3850   19.9180  -51.5570 C.ar  173  PHE173     -0.0042
    155  CD2      -30.6870   20.0740  -50.9730 C.ar  173  PHE173     -0.0042
    156  CE1      -28.4360   21.2190  -52.0590 C.ar  173  PHE173     -0.0003
    157  CE2      -30.7360   21.3690  -51.4740 C.ar  173  PHE173     -0.0003
    158  CZ       -29.6130   21.9440  -52.0180 C.ar  173  PHE173     -0.0000
    159  N        -29.9900   18.7270  -44.7720 N.3   175  ARG175     -0.1245
    160  CA       -29.3980   18.8380  -43.4430 C.3   175  ARG175      0.1563
    161  C        -27.8880   19.0790  -43.4810 C.2   175  ARG175      0.2260
    162  O        -27.3420   19.7730  -42.6240 O.2   175  ARG175     -0.2867
    163  CB       -29.7040   17.5870  -42.6350 C.3   175  ARG175      0.0307
    164  CG       -28.8090   17.3680  -41.4220 C.3   175  ARG175      0.0489
    165  CD       -29.1900   16.1170  -40.6540 C.3   175  ARG175      0.2205
    166  NE       -29.5600   15.0450  -41.5730 N.pl3 175  ARG175     -0.0865
    167  CZ       -28.6960   14.2020  -42.1260 C.cat 175  ARG175      0.5346
    168  NH1      -27.4030   14.2900  -41.8510 N.pl3 175  ARG175      0.1354
    169  NH2      -29.1440   13.2740  -42.9570 N.pl3 175  ARG175      0.1354
    170  N        -25.4900   19.2890  -46.9160 N.3   177  GLU177     -0.1245
    171  CA       -24.9500   20.0910  -48.0070 C.3   177  GLU177      0.1567
    172  C        -25.2010   21.6000  -48.0220 C.2   177  GLU177      0.2260
    173  O        -24.2580   22.3860  -48.1790 O.2   177  GLU177     -0.2867
    174  CB       -25.3850   19.4840  -49.3140 C.3   177  GLU177      0.0388
    175  CG       -24.4990   18.3100  -49.6590 C.3   177  GLU177      0.1160
    176  CD       -25.1690   17.2880  -50.5310 C.2   177  GLU177      0.3649
    177  OE1      -26.1930   17.5660  -51.1850 O.co2 177  GLU177     -0.2457
    178  OE2      -24.6600   16.1910  -50.5120 O.co2 177  GLU177     -0.2457
@<TRIPOS>BOND
     1     7     5    1
     2     6     5    1
     3     5     2    1
     4    51    50    2
     5    50    49    1
     6     2     1    1
     7     2     3    1
     8    49    48    1
     9    49    52    1
    10    11    10    2
    11     3     4    2
    12     3     8   am
    13    54    55    1
    14    54    53    1
    15    55    56    1
    16    23    24    1
    17    23    20    1
    18    25    24   ar
    19    25    27   ar
    20     8     9    1
    21    52    53    1
    22    24    26   ar
    23    57    58    1
    24    27    28   ar
    25    10     9    1
    26    10    19   am
    27    59    60    2
    28    59    58    1
    29    20    19    1
    30    20    21    1
    31   127   125   ar
    32   127   126   ar
    33     9    12    1
    34    26    28   ar
    35    26    29   ar
    36    28    30   ar
    37    58    61    1
    38   125   123   ar
    39    29    31   ar
    40    30    32   ar
    41   126   124   ar
    42    42    41    2
    43    21    33   am
    44    21    22    2
    45    41    40    1
    46    12    13    1
    47    33    34    1
    48    31    32   ar
    49    61    62    1
    50   123   122   ar
    51    36    35    2
    52    13    15   ar
    53    13    14   ar
    54    15    17   ar
    55   124   122   ar
    56    35    34    1
    57    35    39   am
    58    34    37    1
    59    14    16   ar
    60   122   121    1
    61    40    39    1
    62    40    43    1
    63    62    63    1
    64    62    64    1
    65    17    18   ar
    66    16    18   ar
    67   102   101   ar
    68   102   100   ar
    69    37    38    1
    70    43    44    1
    71   101    99   ar
    72   120   119    2
    73   121   118    1
    74   100    98   ar
    75   156   158   ar
    76   156   154   ar
    77   158   157   ar
    78    44    45    1
    79   118   119    1
    80   118   117    1
    81   154   153   ar
    82    99    96   ar
    83   157   155   ar
    84   177   176   ar
    85    98    96   ar
    86    98    97   ar
    87   153   155   ar
    88   153   152    1
    89    45    46    1
    90    96    94   ar
    91   176   178   ar
    92   176   175    1
    93   152   149    1
    94    97    95   ar
    95    47    46    1
    96   175   174    1
    97   174   171    1
    98    94    95   ar
    99    94    93    1
   100   116   115    1
   101   112   111    1
   102   112   115    1
   103   112   113    1
   104   149   148    1
   105   149   150    1
   106   114   113    2
   107   148   143   am
   108    93    90    1
   109   140   139    1
   110   173   172    2
   111   150   151    2
   112   172   171    1
   113   171   170    1
   114    92    91    2
   115    90    91    1
   116    90    89    1
   117   139   136    1
   118   145   146    1
   119   145   147    1
   120   145   142    1
   121    81    80    1
   122   143   144    2
   123   143   142    1
   124    91   103   am
   125   141   142    1
   126   141   137   am
   127    82    80    1
   128   136   137    1
   129   136   135    1
   130   137   138    2
   131    79    78    2
   132    80    77    1
   133   103   104    1
   134    77    78    1
   135    77    76    1
   136    78    83   am
   137   135   130   am
   138   106   105    2
   139   104   105    1
   140   104   107    1
   141    74    73    1
   142   159   160    1
   143    83    84    1
   144   130   131    2
   145   130   129    1
   146    84    85    1
   147    84    87    1
   148    86    85    2
   149    73    75    1
   150    73    72    2
   151   133   132    1
   152   107   108    1
   153   128   129    1
   154    88    87    1
   155   161   160    1
   156   161   162    2
   157   160   163    1
   158    71    72    1
   159    71    70    1
   160   129   132    1
   161   108   109    2
   162   108   110   am
   163   169   167    1
   164   132   134    1
   165   163   164    1
   166    70    69    1
   167   167   168    1
   168   167   166    2
   169    65    66    1
   170    69    66    1
   171   166   165    1
   172   164   165    1
   173    66    67    1
   174    67    68    2
