@<TRIPOS>MOLECULE
tmp/5bnjA00.pdb
 193 184 0 0 0
SMALL
GASTEIGER

@<TRIPOS>ATOM
      1  N         37.5770   63.3770   46.3990 N.3    29  VAL29      -0.1231
      2  CA        38.3570   62.1430   46.1720 C.3    29  VAL29       0.1692
      3  C         37.6700   60.8630   46.6610 C.2    29  VAL29       0.2593
      4  O         38.0200   59.7740   46.2020 O.2    29  VAL29      -0.2718
      5  CB        39.7890   62.2180   46.7780 C.3    29  VAL29       0.0266
      6  CG1       40.5690   63.3530   46.1390 C.3    29  VAL29       0.0020
      7  CG2       39.7730   62.3540   48.3130 C.3    29  VAL29       0.0020
      8  N         36.7150   60.9930   47.5850 N.am   30  GLY30      -0.1942
      9  CA        35.9890   59.8420   48.1240 C.3    30  GLY30       0.2014
     10  C         34.5850   60.1740   48.5960 C.2    30  GLY30       0.2638
     11  O         34.3310   61.2710   49.0920 O.2    30  GLY30      -0.2714
     12  N         33.6780   59.2130   48.4250 N.am   31  ARG31      -0.1977
     13  CA        32.3120   59.2850   48.9500 C.3    31  ARG31       0.1597
     14  C         31.9370   57.8990   49.4810 C.2    31  ARG31       0.2287
     15  O         32.0960   56.9030   48.7800 O.2    31  ARG31      -0.2864
     16  CB        31.3360   59.7290   47.8520 C.3    31  ARG31       0.0334
     17  CG        29.8360   59.6590   48.2020 C.3    31  ARG31       0.0492
     18  CD        29.3010   60.9480   48.8000 C.3    31  ARG31       0.2205
     19  NE        27.8550   60.8580   49.0560 N.pl3  31  ARG31      -0.0865
     20  CZ        27.2740   60.4530   50.1930 C.cat  31  ARG31       0.5346
     21  NH1       27.9880   60.0810   51.2530 N.pl3  31  ARG31       0.1354
     22  NH2       25.9430   60.4220   50.2740 N.pl3  31  ARG31       0.1354
     23  N         30.8080   57.1870   55.6730 N.3    34  TYR34      -0.1241
     24  CA        31.5000   58.2440   56.4310 C.3    34  TYR34       0.1605
     25  C         31.1230   59.6750   56.0230 C.2    34  TYR34       0.2264
     26  O         31.0530   60.5640   56.8760 O.2    34  TYR34      -0.2867
     27  CB        33.0240   58.0590   56.3270 C.3    34  TYR34       0.0534
     28  CG        33.5770   58.1030   54.9130 C.ar   34  TYR34      -0.0201
     29  CD1       33.9380   59.3140   54.3170 C.ar   34  TYR34      -0.0009
     30  CD2       33.7460   56.9320   54.1730 C.ar   34  TYR34      -0.0009
     31  CE1       34.4420   59.3590   53.0160 C.ar   34  TYR34       0.0417
     32  CE2       34.2490   56.9650   52.8700 C.ar   34  TYR34       0.0417
     33  CZ        34.5970   58.1810   52.2970 C.ar   34  TYR34       0.1957
     34  OH        35.0960   58.2160   51.0150 O.3    34  TYR34      -0.2866
     35  N         34.7470   63.1370   51.2780 N.3    37  VAL37      -0.1245
     36  CA        36.1180   63.6110   51.5350 C.3    37  VAL37       0.1561
     37  C         36.7270   64.2830   50.2880 C.2    37  VAL37       0.2260
     38  O         36.5600   63.7910   49.1710 O.2    37  VAL37      -0.2867
     39  CB        37.0390   62.4930   52.1140 C.3    37  VAL37       0.0252
     40  CG1       37.2240   61.3330   51.1370 C.3    37  VAL37       0.0019
     41  CG2       38.3870   63.0830   52.5360 C.3    37  VAL37       0.0019
     42  N         43.2470   66.4940   53.6780 N.3    52  ALA52      -0.1245
     43  CA        42.0160   65.7140   53.5240 C.3    52  ALA52       0.1562
     44  C         40.9030   66.3870   54.3200 C.2    52  ALA52       0.2260
     45  O         40.9780   66.4760   55.5490 O.2    52  ALA52      -0.2867
     46  CB        42.2140   64.2870   53.9850 C.3    52  ALA52       0.0290
     47  N         36.9350   66.3940   55.2500 N.3    54  LYS54      -0.1245
     48  CA        35.8280   65.4370   55.3600 C.3    54  LYS54       0.1561
     49  C         34.5800   66.0880   55.9600 C.2    54  LYS54       0.2260
     50  O         34.6100   66.5360   57.1080 O.2    54  LYS54      -0.2867
     51  CB        36.2690   64.2710   56.2490 C.3    54  LYS54       0.0271
     52  CG        35.1920   63.2230   56.5800 C.3    54  LYS54       0.0035
     53  CD        35.6780   62.3020   57.6860 C.3    54  LYS54       0.0206
     54  CE        34.5990   61.3550   58.1390 C.3    54  LYS54       0.1093
     55  NZ        35.1150   60.3890   59.1430 N.3    54  LYS54      -0.1314
     56  N         34.4150   59.9040   67.4700 N.3    68  GLU68      -0.1245
     57  CA        35.5000   60.1210   66.5000 C.3    68  GLU68       0.1567
     58  C         36.2720   61.3980   66.8220 C.2    68  GLU68       0.2260
     59  O         37.5020   61.3770   66.9170 O.2    68  GLU68      -0.2867
     60  CB        34.9480   60.1720   65.0650 C.3    68  GLU68       0.0388
     61  CG        35.9740   60.5590   63.9800 C.3    68  GLU68       0.1160
     62  CD        35.4800   60.3430   62.5440 C.2    68  GLU68       0.3649
     63  OE1       34.3410   59.8600   62.3410 O.co2  68  GLU68      -0.2457
     64  OE2       36.2470   60.6670   61.6090 O.co2  68  GLU68      -0.2457
     65  N         46.5450   58.7460   61.8020 N.3    81  ILE81      -0.1245
     66  CA        46.1110   59.9810   61.1450 C.3    81  ILE81       0.1561
     67  C         45.7250   61.0420   62.1910 C.2    81  ILE81       0.2260
     68  O         45.0550   60.7270   63.1850 O.2    81  ILE81      -0.2867
     69  CB        44.9520   59.7080   60.1310 C.3    81  ILE81       0.0252
     70  CG1       44.8110   60.8620   59.1330 C.3    81  ILE81       0.0019
     71  CG2       43.6230   59.4010   60.8430 C.3    81  ILE81       0.0019
     72  CD1       45.7940   60.7830   57.9780 C.3    81  ILE81       0.0001
     73  N         42.2050   66.7380   57.9940 N.3    99  PHE99      -0.1227
     74  CA        43.3160   65.8050   58.2250 C.3    99  PHE99       0.1736
     75  C         44.4890   66.1130   57.3060 C.2    99  PHE99       0.2595
     76  O         44.3500   66.8480   56.3280 O.2    99  PHE99      -0.2718
     77  CB        42.8820   64.3660   57.9370 C.3    99  PHE99       0.0547
     78  CG        41.7060   63.9000   58.7460 C.ar   99  PHE99      -0.0202
     79  CD1       41.8500   63.6170   60.1010 C.ar   99  PHE99      -0.0042
     80  CD2       40.4600   63.7120   58.1500 C.ar   99  PHE99      -0.0042
     81  CE1       40.7720   63.1700   60.8570 C.ar   99  PHE99      -0.0003
     82  CE2       39.3700   63.2650   58.9000 C.ar   99  PHE99      -0.0003
     83  CZ        39.5280   62.9940   60.2590 C.ar   99  PHE99      -0.0000
     84  N         45.6400   65.5210   57.6180 N.am  100  ASP100     -0.1960
     85  CA        46.7660   65.4740   56.6810 C.3   100  ASP100      0.1840
     86  C         46.3730   64.5920   55.4960 C.2   100  ASP100      0.2622
     87  O         45.7420   63.5570   55.6820 O.2   100  ASP100     -0.2715
     88  CB        48.0130   64.8890   57.3480 C.3   100  ASP100      0.1450
     89  CG        48.5320   65.7500   58.4890 C.2   100  ASP100      0.3671
     90  OD1       48.5820   65.2440   59.6350 O.co2 100  ASP100     -0.2456
     91  OD2       48.8800   66.9290   58.2410 O.co2 100  ASP100     -0.2456
     92  N         46.7380   65.0080   54.2870 N.am  101  TYR101     -0.1960
     93  CA        46.3800   64.2750   53.0720 C.3   101  TYR101      0.1771
     94  C         47.3670   63.1430   52.8070 C.2   101  TYR101      0.2619
     95  O         48.5760   63.3650   52.8160 O.2   101  TYR101     -0.2715
     96  CB        46.3490   65.2130   51.8660 C.3   101  TYR101      0.0574
     97  CG        45.9760   64.5190   50.5780 C.ar  101  TYR101     -0.0198
     98  CD1       44.6650   64.0940   50.3430 C.ar  101  TYR101     -0.0009
     99  CD2       46.9370   64.2640   49.5970 C.ar  101  TYR101     -0.0009
    100  CE1       44.3210   63.4390   49.1570 C.ar  101  TYR101      0.0417
    101  CE2       46.6050   63.6140   48.4140 C.ar  101  TYR101      0.0417
    102  CZ        45.2990   63.2040   48.1970 C.ar  101  TYR101      0.1957
    103  OH        44.9820   62.5660   47.0200 O.3   101  TYR101     -0.2866
    104  N         46.8380   61.9440   52.5550 N.am  102  ALA102     -0.1977
    105  CA        47.6380   60.7700   52.1940 C.3   102  ALA102      0.1597
    106  C         47.3300   60.3640   50.7500 C.2   102  ALA102      0.2287
    107  O         46.2030   59.9940   50.4410 O.2   102  ALA102     -0.2864
    108  CB        47.3350   59.6250   53.1420 C.3   102  ALA102      0.0319
    109  N         47.2490   54.2370   49.5160 N.3   105  ASP105     -0.1239
    110  CA        46.8250   53.2440   50.5060 C.3   105  ASP105      0.1674
    111  C         47.1930   51.8310   50.0560 C.2   105  ASP105      0.2266
    112  O         47.4810   51.6080   48.8780 O.2   105  ASP105     -0.2867
    113  CB        45.3200   53.3580   50.7990 C.3   105  ASP105      0.1410
    114  CG        44.4480   53.2270   49.5510 C.2   105  ASP105      0.3668
    115  OD1       43.5830   54.1010   49.3490 O.co2 105  ASP105     -0.2456
    116  OD2       44.5970   52.2500   48.7860 O.co2 105  ASP105     -0.2456
    117  N         45.3330   49.1950   49.6980 N.3   107  TRP107     -0.1227
    118  CA        44.3610   48.6570   48.7460 C.3   107  TRP107      0.1737
    119  C         44.7840   48.9310   47.3000 C.2   107  TRP107      0.2595
    120  O         44.8530   48.0060   46.4850 O.2   107  TRP107     -0.2718
    121  CB        42.9620   49.2290   49.0070 C.3   107  TRP107      0.0564
    122  CG        41.8890   48.5020   48.2590 C.ar  107  TRP107      0.0003
    123  CD1       41.2170   47.3900   48.6680 C.ar  107  TRP107      0.0946
    124  CD2       41.3770   48.8280   46.9630 C.ar  107  TRP107      0.0152
    125  NE1       40.3120   47.0010   47.7090 N.ar  107  TRP107     -0.2442
    126  CE2       40.3890   47.8670   46.6510 C.ar  107  TRP107      0.0810
    127  CE3       41.6570   49.8380   46.0330 C.ar  107  TRP107      0.0012
    128  CZ2       39.6730   47.8890   45.4450 C.ar  107  TRP107      0.0191
    129  CZ3       40.9450   49.8600   44.8330 C.ar  107  TRP107      0.0001
    130  CH2       39.9650   48.8890   44.5520 C.ar  107  TRP107      0.0015
    131  N         45.0890   50.1950   47.0020 N.am  108  HIS108     -0.1975
    132  CA        45.5680   50.5910   45.6680 C.3   108  HIS108      0.1656
    133  C         46.9610   50.0580   45.3520 C.2   108  HIS108      0.2291
    134  O         47.1910   49.5770   44.2440 O.2   108  HIS108     -0.2864
    135  CB        45.5520   52.1090   45.5010 C.3   108  HIS108      0.0771
    136  CG        44.1760   52.6840   45.4330 C.ar  108  HIS108      0.0820
    137  ND1       43.6670   53.5110   46.4090 N.ar  108  HIS108     -0.2267
    138  CD2       43.1940   52.5350   44.5160 C.ar  108  HIS108      0.1154
    139  CE1       42.4320   53.8530   46.0910 C.ar  108  HIS108      0.1986
    140  NE2       42.1200   53.2740   44.9470 N.ar  108  HIS108     -0.2212
    141  N         42.3660   49.0890   52.7590 N.3   153  ALA153     -0.1231
    142  CA        41.7410   50.3970   52.5060 C.3   153  ALA153      0.1694
    143  C         42.0080   51.4200   53.6200 C.2   153  ALA153      0.2592
    144  O         42.2020   52.6020   53.3400 O.2   153  ALA153     -0.2718
    145  CB        40.2360   50.2350   52.2960 C.3   153  ALA153      0.0304
    146  N         42.0190   50.9510   54.8690 N.am  154  ASN154     -0.1974
    147  CA        42.2630   51.7930   56.0540 C.3   154  ASN154      0.1688
    148  C         43.7410   52.0220   56.4060 C.2   154  ASN154      0.2292
    149  O         44.0310   52.8260   57.2940 O.2   154  ASN154     -0.2864
    150  CB        41.5680   51.1850   57.2740 C.3   154  ASN154      0.1181
    151  CG        40.0690   51.0790   57.1020 C.2   154  ASN154      0.2629
    152  OD1       39.4300   51.9530   56.5170 O.2   154  ASN154     -0.2716
    153  ND2       39.4990   50.0010   57.6120 N.am  154  ASN154     -0.0877
    154  N         46.7280   53.7870   55.1920 N.3   156  LEU156     -0.1245
    155  CA        47.1500   54.8320   54.2610 C.3   156  LEU156      0.1561
    156  C         48.6650   54.9440   54.2540 C.2   156  LEU156      0.2260
    157  O         49.3150   54.5880   55.2300 O.2   156  LEU156     -0.2867
    158  CB        46.5420   56.1830   54.6490 C.3   156  LEU156      0.0270
    159  CG        45.0690   56.2050   55.0560 C.3   156  LEU156      0.0019
    160  CD1       44.6210   57.6410   55.2510 C.3   156  LEU156      0.0001
    161  CD2       44.1860   55.5020   54.0330 C.3   156  LEU156      0.0001
    162  N         43.9260   54.7230   59.5040 N.3   170  ALA170     -0.1231
    163  CA        42.7030   55.5270   59.4030 C.3   170  ALA170      0.1694
    164  C         41.4610   54.7270   59.7700 C.2   170  ALA170      0.2592
    165  O         41.4980   53.4990   59.8220 O.2   170  ALA170     -0.2718
    166  CB        42.5600   56.0730   57.9860 C.3   170  ALA170      0.0304
    167  N         40.3740   55.4500   60.0430 N.am  171  ASP171     -0.1974
    168  CA        39.0170   54.8900   60.1070 C.3   171  ASP171      0.1709
    169  C         38.8460   53.8040   61.1730 C.2   171  ASP171      0.2293
    170  O         38.4200   52.6890   60.8750 O.2   171  ASP171     -0.2864
    171  CB        38.6160   54.3680   58.7120 C.3   171  ASP171      0.1436
    172  CG        37.1260   54.0350   58.5900 C.2   171  ASP171      0.3671
    173  OD1       36.2900   54.5970   59.3330 O.co2 171  ASP171     -0.2456
    174  OD2       36.7950   53.1990   57.7210 O.co2 171  ASP171     -0.2456
    175  N         45.5080   60.1530   43.4220 N.3   337  ARG337     -0.1245
    176  CA        44.0650   59.9080   43.5250 C.3   337  ARG337      0.1563
    177  C         43.3000   60.6650   42.4470 C.2   337  ARG337      0.2260
    178  O         43.5300   61.8570   42.2510 O.2   337  ARG337     -0.2867
    179  CB        43.5300   60.3440   44.8870 C.3   337  ARG337      0.0307
    180  CG        44.1250   59.6040   46.0640 C.3   337  ARG337      0.0489
    181  CD        43.2570   59.7800   47.2950 C.3   337  ARG337      0.2205
    182  NE        43.8240   59.1300   48.4740 N.pl3 337  ARG337     -0.0865
    183  CZ        43.8000   57.8180   48.7180 C.cat 337  ARG337      0.5346
    184  NH1       43.2380   56.9620   47.8620 N.pl3 337  ARG337      0.1354
    185  NH2       44.3510   57.3540   49.8360 N.pl3 337  ARG337      0.1354
    186  N         36.4590   62.5530   41.9070 N.3   340  LEU340     -0.1245
    187  CA        35.1040   62.0800   41.6250 C.3   340  LEU340      0.1561
    188  C         34.2160   63.2930   41.3300 C.2   340  LEU340      0.2260
    189  O         33.7780   63.9960   42.2440 O.2   340  LEU340     -0.2867
    190  CB        34.5640   61.2590   42.8070 C.3   340  LEU340      0.0270
    191  CG        35.4720   60.1510   43.3620 C.3   340  LEU340      0.0019
    192  CD1       34.7360   59.3680   44.4390 C.3   340  LEU340      0.0001
    193  CD2       35.9760   59.2010   42.2790 C.3   340  LEU340      0.0001
@<TRIPOS>BOND
     1   188   187    1
     2   188   189    2
     3   187   186    1
     4   187   190    1
     5   178   177    2
     6   193   191    1
     7   177   176    1
     8   190   191    1
     9   191   192    1
    10   175   176    1
    11   176   179    1
    12   134   133    2
    13   138   140   ar
    14   138   136   ar
    15   130   129   ar
    16   130   128   ar
    17   129   127   ar
    18   179   180    1
    19   140   139   ar
    20   133   132    1
    21   136   135    1
    22   136   137   ar
    23   128   126   ar
    24   135   132    1
    25   132   131    1
    26   127   124   ar
    27   180   181    1
    28   139   137   ar
    29     6     5    1
    30     2     1    1
    31     2     3    1
    32     2     5    1
    33     4     3    2
    34   120   119    2
    35   126   124   ar
    36   126   125   ar
    37     3     8   am
    38     5     7    1
    39   124   122   ar
    40   131   119   am
    41   103   102    1
    42   181   182    1
    43   119   118    1
    44     8     9    1
    45   125   123   ar
    46    16    17    1
    47    16    13    1
    48   184   183    1
    49     9    10    1
    50   102   101   ar
    51   102   100   ar
    52    17    18    1
    53   122   123   ar
    54   122   121    1
    55   101    99   ar
    56    12    10   am
    57    12    13    1
    58   182   183    2
    59    10    11    2
    60   183   185    1
    61   118   121    1
    62   118   117    1
    63    15    14    2
    64   116   114   ar
    65    18    19    1
    66   112   111    2
    67    13    14    1
    68    19    20    2
    69   100    98   ar
    70    38    37    2
    71   115   114   ar
    72   109   110    1
    73   114   113    1
    74    99    97   ar
    75   111   110    1
    76    20    22    1
    77    20    21    1
    78    37    36    1
    79    98    97   ar
    80   107   106    2
    81   110   113    1
    82    97    96    1
    83   106   105    1
    84    34    33    1
    85    40    39    1
    86    35    36    1
    87    36    39    1
    88    96    93    1
    89    39    41    1
    90   105   104    1
    91   105   108    1
    92   145   142    1
    93    33    32   ar
    94    33    31   ar
    95   142   141    1
    96   142   143    1
    97   104    94   am
    98    94    95    2
    99    94    93    1
   100    32    30   ar
   101    31    29   ar
   102    93    92    1
   103   144   143    2
   104    43    42    1
   105    43    46    1
   106    43    44    1
   107   143   146   am
   108   161   159    1
   109    30    28   ar
   110   156   155    1
   111   156   157    2
   112   155   158    1
   113   155   154    1
   114    92    86   am
   115    29    28   ar
   116    44    45    2
   117   158   159    1
   118   146   147    1
   119    28    27    1
   120   159   160    1
   121    47    48    1
   122    48    49    1
   123    48    51    1
   124    86    87    2
   125    86    85    1
   126    23    24    1
   127    49    50    2
   128    25    24    1
   129    25    26    2
   130   147   148    1
   131   147   150    1
   132    51    52    1
   133    27    24    1
   134    76    75    2
   135   148   149    2
   136   152   151    2
   137    52    53    1
   138    85    88    1
   139    85    84    1
   140   151   150    1
   141   151   153   am
   142    75    84   am
   143    75    74    1
   144    88    89    1
   145    53    54    1
   146   174   172   ar
   147    77    74    1
   148    77    78    1
   149    72    70    1
   150   166   163    1
   151    73    74    1
   152    54    55    1
   153    80    78   ar
   154    80    82   ar
   155    91    89   ar
   156    89    90   ar
   157   172   171    1
   158   172   173   ar
   159   171   168    1
   160    78    79   ar
   161    82    83   ar
   162    70    69    1
   163   163   162    1
   164   163   164    1
   165   164   165    2
   166   164   167   am
   167   167   168    1
   168    79    81   ar
   169   168   169    1
   170    69    71    1
   171    69    66    1
   172    83    81   ar
   173   170   169    2
   174    66    65    1
   175    66    67    1
   176    64    62   ar
   177    67    68    2
   178    63    62   ar
   179    62    61    1
   180    61    60    1
   181    60    57    1
   182    57    58    1
   183    57    56    1
   184    58    59    2
