@<TRIPOS>MOLECULE
tmp/5bnlA00.pdb
 88 82 0 0 0
SMALL
GASTEIGER

@<TRIPOS>ATOM
      1  N         -8.7380    2.2080    2.0380 N.3    57  LEU57      -0.1245
      2  CA        -7.3050    2.2630    1.7540 C.3    57  LEU57       0.1561
      3  C         -6.5740    1.0320    2.3230 C.2    57  LEU57       0.2260
      4  O         -6.7720    0.6950    3.4890 O.2    57  LEU57      -0.2867
      5  CB        -6.6990    3.5480    2.3770 C.3    57  LEU57       0.0270
      6  CG        -5.1610    3.6670    2.4820 C.3    57  LEU57       0.0019
      7  CD1       -4.5190    3.7200    1.1180 C.3    57  LEU57       0.0001
      8  CD2       -4.6960    4.8550    3.3290 C.3    57  LEU57       0.0001
      9  N         -3.1150    0.2780    3.5210 N.3    59  ASN59      -0.1240
     10  CA        -2.0270    1.1390    4.0040 C.3    59  ASN59       0.1653
     11  C         -0.7850    0.3240    4.2640 C.2    59  ASN59       0.2266
     12  O          0.1540    0.7940    4.8910 O.2    59  ASN59      -0.2867
     13  CB        -2.4440    1.9340    5.2530 C.3    59  ASN59       0.1155
     14  CG        -2.7900    1.0430    6.4600 C.2    59  ASN59       0.2627
     15  OD1       -2.3870   -0.1310    6.5570 O.2    59  ASN59      -0.2716
     16  ND2       -3.5410    1.6170    7.3910 N.am   59  ASN59      -0.0877
     17  N         -0.4870   -2.2820    6.1740 N.3    61  HIS61      -0.1241
     18  CA        -0.6860   -3.1580    7.3450 C.3    61  HIS61       0.1621
     19  C         -2.1150   -3.6640    7.5360 C.2    61  HIS61       0.2264
     20  O         -2.3170   -4.7540    8.0630 O.2    61  HIS61      -0.2867
     21  CB        -0.1510   -2.5610    8.6550 C.3    61  HIS61       0.0745
     22  CG        -0.5020   -1.1280    8.8780 C.ar   61  HIS61       0.0817
     23  ND1        0.3370   -0.0960    8.5070 N.ar   61  HIS61      -0.2268
     24  CD2       -1.5690   -0.5490    9.4850 C.ar   61  HIS61       0.1154
     25  CE1       -0.2170    1.0590    8.8420 C.ar   61  HIS61       0.1986
     26  NE2       -1.3680    0.8130    9.4460 N.ar   61  HIS61      -0.2212
     27  N         -8.1440    0.6140    5.8690 N.3    64  ASN64      -0.1240
     28  CA        -8.9770    1.5720    6.5980 C.3    64  ASN64       0.1653
     29  C        -10.2020    2.0510    5.8180 C.2    64  ASN64       0.2266
     30  O        -10.0860    2.5380    4.6810 O.2    64  ASN64      -0.2867
     31  CB        -8.1770    2.8040    7.0440 C.3    64  ASN64       0.1155
     32  CG        -7.1090    2.4900    8.0730 C.2    64  ASN64       0.2627
     33  OD1       -6.2600    3.3430    8.3630 O.2    64  ASN64      -0.2716
     34  ND2       -7.1270    1.2790    8.6220 N.am   64  ASN64      -0.0877
     35  N        -12.5330    4.9880    5.7810 N.3    66  GLU66      -0.1245
     36  CA       -12.4270    6.3450    6.3240 C.3    66  GLU66       0.1567
     37  C        -13.7360    7.0920    6.2300 C.2    66  GLU66       0.2260
     38  O        -14.5020    6.8790    5.2910 O.2    66  GLU66      -0.2867
     39  CB       -11.3720    7.1090    5.5650 C.3    66  GLU66       0.0388
     40  CG       -10.0860    6.3370    5.3910 C.3    66  GLU66       0.1160
     41  CD        -9.2980    6.8470    4.2150 C.2    66  GLU66       0.3649
     42  OE1       -9.9100    7.5690    3.4100 O.co2  66  GLU66      -0.2457
     43  OE2       -8.1000    6.5170    4.0830 O.co2  66  GLU66      -0.2457
     44  N        -13.7740    8.3770   12.8760 N.3    88  ILE88      -0.1231
     45  CA       -12.8310    8.7400   11.7980 C.3    88  ILE88       0.1692
     46  C        -12.5600    7.6050   10.7850 C.2    88  ILE88       0.2591
     47  O        -12.5280    7.8520    9.5700 O.2    88  ILE88      -0.2718
     48  CB       -11.4930    9.4080   12.3180 C.3    88  ILE88       0.0266
     49  CG1      -10.5950    9.8320   11.1380 C.3    88  ILE88       0.0019
     50  CG2      -10.7560    8.5380   13.3420 C.3    88  ILE88       0.0020
     51  CD1       -9.7540   11.0080   11.4250 C.3    88  ILE88       0.0001
     52  N        -12.3480    6.3870   11.2960 N.am   89  GLN89      -0.1979
     53  CA       -12.1550    5.2050   10.4560 C.3    89  GLN89       0.1601
     54  C        -12.4110    3.8990   11.1820 C.2    89  GLN89       0.2287
     55  O        -12.3560    3.8240   12.4130 O.2    89  GLN89      -0.2864
     56  CB       -10.7620    5.1610    9.7750 C.3    89  GLN89       0.0394
     57  CG        -9.5490    5.4020   10.6640 C.3    89  GLN89       0.0908
     58  CD        -8.9490    4.1370   11.2600 C.2    89  GLN89       0.2608
     59  OE1       -9.4690    3.0220   11.0930 O.2    89  GLN89      -0.2717
     60  NE2       -7.8580    4.3100   12.0040 N.am   89  GLN89      -0.0878
     61  N        -11.0660   -0.3640   10.8560 N.3    91  HIS91      -0.1241
     62  CA       -10.1470   -1.3210   10.2750 C.3    91  HIS91       0.1621
     63  C        -10.2450   -2.5890   11.1080 C.2    91  HIS91       0.2264
     64  O        -10.9250   -2.6070   12.1410 O.2    91  HIS91      -0.2867
     65  CB        -8.7090   -0.7980   10.2750 C.3    91  HIS91       0.0745
     66  CG        -8.1630   -0.5540   11.6400 C.ar   91  HIS91       0.0817
     67  ND1       -8.2970    0.6520   12.2910 N.ar   91  HIS91      -0.2268
     68  CD2       -7.5200   -1.3780   12.5010 C.ar   91  HIS91       0.1154
     69  CE1       -7.7310    0.5710   13.4820 C.ar   91  HIS91       0.1986
     70  NE2       -7.2500   -0.6490   13.6300 N.ar   91  HIS91      -0.2212
     71  N         -8.2400   15.1710   14.9120 N.3   127  PHE127     -0.1241
     72  CA        -7.6310   13.8880   15.2960 C.3   127  PHE127      0.1605
     73  C         -6.1990   14.0640   15.7960 C.2   127  PHE127      0.2264
     74  O         -5.8610   13.5950   16.8840 O.2   127  PHE127     -0.2867
     75  CB        -7.6630   12.8920   14.1270 C.3   127  PHE127      0.0534
     76  CG        -7.0580   11.5750   14.4400 C.ar  127  PHE127     -0.0203
     77  CD1       -5.7410   11.3030   14.1020 C.ar  127  PHE127     -0.0042
     78  CD2       -7.8190   10.5720   15.0560 C.ar  127  PHE127     -0.0042
     79  CE1       -5.1750   10.0650   14.3740 C.ar  127  PHE127     -0.0003
     80  CE2       -7.2670    9.3240   15.3380 C.ar  127  PHE127     -0.0003
     81  CZ        -5.9430    9.0630   15.0130 C.ar  127  PHE127     -0.0000
     82  N         -1.0650    0.0450   16.9910 N.3   196  THR196     -0.1218
     83  CA        -0.0090    0.1940   15.9890 C.3   196  THR196      0.1862
     84  C          0.8670    1.4050   16.2950 C.2   196  THR196      0.2287
     85  O          0.3970    2.3700   16.9310 O.2   196  THR196     -0.2866
     86  CB        -0.5930    0.3310   14.5680 C.3   196  THR196      0.1770
     87  OG1       -1.4520    1.4750   14.5110 O.3   196  THR196     -0.2211
     88  CG2       -1.3870   -0.9270   14.1990 C.3   196  THR196      0.0375
@<TRIPOS>BOND
     1     7     6    1
     2     2     1    1
     3     2     3    1
     4     2     5    1
     5     3     4    2
     6     5     6    1
     7     6     8    1
     8    42    41   ar
     9     9    10    1
    10    10    11    1
    11    10    13    1
    12    43    41   ar
    13    41    40    1
    14    11    12    2
    15    30    29    2
    16    13    14    1
    17    38    37    2
    18    40    39    1
    19    39    36    1
    20    35    36    1
    21    29    28    1
    22    27    28    1
    23    17    18    1
    24    37    36    1
    25    14    15    2
    26    14    16   am
    27    28    31    1
    28    31    32    1
    29    18    19    1
    30    18    21    1
    31    19    20    2
    32    32    33    2
    33    32    34   am
    34    23    25   ar
    35    23    22   ar
    36    21    22    1
    37    25    26   ar
    38    22    24   ar
    39    26    24   ar
    40    47    46    2
    41    56    53    1
    42    56    57    1
    43    65    62    1
    44    65    66    1
    45    62    61    1
    46    62    63    1
    47    53    54    1
    48    53    52    1
    49    57    58    1
    50    46    52   am
    51    46    45    1
    52    59    58    2
    53    63    64    2
    54    49    51    1
    55    49    48    1
    56    54    55    2
    57    58    60   am
    58    66    67   ar
    59    66    68   ar
    60    45    48    1
    61    45    44    1
    62    67    69   ar
    63    48    50    1
    64    68    70   ar
    65    69    70   ar
    66    77    79   ar
    67    77    76   ar
    68    75    76    1
    69    75    72    1
    70    88    86    1
    71    79    81   ar
    72    76    78   ar
    73    87    86    1
    74    86    83    1
    75    71    72    1
    76    81    80   ar
    77    78    80   ar
    78    72    73    1
    79    73    74    2
    80    83    84    1
    81    83    82    1
    82    84    85    2
