@<TRIPOS>MOLECULE
tmp/5bnnC00.pdb
 82 78 0 0 0
SMALL
GASTEIGER

@<TRIPOS>ATOM
      1  N        -42.4180  -36.4340  123.0570 N.3    90  LEU90      -0.1231
      2  CA       -42.8450  -36.7940  124.4110 C.3    90  LEU90       0.1693
      3  C        -41.7080  -36.7020  125.4170 C.2    90  LEU90       0.2592
      4  O        -40.5380  -36.6650  125.0340 O.2    90  LEU90      -0.2718
      5  CB       -43.3970  -38.2190  124.4260 C.3    90  LEU90       0.0284
      6  CG       -44.4640  -38.5350  123.3820 C.3    90  LEU90       0.0019
      7  CD1      -44.8530  -40.0040  123.4840 C.3    90  LEU90       0.0001
      8  CD2      -45.6720  -37.6250  123.5950 C.3    90  LEU90       0.0001
      9  N        -42.0510  -36.6760  126.7040 N.am   91  ASP91      -0.1974
     10  CA       -41.0340  -36.5970  127.7380 C.3    91  ASP91       0.1709
     11  C        -40.2520  -37.8980  127.7410 C.2    91  ASP91       0.2293
     12  O        -40.8290  -38.9820  127.6760 O.2    91  ASP91      -0.2864
     13  CB       -41.6630  -36.3620  129.1120 C.3    91  ASP91       0.1436
     14  CG       -40.6260  -36.0080  130.1740 C.2    91  ASP91       0.3671
     15  OD1      -39.7070  -35.2180  129.8660 O.co2  91  ASP91      -0.2456
     16  OD2      -40.7300  -36.5020  131.3160 O.co2  91  ASP91      -0.2456
     17  N        -36.3860  -35.4590  125.0210 N.3    95  ARG95      -0.1245
     18  CA       -37.1110  -34.2000  125.1720 C.3    95  ARG95       0.1563
     19  C        -36.2750  -32.9350  125.3780 C.2    95  ARG95       0.2260
     20  O        -36.4860  -31.9380  124.6820 O.2    95  ARG95      -0.2867
     21  CB       -38.1630  -34.3160  126.2840 C.3    95  ARG95       0.0307
     22  CG       -39.1330  -33.1320  126.3360 C.3    95  ARG95       0.0489
     23  CD       -38.7600  -32.1360  127.4250 C.3    95  ARG95       0.2205
     24  NE       -38.9660  -32.7130  128.7520 N.pl3  95  ARG95      -0.0865
     25  CZ       -38.7080  -32.0890  129.8960 C.cat  95  ARG95       0.5346
     26  NH1      -38.2250  -30.8520  129.8920 N.pl3  95  ARG95       0.1354
     27  NH2      -38.9430  -32.7010  131.0500 N.pl3  95  ARG95       0.1354
     28  N        -40.9690  -29.6140  119.8350 N.3   104  ARG104     -0.1245
     29  CA       -42.1400  -29.4910  120.6810 C.3   104  ARG104      0.1563
     30  C        -42.8610  -28.1470  120.5840 C.2   104  ARG104      0.2260
     31  O        -43.8270  -27.9060  121.3040 O.2   104  ARG104     -0.2867
     32  CB       -41.7820  -29.8510  122.1250 C.3   104  ARG104      0.0307
     33  CG       -41.7430  -31.3730  122.3350 C.3   104  ARG104      0.0489
     34  CD       -40.8490  -31.7940  123.4890 C.3   104  ARG104      0.2205
     35  NE       -41.3890  -31.4340  124.7950 N.pl3 104  ARG104     -0.0865
     36  CZ       -42.3460  -32.1070  125.4250 C.cat 104  ARG104      0.5346
     37  NH1      -42.7650  -31.6970  126.6130 N.pl3 104  ARG104      0.1354
     38  NH2      -42.8780  -33.1910  124.8780 N.pl3 104  ARG104      0.1354
     39  N        -47.7830  -35.5440  117.0540 N.3   178  PHE178     -0.1241
     40  CA       -47.9540  -35.7280  118.4830 C.3   178  PHE178      0.1605
     41  C        -49.4480  -35.6100  118.7710 C.2   178  PHE178      0.2264
     42  O        -50.1440  -34.7940  118.1580 O.2   178  PHE178     -0.2867
     43  CB       -47.1950  -34.6480  119.2490 C.3   178  PHE178      0.0534
     44  CG       -47.7320  -34.3920  120.6310 C.ar  178  PHE178     -0.0203
     45  CD1      -48.8630  -33.5920  120.8180 C.ar  178  PHE178     -0.0042
     46  CD2      -47.1130  -34.9570  121.7510 C.ar  178  PHE178     -0.0042
     47  CE1      -49.3730  -33.3570  122.1000 C.ar  178  PHE178     -0.0003
     48  CE2      -47.6090  -34.7320  123.0380 C.ar  178  PHE178     -0.0003
     49  CZ       -48.7420  -33.9300  123.2150 C.ar  178  PHE178     -0.0000
     50  N        -50.4020  -36.9250  122.1920 N.3   180  SER180     -0.1217
     51  CA       -50.3160  -37.4150  123.5620 C.3   180  SER180      0.1889
     52  C        -50.6490  -38.8980  123.7130 C.2   180  SER180      0.2288
     53  O        -51.0730  -39.3410  124.7770 O.2   180  SER180     -0.2866
     54  CB       -51.1980  -36.5810  124.4980 C.3   180  SER180      0.2089
     55  OG       -52.5700  -36.7870  124.2270 O.3   180  SER180     -0.2183
     56  N        -45.1210  -27.2520  125.6690 N.3   231  PRO231     -0.2102
     57  CA       -45.5780  -27.8650  126.9210 C.3   231  PRO231      0.1504
     58  C        -44.4830  -27.7960  127.9840 C.2   231  PRO231      0.2576
     59  O        -44.7220  -28.0850  129.1540 O.2   231  PRO231     -0.2718
     60  CB       -45.8420  -29.3240  126.5290 C.3   231  PRO231      0.0282
     61  CG       -45.8150  -29.3340  125.0150 C.3   231  PRO231      0.0208
     62  CD       -44.8160  -28.2870  124.6690 C.3   231  PRO231      0.0893
     63  N        -43.2820  -27.4130  127.5650 N.am  232  ASP232     -0.1960
     64  CA       -42.1390  -27.3660  128.4640 C.3   232  ASP232      0.1840
     65  C        -41.9990  -26.1500  129.3650 C.2   232  ASP232      0.2622
     66  O        -41.0540  -26.0670  130.1470 O.2   232  ASP232     -0.2715
     67  CB       -40.8580  -27.5640  127.6560 C.3   232  ASP232      0.1450
     68  CG       -40.8300  -28.9040  126.9500 C.2   232  ASP232      0.3671
     69  OD1      -41.1170  -29.9210  127.6160 O.co2 232  ASP232     -0.2456
     70  OD2      -40.5250  -28.9490  125.7380 O.co2 232  ASP232     -0.2456
     71  N        -42.9280  -25.2090  129.2670 N.am  233  ILE233     -0.1963
     72  CA       -42.8730  -24.0220  130.1090 C.3   233  ILE233      0.1727
     73  C        -44.3070  -23.5930  130.4300 C.2   233  ILE233      0.2616
     74  O        -45.2100  -23.7460  129.6020 O.2   233  ILE233     -0.2715
     75  CB       -42.1110  -22.8640  129.3990 C.3   233  ILE233      0.0290
     76  CG1      -41.6450  -21.8290  130.4260 C.3   233  ILE233      0.0022
     77  CG2      -43.0010  -22.1980  128.3480 C.3   233  ILE233      0.0023
     78  CD1      -40.4910  -22.2960  131.2930 C.3   233  ILE233      0.0001
     79  N        -44.5140  -23.0790  131.6380 N.am  234  GLY234     -0.1955
     80  CA       -45.8380  -22.6410  132.0400 C.3   234  GLY234      0.1869
     81  C        -45.8170  -21.8420  133.3290 C.2   234  GLY234      0.2309
     82  O        -44.8300  -21.8590  134.0650 O.2   234  GLY234     -0.2863
@<TRIPOS>BOND
     1    39    40    1
     2    42    41    2
     3    40    41    1
     4    40    43    1
     5    43    44    1
     6    28    29    1
     7    30    29    1
     8    30    31    2
     9    44    45   ar
    10    44    46   ar
    11    29    32    1
    12    45    47   ar
    13    46    48   ar
    14    47    49   ar
    15    32    33    1
    16    50    51    1
    17    33    34    1
    18    48    49   ar
    19     1     2    1
    20     6     7    1
    21     6     8    1
    22     6     5    1
    23    34    35    1
    24    51    52    1
    25    51    54    1
    26    52    53    2
    27    55    54    1
    28     2     5    1
    29     2     3    1
    30    62    61    1
    31    62    56    1
    32    20    19    2
    33    35    36    2
    34    38    36    1
    35    61    60    1
    36    17    18    1
    37     4     3    2
    38    18    19    1
    39    18    21    1
    40     3     9   am
    41    36    37    1
    42    56    57    1
    43    70    68   ar
    44    21    22    1
    45    22    23    1
    46    60    57    1
    47     9    10    1
    48    57    58    1
    49    68    69   ar
    50    68    67    1
    51    23    24    1
    52    63    58   am
    53    63    64    1
    54    67    64    1
    55    12    11    2
    56    10    11    1
    57    10    13    1
    58    58    59    2
    59    77    75    1
    60    64    65    1
    61    24    25    2
    62    13    14    1
    63    71    65   am
    64    71    72    1
    65    65    66    2
    66    75    72    1
    67    75    76    1
    68    74    73    2
    69    15    14   ar
    70    26    25    1
    71    25    27    1
    72    72    73    1
    73    14    16   ar
    74    76    78    1
    75    73    79   am
    76    79    80    1
    77    80    81    1
    78    81    82    2
