@<TRIPOS>MOLECULE
tmp/5bntB00.pdb
 129 127 0 0 0
SMALL
GASTEIGER

@<TRIPOS>ATOM
      1  N         -7.8230   22.6000    6.2500 N.3     8  ILE8       -0.1231
      2  CA        -9.0390   22.9010    5.5070 C.3     8  ILE8        0.1692
      3  C        -10.1630   23.2220    6.4870 C.2     8  ILE8        0.2593
      4  O        -10.3280   22.5400    7.4960 O.2     8  ILE8       -0.2718
      5  CB        -9.4270   21.7360    4.5830 C.3     8  ILE8        0.0266
      6  CG1       -8.1950   21.2210    3.8380 C.3     8  ILE8        0.0019
      7  CG2      -10.4970   22.1720    3.5950 C.3     8  ILE8        0.0020
      8  CD1       -8.4060   19.8990    3.1490 C.3     8  ILE8        0.0001
      9  N        -10.9330   24.2630    6.1900 N.am    9  GLY9       -0.1942
     10  CA       -12.0080   24.6820    7.0710 C.3     9  GLY9        0.2014
     11  C        -11.5030   25.4350    8.2850 C.2     9  GLY9        0.2639
     12  O        -12.2000   25.5550    9.2930 O.2     9  GLY9       -0.2714
     13  N        -10.2790   25.9420    8.1820 N.am   10  TRP10      -0.1959
     14  CA        -9.6540   26.6970    9.2600 C.3    10  TRP10       0.1771
     15  C        -10.3900   28.0060    9.5280 C.2    10  TRP10       0.2620
     16  O        -10.4160   28.4950   10.6570 O.2    10  TRP10      -0.2715
     17  CB        -8.1910   26.9830    8.9180 C.3    10  TRP10       0.0590
     18  CG        -8.0240   27.6490    7.5870 C.ar   10  TRP10       0.0006
     19  CD1       -7.8540   27.0360    6.3790 C.ar   10  TRP10       0.0946
     20  CD2       -8.0210   29.0580    7.3250 C.ar   10  TRP10       0.0152
     21  NE1       -7.7410   27.9750    5.3830 N.ar   10  TRP10      -0.2442
     22  CE2       -7.8400   29.2240    5.9380 C.ar   10  TRP10       0.0810
     23  CE3       -8.1500   30.1950    8.1290 C.ar   10  TRP10       0.0012
     24  CZ2       -7.7870   30.4800    5.3370 C.ar   10  TRP10       0.0191
     25  CZ3       -8.0960   31.4400    7.5300 C.ar   10  TRP10       0.0001
     26  CH2       -7.9160   31.5730    6.1490 C.ar   10  TRP10       0.0015
     27  N        -10.9860   28.5660    8.4810 N.am   11  ARG11      -0.1963
     28  CA       -11.6570   29.8570    8.5770 C.3    11  ARG11       0.1729
     29  C        -13.0190   29.7250    9.2560 C.2    11  ARG11       0.2617
     30  O        -13.5330   30.6890    9.8250 O.2    11  ARG11      -0.2715
     31  CB       -11.8100   30.4760    7.1860 C.3    11  ARG11       0.0348
     32  CG       -12.1480   31.9570    7.1890 C.3    11  ARG11       0.0492
     33  CD       -11.9910   32.5530    5.7990 C.3    11  ARG11       0.2205
     34  NE       -12.9080   31.9530    4.8350 N.pl3  11  ARG11      -0.0865
     35  CZ       -14.0300   32.5280    4.4120 C.cat  11  ARG11       0.5346
     36  NH1      -14.3750   33.7260    4.8630 N.pl3  11  ARG11       0.1354
     37  NH2      -14.8040   31.9060    3.5330 N.pl3  11  ARG11       0.1354
     38  N        -13.5930   28.5270    9.2010 N.am   12  GLY12      -0.1940
     39  CA       -14.8650   28.2570    9.8490 C.3    12  GLY12       0.2014
     40  C        -14.7800   28.3390   11.3610 C.2    12  GLY12       0.2639
     41  O        -13.7060   28.5700   11.9130 O.2    12  GLY12      -0.2714
     42  N        -15.9090   28.1390   12.0340 N.am   13  MET13      -0.1963
     43  CA       -15.9700   28.2960   13.4850 C.3    13  MET13       0.1736
     44  C        -15.1280   27.2650   14.2330 C.2    13  MET13       0.2616
     45  O        -14.2570   27.6270   15.0260 O.2    13  MET13      -0.2715
     46  CB       -17.4170   28.2180   13.9700 C.3    13  MET13       0.0427
     47  CG       -17.5490   28.3410   15.4770 C.3    13  MET13       0.0599
     48  SD       -19.2580   28.3720   16.0370 S.3    13  MET13      -0.1393
     49  CE       -19.7920   26.7170   15.6160 C.3    13  MET13       0.0692
     50  N        -15.4020   25.9860   13.9890 N.am   14  VAL14      -0.1963
     51  CA       -14.6540   24.9060   14.6230 C.3    14  VAL14       0.1727
     52  C        -13.1790   25.0320   14.2650 C.2    14  VAL14       0.2616
     53  O        -12.3040   24.8640   15.1150 O.2    14  VAL14      -0.2715
     54  CB       -15.2060   23.5250   14.2190 C.3    14  VAL14       0.0290
     55  CG1      -14.3050   22.4190   14.7410 C.3    14  VAL14       0.0023
     56  CG2      -16.6220   23.3460   14.7460 C.3    14  VAL14       0.0023
     57  N        -12.9140   25.3450   13.0010 N.am   15  GLY15      -0.1955
     58  CA       -11.5580   25.5720   12.5410 C.3    15  GLY15       0.1869
     59  C        -10.8890   26.7400   13.2380 C.2    15  GLY15       0.2309
     60  O         -9.6850   26.7110   13.4880 O.2    15  GLY15      -0.2863
     61  N         -5.6560   25.5890    2.8500 N.3    36  PHE36      -0.1227
     62  CA        -6.4710   25.4530    1.6510 C.3    36  PHE36       0.1736
     63  C         -7.7850   26.2120    1.7840 C.2    36  PHE36       0.2596
     64  O         -8.2090   26.5540    2.8880 O.2    36  PHE36      -0.2718
     65  CB        -6.7420   23.9780    1.3540 C.3    36  PHE36       0.0547
     66  CG        -5.5430   23.2350    0.8480 C.ar   36  PHE36      -0.0202
     67  CD1       -4.5910   22.7470    1.7280 C.ar   36  PHE36      -0.0042
     68  CD2       -5.3650   23.0230   -0.5080 C.ar   36  PHE36      -0.0042
     69  CE1       -3.4860   22.0650    1.2630 C.ar   36  PHE36      -0.0003
     70  CE2       -4.2620   22.3400   -0.9790 C.ar   36  PHE36      -0.0003
     71  CZ        -3.3210   21.8600   -0.0920 C.ar   36  PHE36      -0.0000
     72  N         -8.4250   26.4660    0.6490 N.am   37  THR37      -0.1939
     73  CA        -9.6520   27.2490    0.6130 C.3    37  THR37       0.2028
     74  C        -10.5800   26.7690   -0.4950 C.2    37  THR37       0.2643
     75  O        -10.1410   26.1440   -1.4610 O.2    37  THR37      -0.2714
     76  CB        -9.3550   28.7410    0.4010 C.3    37  THR37       0.1808
     77  OG1      -10.5850   29.4630    0.2580 O.3    37  THR37      -0.2208
     78  CG2       -8.5180   28.9290   -0.8490 C.3    37  THR37       0.0379
     79  N        -11.8640   27.0740   -0.3530 N.am   38  THR38      -0.1936
     80  CA       -12.8510   26.6990   -1.3560 C.3    38  THR38       0.2028
     81  C        -13.4800   27.9350   -1.9870 C.2    38  THR38       0.2642
     82  O        -14.5210   27.8450   -2.6370 O.2    38  THR38      -0.2714
     83  CB       -13.9620   25.8170   -0.7520 C.3    38  THR38       0.1808
     84  OG1      -14.6490   26.5430    0.2750 O.3    38  THR38      -0.2208
     85  CG2      -13.3720   24.5460   -0.1610 C.3    38  THR38       0.0379
     86  N        -12.8420   29.0870   -1.8000 N.am   39  SER39      -0.1949
     87  CA       -13.4050   30.3450   -2.2800 C.3    39  SER39       0.1924
     88  C        -12.3460   31.3760   -2.6710 C.2    39  SER39       0.2314
     89  O        -12.5290   32.1230   -3.6330 O.2    39  SER39      -0.2863
     90  CB       -14.3280   30.9420   -1.2150 C.3    39  SER39       0.2116
     91  OG       -13.6230   31.1870   -0.0100 O.3    39  SER39      -0.2180
     92  N        -11.8260   20.7890    8.8270 N.3    73  CYS73      -0.1221
     93  CA       -13.0430   21.1100    9.5600 C.3    73  CYS73       0.1808
     94  C        -14.0540   21.7140    8.5920 C.2    73  CYS73       0.2601
     95  O        -14.9990   22.3890    9.0000 O.2    73  CYS73      -0.2717
     96  CB       -12.7560   22.0790   10.7080 C.3    73  CYS73       0.0970
     97  SG       -11.5390   21.4880   11.9070 S.3    73  CYS73      -0.0800
     98  N        -13.8400   21.4610    7.3040 N.am   74  GLN74      -0.1979
     99  CA       -14.6430   22.0590    6.2420 C.3    74  GLN74       0.1601
    100  C        -16.0750   21.5280    6.2400 C.2    74  GLN74       0.2287
    101  O        -17.0100   22.2470    5.8860 O.2    74  GLN74      -0.2864
    102  CB       -13.9860   21.8090    4.8810 C.3    74  GLN74       0.0394
    103  CG       -14.6630   22.5100    3.7110 C.3    74  GLN74       0.0908
    104  CD       -14.4600   24.0120    3.7190 C.2    74  GLN74       0.2608
    105  OE1      -13.5370   24.5230    4.3510 O.2    74  GLN74      -0.2717
    106  NE2      -15.3250   24.7290    3.0110 N.am   74  GLN74      -0.0878
    107  N        -13.2030   16.4030   11.3160 N.3    98  ALA98      -0.1245
    108  CA       -14.1640   16.7390   12.3590 C.3    98  ALA98       0.1562
    109  C        -15.5520   16.2260   11.9950 C.2    98  ALA98       0.2260
    110  O        -16.3760   15.9620   12.8710 O.2    98  ALA98      -0.2867
    111  CB       -14.2000   18.2410   12.5850 C.3    98  ALA98       0.0290
    112  N        -24.0730   25.5660   14.6840 N.3   169  GLY169     -0.1210
    113  CA       -23.2870   26.4580   13.8510 C.3   169  GLY169      0.1956
    114  C        -23.1560   27.8760   14.3740 C.2   169  GLY169      0.2612
    115  O        -23.7890   28.2480   15.3620 O.2   169  GLY169     -0.2717
    116  N        -22.3270   28.6680   13.7010 N.am  170  ALA170     -0.1965
    117  CA       -22.0770   30.0500   14.0980 C.3   170  ALA170      0.1728
    118  C        -23.3350   30.9030   13.9810 C.2   170  ALA170      0.2616
    119  O        -23.6340   31.7080   14.8620 O.2   170  ALA170     -0.2715
    120  CB       -20.9570   30.6460   13.2570 C.3   170  ALA170      0.0334
    121  N        -24.0690   30.7190   12.8880 N.am  171  GLN171     -0.1977
    122  CA       -25.2760   31.5000   12.6330 C.3   171  GLN171      0.1601
    123  C        -26.3800   31.1830   13.6360 C.2   171  GLN171      0.2287
    124  O        -27.2530   32.0130   13.8910 O.2   171  GLN171     -0.2864
    125  CB       -25.7780   31.2530   11.2100 C.3   171  GLN171      0.0394
    126  CG       -24.7830   31.6490   10.1380 C.3   171  GLN171      0.0908
    127  CD       -24.3190   33.0840   10.2840 C.2   171  GLN171      0.2608
    128  OE1      -25.1280   33.9970   10.4550 O.2   171  GLN171     -0.2717
    129  NE2      -23.0090   33.2910   10.2280 N.am  171  GLN171     -0.0878
@<TRIPOS>BOND
     1    89    88    2
     2    88    87    1
     3    82    81    2
     4    87    86    1
     5    87    90    1
     6    81    86   am
     7    81    80    1
     8    75    74    2
     9    80    83    1
    10    80    79    1
    11    90    91    1
    12    70    68   ar
    13    70    71   ar
    14    78    76    1
    15    83    85    1
    16    83    84    1
    17    68    66   ar
    18    74    79   am
    19    74    73    1
    20    71    69   ar
    21    77    76    1
    22    76    73    1
    23    73    72    1
    24    72    63   am
    25    66    65    1
    26    66    67   ar
    27    69    67   ar
    28    65    62    1
    29    62    63    1
    30    62    61    1
    31    63    64    2
    32   106   104   am
    33     8     6    1
    34    37    35    1
    35     7     5    1
    36   103   104    1
    37   103   102    1
    38   104   105    2
    39     6     5    1
    40    35    34    2
    41    35    36    1
    42     5     2    1
    43    34    33    1
    44   102    99    1
    45    24    22   ar
    46    24    26   ar
    47    21    22   ar
    48    21    19   ar
    49     2     1    1
    50     2     3    1
    51    33    32    1
    52   101   100    2
    53    22    20   ar
    54    26    25   ar
    55     9     3   am
    56     9    10    1
    57   100    99    1
    58    99    98    1
    59    19    18   ar
    60     3     4    2
    61    10    11    1
    62    31    32    1
    63    31    28    1
    64    98    94   am
    65    20    18   ar
    66    20    23   ar
    67    25    23   ar
    68    18    17    1
    69    13    11   am
    70    13    14    1
    71    11    12    2
    72    27    28    1
    73    27    15   am
    74    28    29    1
    75    94    95    2
    76    94    93    1
    77    92    93    1
    78    17    14    1
    79    38    29   am
    80    38    39    1
    81    29    30    2
    82    14    15    1
    83    15    16    2
    84    93    96    1
    85    39    40    1
    86   126   127    1
    87   126   125    1
    88   129   127   am
    89   127   128    2
    90    96    97    1
    91   125   122    1
    92   107   108    1
    93    40    41    2
    94    40    42   am
    95   109   108    1
    96   109   110    2
    97    42    43    1
    98   108   111    1
    99    58    57    1
   100    58    59    1
   101   122   121    1
   102   122   123    1
   103   121   118   am
   104    57    52   am
   105    59    60    2
   106   120   117    1
   107    43    46    1
   108    43    44    1
   109   123   124    2
   110   116   117    1
   111   116   114   am
   112   113   114    1
   113   113   112    1
   114    46    47    1
   115   118   117    1
   116   118   119    2
   117    50    44   am
   118    50    51    1
   119    54    51    1
   120    54    55    1
   121    54    56    1
   122    44    45    2
   123    52    51    1
   124    52    53    2
   125   114   115    2
   126    47    48    1
   127    49    48    1
