@<TRIPOS>MOLECULE
tmp/5bntA00.pdb
 160 154 0 0 0
SMALL
GASTEIGER

@<TRIPOS>ATOM
      1  N        -54.0300   35.0130   48.8680 N.3     9  GLY9       -0.1210
      2  CA       -52.9640   34.9940   47.8830 C.3     9  GLY9        0.1956
      3  C        -53.4370   35.1540   46.4520 C.2     9  GLY9        0.2612
      4  O        -52.7990   34.6660   45.5200 O.2     9  GLY9       -0.2717
      5  N        -54.5580   35.8460   46.2800 N.am   10  TRP10      -0.1962
      6  CA       -55.1380   36.0720   44.9600 C.3    10  TRP10       0.1771
      7  C        -54.3150   37.0620   44.1380 C.2    10  TRP10       0.2619
      8  O        -54.3660   37.0580   42.9080 O.2    10  TRP10      -0.2715
      9  CB       -56.5750   36.5810   45.0980 C.3    10  TRP10       0.0590
     10  CG       -56.6770   37.7870   45.9850 C.ar   10  TRP10       0.0006
     11  CD1      -56.9230   37.7990   47.3270 C.ar   10  TRP10       0.0946
     12  CD2      -56.5140   39.1570   45.5950 C.ar   10  TRP10       0.0152
     13  NE1      -56.9300   39.0910   47.7950 N.ar   10  TRP10      -0.2442
     14  CE2      -56.6820   39.9430   46.7510 C.ar   10  TRP10       0.0810
     15  CE3      -56.2480   39.7940   44.3780 C.ar   10  TRP10       0.0012
     16  CZ2      -56.5910   41.3340   46.7280 C.ar   10  TRP10       0.0191
     17  CZ3      -56.1550   41.1740   44.3580 C.ar   10  TRP10       0.0001
     18  CH2      -56.3280   41.9290   45.5250 C.ar   10  TRP10       0.0015
     19  N        -53.5570   37.9090   44.8260 N.am   11  ARG11      -0.1963
     20  CA       -52.8460   39.0050   44.1750 C.3    11  ARG11       0.1729
     21  C        -51.4970   38.5620   43.6180 C.2    11  ARG11       0.2617
     22  O        -50.9800   39.1590   42.6740 O.2    11  ARG11      -0.2715
     23  CB       -52.6600   40.1660   45.1530 C.3    11  ARG11       0.0348
     24  CG       -52.2900   41.4830   44.4950 C.3    11  ARG11       0.0492
     25  CD       -52.4280   42.6370   45.4740 C.3    11  ARG11       0.2205
     26  NE       -51.5260   42.4970   46.6130 N.pl3  11  ARG11      -0.0865
     27  CZ       -50.3040   43.0170   46.6650 C.cat  11  ARG11       0.5346
     28  NH1      -49.8350   43.7200   45.6420 N.pl3  11  ARG11       0.1354
     29  NH2      -49.5520   42.8380   47.7410 N.pl3  11  ARG11       0.1354
     30  N        -50.9330   37.5090   44.2020 N.am   12  GLY12      -0.1940
     31  CA       -49.6670   36.9710   43.7380 C.3    12  GLY12       0.2014
     32  C        -49.7450   36.3700   42.3470 C.2    12  GLY12       0.2639
     33  O        -50.7820   36.4370   41.6900 O.2    12  GLY12      -0.2714
     34  N        -48.6490   35.7690   41.8970 N.am   13  MET13      -0.1963
     35  CA       -48.5780   35.2470   40.5370 C.3    13  MET13       0.1736
     36  C        -49.5100   34.0560   40.3100 C.2    13  MET13       0.2616
     37  O        -50.3130   34.0600   39.3770 O.2    13  MET13      -0.2715
     38  CB       -47.1420   34.8540   40.1920 C.3    13  MET13       0.0427
     39  CG       -46.9790   34.3300   38.7760 C.3    13  MET13       0.0599
     40  SD       -45.2590   34.2730   38.2550 S.3    13  MET13      -0.1393
     41  CE       -44.5740   33.1310   39.4530 C.3    13  MET13       0.0692
     42  N        -49.3950   33.0380   41.1580 N.am   14  VAL14      -0.1963
     43  CA       -50.2360   31.8520   41.0410 C.3    14  VAL14       0.1727
     44  C        -51.6980   32.2240   41.2620 C.2    14  VAL14       0.2616
     45  O        -52.5860   31.7560   40.5490 O.2    14  VAL14      -0.2715
     46  CB       -49.7900   30.7530   42.0240 C.3    14  VAL14       0.0290
     47  CG1      -50.8290   29.6450   42.0980 C.3    14  VAL14       0.0023
     48  CG2      -48.4340   30.1890   41.6090 C.3    14  VAL14       0.0023
     49  N        -51.9380   33.0820   42.2480 N.am   15  GLY15      -0.1955
     50  CA       -53.2790   33.5480   42.5410 C.3    15  GLY15       0.1869
     51  C        -53.9110   34.3030   41.3870 C.2    15  GLY15       0.2309
     52  O        -55.1070   34.1690   41.1330 O.2    15  GLY15      -0.2863
     53  N        -59.2780   38.1120   51.0800 N.3    36  PHE36      -0.1227
     54  CA       -58.4980   38.5030   52.2470 C.3    36  PHE36       0.1736
     55  C        -57.1510   39.0810   51.8350 C.2    36  PHE36       0.2596
     56  O        -56.7020   38.8990   50.7030 O.2    36  PHE36      -0.2718
     57  CB       -58.2930   37.3090   53.1830 C.3    36  PHE36       0.0547
     58  CG       -59.5440   36.8710   53.8900 C.ar   36  PHE36      -0.0202
     59  CD1      -60.5140   36.1420   53.2230 C.ar   36  PHE36      -0.0042
     60  CD2      -59.7480   37.1850   55.2230 C.ar   36  PHE36      -0.0042
     61  CE1      -61.6650   35.7390   53.8690 C.ar   36  PHE36      -0.0003
     62  CE2      -60.8980   36.7830   55.8770 C.ar   36  PHE36      -0.0003
     63  CZ       -61.8590   36.0600   55.1990 C.ar   36  PHE36      -0.0000
     64  N        -56.5080   39.7760   52.7660 N.am   37  THR37      -0.1939
     65  CA       -55.2410   40.4310   52.4830 C.3    37  THR37       0.2028
     66  C        -54.3170   40.4110   53.6930 C.2    37  THR37       0.2643
     67  O        -54.7680   40.3320   54.8360 O.2    37  THR37      -0.2714
     68  CB       -55.4540   41.8870   52.0510 C.3    37  THR37       0.1808
     69  OG1      -54.1850   42.5060   51.8110 O.3    37  THR37      -0.2208
     70  CG2      -56.1850   42.6460   53.1380 C.3    37  THR37       0.0379
     71  N        -53.0180   40.4890   53.4290 N.am   38  THR38      -0.1936
     72  CA       -52.0230   40.5300   54.4880 C.3    38  THR38       0.2028
     73  C        -51.3650   41.9020   54.5430 C.2    38  THR38       0.2642
     74  O        -50.4140   42.1100   55.2960 O.2    38  THR38      -0.2714
     75  CB       -50.9330   39.4590   54.2870 C.3    38  THR38       0.1808
     76  OG1      -50.1920   39.7460   53.0940 O.3    38  THR38      -0.2208
     77  CG2      -51.5540   38.0760   54.1670 C.3    38  THR38       0.0379
     78  N        -51.8770   42.8400   53.7510 N.am   39  SER39      -0.1949
     79  CA       -51.1980   44.1170   53.5720 C.3    39  SER39       0.1924
     80  C        -52.1230   45.3110   53.3330 C.2    39  SER39       0.2314
     81  O        -51.6970   46.4570   53.4670 O.2    39  SER39      -0.2863
     82  CB       -50.2150   44.0100   52.4040 C.3    39  SER39       0.2116
     83  OG       -50.8910   43.6520   51.2100 O.3    39  SER39      -0.2180
     84  N        -53.3330   30.8010   47.9780 N.3    73  CYS73      -0.1221
     85  CA       -52.0970   30.7470   47.2030 C.3    73  CYS73       0.1808
     86  C        -51.0700   31.6710   47.8510 C.2    73  CYS73       0.2601
     87  O        -50.0770   32.0530   47.2320 O.2    73  CYS73      -0.2717
     88  CB       -52.3400   31.1550   45.7470 C.3    73  CYS73       0.0970
     89  SG       -53.5270   30.1270   44.8530 S.3    73  CYS73      -0.0800
     90  N        -51.3240   32.0260   49.1080 N.am   74  GLN74      -0.1965
     91  CA       -50.5140   33.0090   49.8170 C.3    74  GLN74       0.1733
     92  C        -49.1020   32.5020   50.0980 C.2    74  GLN74       0.2617
     93  O        -48.1430   33.2720   50.0640 O.2    74  GLN74      -0.2715
     94  CB       -51.1980   33.4100   51.1270 C.3    74  GLN74       0.0408
     95  CG       -50.4800   34.5060   51.9000 C.3    74  GLN74       0.0908
     96  CD       -50.4700   35.8360   51.1720 C.2    74  GLN74       0.2608
     97  OE1      -51.3150   36.0970   50.3180 O.2    74  GLN74      -0.2717
     98  NE2      -49.5110   36.6880   51.5100 N.am   74  GLN74      -0.0878
     99  N        -48.9750   31.2100   50.3810 N.am   75  GLY75      -0.1940
    100  CA       -47.6710   30.6250   50.6280 C.3    75  GLY75       0.2014
    101  C        -47.5770   29.7500   51.8620 C.2    75  GLY75       0.2639
    102  O        -48.4850   29.7230   52.6940 O.2    75  GLY75      -0.2714
    103  N        -46.4610   29.0360   51.9790 N.am   76  GLY76      -0.1954
    104  CA       -46.2420   28.1270   53.0880 C.3    76  GLY76       0.1869
    105  C        -46.1090   28.7990   54.4410 C.2    76  GLY76       0.2309
    106  O        -46.5150   28.2410   55.4600 O.2    76  GLY76      -0.2863
    107  N        -52.1160   25.8170   47.6870 N.3    98  ALA98      -0.1231
    108  CA       -51.1130   25.6490   46.6420 C.3    98  ALA98       0.1694
    109  C        -49.7640   25.2990   47.2590 C.2    98  ALA98       0.2592
    110  O        -48.9490   24.6090   46.6450 O.2    98  ALA98      -0.2718
    111  CB       -51.0000   26.9120   45.7990 C.3    98  ALA98       0.0304
    112  N        -49.5410   25.7820   48.4790 N.am   99  ALA99      -0.1966
    113  CA       -48.2750   25.5870   49.1800 C.3    99  ALA99       0.1728
    114  C        -48.0360   24.1210   49.5260 C.2    99  ALA99       0.2616
    115  O        -48.9780   23.3480   49.6800 O.2    99  ALA99      -0.2715
    116  CB       -48.2350   26.4360   50.4410 C.3    99  ALA99       0.0334
    117  N        -46.7660   23.7540   49.6630 N.am  100  SER100     -0.1950
    118  CA       -46.3790   22.3660   49.9000 C.3   100  SER100      0.1924
    119  C        -46.5280   21.9470   51.3600 C.2   100  SER100      0.2314
    120  O        -46.3390   20.7770   51.6920 O.2   100  SER100     -0.2863
    121  CB       -44.9320   22.1420   49.4560 C.3   100  SER100      0.2116
    122  OG       -44.0380   22.8950   50.2600 O.3   100  SER100     -0.2180
    123  N        -48.8630   18.8780   52.2890 N.3   103  ARG103     -0.1245
    124  CA       -48.9250   17.8140   51.2860 C.3   103  ARG103      0.1563
    125  C        -48.7500   16.4100   51.8620 C.2   103  ARG103      0.2260
    126  O        -49.5000   15.4980   51.5150 O.2   103  ARG103     -0.2867
    127  CB       -47.8720   18.0450   50.2010 C.3   103  ARG103      0.0307
    128  CG       -48.2640   19.0820   49.1650 C.3   103  ARG103      0.0489
    129  CD       -47.1490   19.2960   48.1570 C.3   103  ARG103      0.2205
    130  NE       -47.4530   20.3870   47.2380 N.pl3 103  ARG103     -0.0865
    131  CZ       -46.5570   20.9680   46.4470 C.cat 103  ARG103      0.5346
    132  NH1      -45.2930   20.5650   46.4650 N.pl3 103  ARG103      0.1354
    133  NH2      -46.9230   21.9560   45.6420 N.pl3 103  ARG103      0.1354
    134  N        -41.3170   28.6430   38.3710 N.3   167  GLY167     -0.1225
    135  CA       -41.3650   27.7970   39.5490 C.3   167  GLY167      0.1811
    136  C        -40.6590   28.4040   40.7460 C.2   167  GLY167      0.2280
    137  O        -40.9470   28.0570   41.8910 O.2   167  GLY167     -0.2866
    138  N        -40.4140   31.8750   41.0680 N.3   169  GLY169     -0.1210
    139  CA       -41.1280   33.0980   41.3880 C.3   169  GLY169      0.1956
    140  C        -41.1060   34.1680   40.3130 C.2   169  GLY169      0.2611
    141  O        -40.4180   34.0380   39.2990 O.2   169  GLY169     -0.2717
    142  N        -41.8630   35.2360   40.5460 N.am  170  ALA170     -0.1979
    143  CA       -41.9870   36.3290   39.5880 C.3   170  ALA170      0.1597
    144  C        -40.6720   37.0840   39.4080 C.2   170  ALA170      0.2287
    145  O        -40.3060   37.4470   38.2900 O.2   170  ALA170     -0.2864
    146  CB       -43.0870   37.2860   40.0240 C.3   170  ALA170      0.0319
    147  N        -46.3530   25.5690   33.8880 N.3   352  GLN352     -0.1245
    148  CA       -46.1370   25.4320   35.3240 C.3   352  GLN352      0.1566
    149  C        -47.2020   26.1430   36.1590 C.2   352  GLN352      0.2260
    150  O        -47.4820   25.7400   37.2870 O.2   352  GLN352     -0.2867
    151  CB       -44.7430   25.9590   35.6910 C.3   352  GLN352      0.0367
    152  CG       -44.3490   25.7720   37.1510 C.3   352  GLN352      0.0905
    153  CD       -44.7420   26.9500   38.0230 C.2   352  GLN352      0.2608
    154  OE1      -44.7870   28.0890   37.5610 O.2   352  GLN352     -0.2717
    155  NE2      -45.0350   26.6780   39.2900 N.am  352  GLN352     -0.0878
    156  N        -50.0190   24.3850   38.9850 N.3   357  ALA357     -0.1245
    157  CA       -50.3080   25.2280   40.1430 C.3   357  ALA357      0.1562
    158  C        -51.7960   25.5340   40.3170 C.2   357  ALA357      0.2260
    159  O        -52.4630   24.9520   41.1720 O.2   357  ALA357     -0.2867
    160  CB       -49.5200   26.5280   40.0480 C.3   357  ALA357      0.0290
@<TRIPOS>BOND
     1   147   148    1
     2   148   151    1
     3   148   149    1
     4   151   152    1
     5   149   150    2
     6   152   153    1
     7   154   153    2
     8   153   155   am
     9    40    39    1
    10    40    41    1
    11   145   144    2
    12   134   135    1
    13    39    38    1
    14   156   157    1
    15   141   140    2
    16    37    36    2
    17   144   143    1
    18   135   136    1
    19   143   146    1
    20   143   142    1
    21   160   157    1
    22   157   158    1
    23    38    35    1
    24    36    35    1
    25    36    42   am
    26   140   142   am
    27   140   139    1
    28   158   159    2
    29    35    34    1
    30    45    44    2
    31   136   137    2
    32    43    42    1
    33    43    44    1
    34    43    46    1
    35   138   139    1
    36    52    51    2
    37    44    49   am
    38    51    50    1
    39    48    46    1
    40    33    32    2
    41    34    32   am
    42    46    47    1
    43    49    50    1
    44    32    31    1
    45    22    21    2
    46     8     7    2
    47    21    20    1
    48    21    30   am
    49    31    30    1
    50     7    19   am
    51     7     6    1
    52    20    19    1
    53    20    23    1
    54    17    15   ar
    55    17    18   ar
    56    15    12   ar
    57    24    23    1
    58    24    25    1
    59    89    88    1
    60     6     9    1
    61     6     5    1
    62     9    10    1
    63    25    26    1
    64     4     3    2
    65    18    16   ar
    66    12    10   ar
    67    12    14   ar
    68   133   131    1
    69    28    27    1
    70    88    85    1
    71   111   108    1
    72    10    11   ar
    73     5     3   am
    74   131   132    1
    75   131   130    2
    76     3     2    1
    77    26    27    2
    78   108   109    1
    79   108   107    1
    80   110   109    2
    81    27    29    1
    82    16    14   ar
    83    14    13   ar
    84    85    86    1
    85    85    84    1
    86    87    86    2
    87   130   129    1
    88   109   112   am
    89    11    13   ar
    90    86    90   am
    91     2     1    1
    92   129   128    1
    93   112   113    1
    94    90    91    1
    95   128   127    1
    96   113   114    1
    97   113   116    1
    98   121   118    1
    99   121   122    1
   100   114   117   am
   101   114   115    2
   102   117   118    1
   103    91    92    1
   104    91    94    1
   105   118   119    1
   106    93    92    2
   107    92    99   am
   108   127   124    1
   109    97    96    2
   110    99   100    1
   111   100   101    1
   112    56    55    2
   113    53    54    1
   114    94    95    1
   115    96    98   am
   116    96    95    1
   117    83    82    1
   118   124   125    1
   119   124   123    1
   120   119   120    2
   121   126   125    2
   122    69    68    1
   123    55    54    1
   124    55    64   am
   125   101   103   am
   126   101   102    2
   127   103   104    1
   128    68    65    1
   129    68    70    1
   130    54    57    1
   131    82    79    1
   132    65    64    1
   133    65    66    1
   134   104   105    1
   135    76    75    1
   136    57    58    1
   137    59    61   ar
   138    59    58   ar
   139    80    81    2
   140    80    79    1
   141    71    66   am
   142    71    72    1
   143    79    78    1
   144    66    67    2
   145    78    73   am
   146    61    63   ar
   147    58    60   ar
   148    77    75    1
   149    75    72    1
   150   105   106    2
   151    72    73    1
   152    73    74    2
   153    63    62   ar
   154    60    62   ar
