@<TRIPOS>MOLECULE
tmp/5bo2A00.pdb
 147 143 0 0 0
SMALL
GASTEIGER

@<TRIPOS>ATOM
      1  N        -13.4460  -12.3570    3.7320 N.3    61  MET61      -0.1245
      2  CA       -12.6080  -13.4960    3.3720 C.3    61  MET61       0.1570
      3  C        -12.9740  -14.0190    1.9920 C.2    61  MET61       0.2261
      4  O        -12.1010  -14.2680    1.1600 O.2    61  MET61      -0.2867
      5  CB       -12.7390  -14.6250    4.3970 C.3    61  MET61       0.0387
      6  CG       -11.8040  -14.4920    5.5810 C.3    61  MET61       0.0595
      7  SD       -11.7580  -15.9690    6.6200 S.3    61  MET61      -0.1393
      8  CE       -10.8480  -17.1150    5.5890 C.3    61  MET61       0.0692
      9  N        -13.9560  -28.0310    2.3670 N.3   106  HIS106     -0.1226
     10  CA       -13.0030  -26.9460    2.5200 C.3   106  HIS106      0.1756
     11  C        -12.3670  -27.0830    3.8910 C.2   106  HIS106      0.2636
     12  O        -13.0670  -27.1390    4.9010 O.2   106  HIS106     -0.2714
     13  CB       -13.7060  -25.5990    2.3490 C.3   106  HIS106      0.0759
     14  CG       -12.9060  -24.4180    2.8050 C.ar  106  HIS106      0.0818
     15  ND1      -13.3400  -23.5730    3.8030 N.ar  106  HIS106     -0.2268
     16  CD2      -11.7180  -23.9220    2.3830 C.ar  106  HIS106      0.1154
     17  CE1      -12.4490  -22.6130    3.9850 C.ar  106  HIS106      0.1986
     18  NE2      -11.4570  -22.8020    3.1330 N.ar  106  HIS106     -0.2212
     19  N        -11.0440  -27.1770    3.9280 N.am  107  GLY107     -0.1718
     20  CA       -10.3660  -27.3950    5.1890 C.2   107  GLY107      0.1480
     21  C         -8.8610  -27.2530    5.1400 C.2   107  GLY107      0.2820
     22  O         -8.2830  -26.8680    4.1230 O.2   107  GLY107     -0.2669
     23  N         -8.2370  -27.5910    6.2630 N.am  108  ASN108     -0.1937
     24  CA        -6.8140  -27.3830    6.4820 C.3   108  ASN108      0.1691
     25  C         -6.2020  -28.6260    7.1250 C.2   108  ASN108      0.2292
     26  O         -6.9260  -29.5460    7.5080 O.2   108  ASN108     -0.2864
     27  CB        -6.6070  -26.1550    7.3750 C.3   108  ASN108      0.1181
     28  CG        -5.2450  -25.5130    7.1980 C.2   108  ASN108      0.2629
     29  OD1       -4.3300  -26.1020    6.6240 O.2   108  ASN108     -0.2716
     30  ND2       -5.1030  -24.2940    7.7060 N.am  108  ASN108     -0.0877
     31  N         -7.6080  -24.7930    2.1670 N.3   143  ALA143     -0.1231
     32  CA        -7.7840  -23.4120    2.5910 C.3   143  ALA143      0.1679
     33  C         -6.5360  -22.5370    2.3860 C.2   143  ALA143      0.2434
     34  O         -6.6570  -21.3990    1.9250 O.2   143  ALA143     -0.2733
     35  CB        -8.2230  -23.3820    4.0360 C.3   143  ALA143      0.0304
     36  N         -5.3370  -23.0520    2.7140 N.am  144  PRO144     -0.2729
     37  CA        -4.1450  -22.2280    2.4650 C.3   144  PRO144      0.1401
     38  C         -3.9820  -21.8170    0.9960 C.2   144  PRO144      0.2269
     39  O         -3.4290  -20.7520    0.7180 O.2   144  PRO144     -0.2865
     40  CB        -2.9920  -23.1390    2.9050 C.3   144  PRO144      0.0296
     41  CG        -3.6020  -24.0530    3.9100 C.3   144  PRO144      0.0237
     42  CD        -4.9960  -24.3060    3.4120 C.3   144  PRO144      0.0939
     43  N         -7.0650  -19.1160    0.4350 N.3   147  HIS147     -0.1227
     44  CA        -7.0670  -17.9400    1.3090 C.3   147  HIS147      0.1737
     45  C         -5.6630  -17.4970    1.7070 C.2   147  HIS147      0.2438
     46  O         -5.4080  -17.2630    2.8870 O.2   147  HIS147     -0.2733
     47  CB        -7.8600  -18.2160    2.5860 C.3   147  HIS147      0.0758
     48  CG        -9.2800  -18.6220    2.3520 C.ar  147  HIS147      0.0818
     49  ND1      -10.2360  -17.7500    1.8750 N.ar  147  HIS147     -0.2268
     50  CD2       -9.9140  -19.7990    2.5560 C.ar  147  HIS147      0.1154
     51  CE1      -11.3940  -18.3770    1.7860 C.ar  147  HIS147      0.1986
     52  NE2      -11.2270  -19.6230    2.1910 N.ar  147  HIS147     -0.2212
     53  N         -4.7540  -17.3610    0.7310 N.am  148  PRO148     -0.2729
     54  CA        -3.3540  -17.0550    1.0550 C.3   148  PRO148      0.1401
     55  C         -3.1990  -15.8200    1.9470 C.2   148  PRO148      0.2269
     56  O         -2.3190  -15.7900    2.8060 O.2   148  PRO148     -0.2865
     57  CB        -2.7170  -16.8190   -0.3220 C.3   148  PRO148      0.0296
     58  CG        -3.8600  -16.5230   -1.2390 C.3   148  PRO148      0.0237
     59  CD        -5.0000  -17.3390   -0.7200 C.3   148  PRO148      0.0939
     60  N         -4.9170  -14.8720    4.3390 N.3   150  TYR150     -0.1227
     61  CA        -5.3100  -15.1580    5.7120 C.3   150  TYR150      0.1736
     62  C         -4.1380  -15.6600    6.5620 C.2   150  TYR150      0.2595
     63  O         -4.2620  -15.7920    7.7780 O.2   150  TYR150     -0.2718
     64  CB        -6.4370  -16.1930    5.6970 C.3   150  TYR150      0.0548
     65  CG        -7.0700  -16.5040    7.0330 C.ar  150  TYR150     -0.0200
     66  CD1       -8.0950  -15.7170    7.5390 C.ar  150  TYR150     -0.0009
     67  CD2       -6.6670  -17.6060    7.7720 C.ar  150  TYR150     -0.0009
     68  CE1       -8.6870  -16.0100    8.7520 C.ar  150  TYR150      0.0417
     69  CE2       -7.2490  -17.9080    8.9830 C.ar  150  TYR150      0.0417
     70  CZ        -8.2600  -17.1090    9.4690 C.ar  150  TYR150      0.1957
     71  OH        -8.8410  -17.4100   10.6780 O.3   150  TYR150     -0.2866
     72  N         -3.0000  -15.9250    5.9240 N.am  151  ARG151     -0.1980
     73  CA        -1.8810  -16.5800    6.6030 C.3   151  ARG151      0.1597
     74  C         -1.4140  -15.8200    7.8420 C.2   151  ARG151      0.2287
     75  O         -0.9940  -16.4290    8.8230 O.2   151  ARG151     -0.2864
     76  CB        -0.7020  -16.7660    5.6420 C.3   151  ARG151      0.0334
     77  CG        -0.0500  -15.4770    5.1510 C.3   151  ARG151      0.0492
     78  CD         1.0500  -15.7880    4.1380 C.3   151  ARG151      0.2205
     79  NE         1.6970  -14.5890    3.6090 N.pl3 151  ARG151     -0.0865
     80  CZ         1.2660  -13.8960    2.5590 C.cat 151  ARG151      0.5346
     81  NH1        0.1700  -14.2660    1.9070 N.pl3 151  ARG151      0.1354
     82  NH2        1.9350  -12.8230    2.1590 N.pl3 151  ARG151      0.1354
     83  N         -3.7570  -16.6220   10.4610 N.3   154  ALA154     -0.1245
     84  CA        -3.5690  -18.0140   10.8450 C.3   154  ALA154      0.1562
     85  C         -2.4420  -18.1460   11.8680 C.2   154  ALA154      0.2260
     86  O         -2.5450  -18.9160   12.8230 O.2   154  ALA154     -0.2867
     87  CB        -3.2760  -18.8690    9.6180 C.3   154  ALA154      0.0290
     88  N         -3.5390  -16.9370   15.3880 N.3   157  ARG157     -0.1231
     89  CA        -4.4220  -17.9000   16.0430 C.3   157  ARG157      0.1694
     90  C         -3.6370  -19.0300   16.7120 C.2   157  ARG157      0.2591
     91  O         -3.9690  -19.4600   17.8190 O.2   157  ARG157     -0.2718
     92  CB        -5.4120  -18.4820   15.0350 C.3   157  ARG157      0.0321
     93  CG        -6.4600  -17.4890   14.5480 C.3   157  ARG157      0.0489
     94  CD        -7.3460  -18.1110   13.4840 C.3   157  ARG157      0.2205
     95  NE        -8.0340  -19.2890   13.9980 N.pl3 157  ARG157     -0.0865
     96  CZ        -8.7100  -20.1540   13.2510 C.cat 157  ARG157      0.5346
     97  NH1       -8.7970  -19.9820   11.9390 N.pl3 157  ARG157      0.1354
     98  NH2       -9.3010  -21.1960   13.8220 N.pl3 157  ARG157      0.1354
     99  N         -2.6010  -19.5120   16.0360 N.am  158  ARG158     -0.1980
    100  CA        -1.7520  -20.5550   16.5990 C.3   158  ARG158      0.1597
    101  C         -0.9820  -20.0220   17.8030 C.2   158  ARG158      0.2287
    102  O         -0.7940  -20.7270   18.7950 O.2   158  ARG158     -0.2864
    103  CB        -0.7780  -21.0880   15.5440 C.3   158  ARG158      0.0334
    104  CG        -1.4400  -21.9240   14.4570 C.3   158  ARG158      0.0492
    105  CD        -0.4110  -22.5980   13.5640 C.3   158  ARG158      0.2205
    106  NE         0.3860  -21.6340   12.8060 N.pl3 158  ARG158     -0.0865
    107  CZ         0.1030  -21.2140   11.5730 C.cat 158  ARG158      0.5346
    108  NH1       -0.9650  -21.6660   10.9280 N.pl3 158  ARG158      0.1354
    109  NH2        0.9000  -20.3360   10.9800 N.pl3 158  ARG158      0.1354
    110  N        -12.7380  -16.4510   15.1530 N.3   166  PHE166     -0.1227
    111  CA       -12.1800  -16.9330   13.8990 C.3   166  PHE166      0.1736
    112  C        -12.4270  -18.4310   13.7170 C.2   166  PHE166      0.2595
    113  O        -12.4320  -18.9240   12.5920 O.2   166  PHE166     -0.2718
    114  CB       -10.6830  -16.6220   13.8300 C.3   166  PHE166      0.0547
    115  CG       -10.3740  -15.1590   13.6050 C.ar  166  PHE166     -0.0202
    116  CD1      -11.1130  -14.4060   12.7040 C.ar  166  PHE166     -0.0042
    117  CD2       -9.3450  -14.5400   14.2940 C.ar  166  PHE166     -0.0042
    118  CE1      -10.8330  -13.0670   12.4980 C.ar  166  PHE166     -0.0003
    119  CE2       -9.0610  -13.2000   14.0890 C.ar  166  PHE166     -0.0003
    120  CZ        -9.8080  -12.4660   13.1930 C.ar  166  PHE166     -0.0000
    121  N        -12.6530  -19.1470   14.8160 N.am  167  ASN167     -0.1974
    122  CA       -12.9390  -20.5800   14.7460 C.3   167  ASN167      0.1688
    123  C        -14.2940  -20.8770   14.0980 C.2   167  ASN167      0.2292
    124  O        -14.5880  -22.0250   13.7670 O.2   167  ASN167     -0.2864
    125  CB       -12.8980  -21.2030   16.1440 C.3   167  ASN167      0.1181
    126  CG       -11.4950  -21.2780   16.7100 C.2   167  ASN167      0.2629
    127  OD1      -10.8860  -20.2570   17.0340 O.2   167  ASN167     -0.2716
    128  ND2      -10.9770  -22.4950   16.8440 N.am  167  ASN167     -0.0877
    129  N        -15.3690  -19.3590   11.2250 N.3   169  LEU169     -0.1231
    130  CA       -15.4010  -18.9010    9.8360 C.3   169  LEU169      0.1693
    131  C        -15.1820  -19.9980    8.7970 C.2   169  LEU169      0.2592
    132  O        -15.5560  -19.8260    7.6390 O.2   169  LEU169     -0.2718
    133  CB       -14.3550  -17.8050    9.6250 C.3   169  LEU169      0.0284
    134  CG       -14.4760  -16.5710   10.5240 C.3   169  LEU169      0.0019
    135  CD1      -13.5720  -15.4640   10.0100 C.3   169  LEU169      0.0001
    136  CD2      -15.9170  -16.0880   10.6310 C.3   169  LEU169      0.0001
    137  N        -14.5720  -21.1090    9.2000 N.am  170  GLY170     -0.1957
    138  CA       -14.2890  -22.2000    8.2800 C.3   170  GLY170      0.1869
    139  C        -15.4920  -22.6190    7.4510 C.2   170  GLY170      0.2309
    140  O        -15.4420  -22.5990    6.2200 O.2   170  GLY170     -0.2863
    141  N        -16.7170  -19.8120    4.9680 N.3   173  THR173     -0.1218
    142  CA       -15.8250  -19.2500    3.9530 C.3   173  THR173      0.1862
    143  C        -15.3560  -20.3000    2.9450 C.2   173  THR173      0.2287
    144  O        -14.2640  -20.2030    2.3830 O.2   173  THR173     -0.2866
    145  CB       -14.6070  -18.5810    4.6140 C.3   173  THR173      0.1770
    146  OG1      -13.9400  -19.5190    5.4660 O.3   173  THR173     -0.2211
    147  CG2      -15.0640  -17.3960    5.4430 C.3   173  THR173      0.0375
@<TRIPOS>BOND
     1    58    59    1
     2    58    57    1
     3    59    53    1
     4    57    54    1
     5    43    44    1
     6    39    38    2
     7    53    54    1
     8    53    45   am
     9    38    37    1
    10    54    55    1
    11     4     3    2
    12    44    45    1
    13    44    47    1
    14    45    46    2
    15    51    49   ar
    16    51    52   ar
    17    49    48   ar
    18    81    80    1
    19    34    33    2
    20    55    56    2
    21     3     2    1
    22    82    80    1
    23    31    32    1
    24    52    50   ar
    25    13    10    1
    26    13    14    1
    27    48    50   ar
    28    48    47    1
    29     9    10    1
    30   144   143    2
    31    16    14   ar
    32    16    18   ar
    33    33    32    1
    34    33    36   am
    35    37    36    1
    36    37    40    1
    37    10    11    1
    38    80    79    2
    39    32    35    1
    40    36    42    1
    41    14    15   ar
    42    40    41    1
    43   143   142    1
    44    18    17   ar
    45     2     1    1
    46     2     5    1
    47    42    41    1
    48    79    78    1
    49    15    17   ar
    50    11    19    1
    51    11    12    2
    52    19    20    2
    53   142   145    1
    54   142   141    1
    55    22    21    2
    56    78    77    1
    57    60    61    1
    58     5     6    1
    59   145   147    1
    60   145   146    1
    61    21    20    1
    62    21    23   am
    63    77    76    1
    64     6     7    1
    65     8     7    1
    66    76    73    1
    67    64    61    1
    68    64    65    1
    69    61    62    1
    70    72    62   am
    71    72    73    1
    72   140   139    2
    73    23    24    1
    74    24    25    1
    75    24    27    1
    76    62    63    2
    77    73    74    1
    78    29    28    2
    79    65    66   ar
    80    65    67   ar
    81    25    26    2
    82    28    27    1
    83    28    30   am
    84   139   138    1
    85    66    68   ar
    86   132   131    2
    87    67    69   ar
    88    74    75    2
    89   138   137    1
    90    68    70   ar
    91   131   137   am
    92   131   130    1
    93    69    70   ar
    94    70    71    1
    95    87    84    1
    96   133   130    1
    97   133   134    1
    98   130   129    1
    99   135   134    1
   100    83    84    1
   101   134   136    1
   102    84    85    1
   103   108   107    1
   104   109   107    1
   105   107   106    2
   106    85    86    2
   107    97    96    1
   108   118   116   ar
   109   118   120   ar
   110   113   112    2
   111   116   115   ar
   112   106   105    1
   113   120   119   ar
   114    96    98    1
   115    96    95    2
   116    94    95    1
   117    94    93    1
   118   105   104    1
   119   115   114    1
   120   115   117   ar
   121   112   111    1
   122   112   121   am
   123   124   123    2
   124   114   111    1
   125   111   110    1
   126   119   117   ar
   127   123   122    1
   128   104   103    1
   129    93    92    1
   130   122   121    1
   131   122   125    1
   132    92    89    1
   133    88    89    1
   134   103   100    1
   135    99   100    1
   136    99    90   am
   137    89    90    1
   138   125   126    1
   139   100   101    1
   140   126   128   am
   141   126   127    2
   142    90    91    2
   143   101   102    2
