@<TRIPOS>MOLECULE
tmp/5bo3B00.pdb
 146 141 0 0 0
SMALL
GASTEIGER

@<TRIPOS>ATOM
      1  N          6.9730   -6.9030   37.4680 N.3    62  MET62      -0.1245
      2  CA         7.7040   -5.7930   36.8870 C.3    62  MET62       0.1570
      3  C          8.7310   -5.2600   37.8760 C.2    62  MET62       0.2261
      4  O          9.8930   -5.0950   37.5310 O.2    62  MET62      -0.2867
      5  CB         6.7440   -4.6840   36.4510 C.3    62  MET62       0.0387
      6  CG         6.0200   -5.0180   35.1790 C.3    62  MET62       0.0595
      7  SD         4.7960   -3.7940   34.7290 S.3    62  MET62      -0.1393
      8  CE         5.8570   -2.4070   34.3830 C.3    62  MET62       0.0692
      9  N          8.0310    8.9640   38.0750 N.3   106  HIS106     -0.1241
     10  CA         8.3220    7.8370   37.2080 C.3   106  HIS106      0.1621
     11  C          7.5670    8.0490   35.9070 C.2   106  HIS106      0.2264
     12  O          6.3490    8.2080   35.9150 O.2   106  HIS106     -0.2867
     13  CB         7.9120    6.5280   37.8870 C.3   106  HIS106      0.0745
     14  CG         7.9990    5.3300   36.9990 C.ar  106  HIS106      0.0817
     15  ND1        6.9600    4.4370   36.8530 N.ar  106  HIS106     -0.2268
     16  CD2        9.0020    4.8740   36.2100 C.ar  106  HIS106      0.1154
     17  CE1        7.3200    3.4790   36.0160 C.ar  106  HIS106      0.1986
     18  NE2        8.5560    3.7210   35.6130 N.ar  106  HIS106     -0.2212
     19  N          7.8750    8.4770   31.1450 N.3   108  ASN108     -0.1240
     20  CA         8.5110    8.3180   29.8460 C.3   108  ASN108      0.1653
     21  C          8.1280    9.4740   28.9280 C.2   108  ASN108      0.2266
     22  O          7.2560   10.2760   29.2640 O.2   108  ASN108     -0.2867
     23  CB         8.0980    6.9850   29.2170 C.3   108  ASN108      0.1155
     24  CG         8.9890    6.5790   28.0590 C.2   108  ASN108      0.2627
     25  OD1        9.8300    7.3510   27.6010 O.2   108  ASN108     -0.2716
     26  ND2        8.7980    5.3590   27.5720 N.am  108  ASN108     -0.0877
     27  N         11.4160    5.6880   32.7590 N.3   142  ALA142     -0.1231
     28  CA        10.8490    4.3410   32.7980 C.3   142  ALA142      0.1679
     29  C         11.6000    3.3510   31.9150 C.2   142  ALA142      0.2434
     30  O         11.8540    2.2280   32.3410 O.2   142  ALA142     -0.2733
     31  CB         9.3730    4.3830   32.4150 C.3   142  ALA142      0.0304
     32  N         11.9580    3.7510   30.6830 N.am  143  PRO143     -0.2718
     33  CA        12.7470    2.8210   29.8630 C.3   143  PRO143      0.1535
     34  C         14.0670    2.4000   30.5150 C.2   143  PRO143      0.2598
     35  O         14.5140    1.2690   30.3350 O.2   143  PRO143     -0.2715
     36  CB        13.0020    3.6220   28.5790 C.3   143  PRO143      0.0310
     37  CG        11.8740    4.5820   28.5060 C.3   143  PRO143      0.0237
     38  CD        11.5830    4.9600   29.9280 C.3   143  PRO143      0.0939
     39  N         14.6810    3.3000   31.2740 N.am  144  ARG144     -0.1978
     40  CA        15.9750    3.0120   31.8840 C.3   144  ARG144      0.1597
     41  C         15.8880    2.0350   33.0570 C.2   144  ARG144      0.2287
     42  O         16.8250    1.2750   33.3010 O.2   144  ARG144     -0.2864
     43  CB        16.6390    4.3030   32.3570 C.3   144  ARG144      0.0334
     44  CG        17.9830    4.0710   33.0380 C.3   144  ARG144      0.0492
     45  CD        18.9580    5.1800   32.7150 C.3   144  ARG144      0.2205
     46  NE        20.3180    4.8650   33.1420 N.pl3 144  ARG144     -0.0865
     47  CZ        21.3810    5.6020   32.8350 C.cat 144  ARG144      0.5346
     48  NH1       21.2400    6.6970   32.0960 N.pl3 144  ARG144      0.1354
     49  NH2       22.5850    5.2450   33.2640 N.pl3 144  ARG144      0.1354
     50  N         13.1110   -0.0770   33.5740 N.3   146  HIS146     -0.1227
     51  CA        12.2780   -1.2110   33.1870 C.3   146  HIS146      0.1737
     52  C         12.6260   -1.7000   31.7780 C.2   146  HIS146      0.2438
     53  O         11.7420   -1.8250   30.9310 O.2   146  HIS146     -0.2733
     54  CB        10.7960   -0.8290   33.2310 C.3   146  HIS146      0.0758
     55  CG        10.2690   -0.5540   34.6060 C.ar  146  HIS146      0.0818
     56  ND1       10.1150   -1.5380   35.5560 N.ar  146  HIS146     -0.2268
     57  CD2        9.8200    0.5930   35.1730 C.ar  146  HIS146      0.1154
     58  CE1        9.6100   -1.0070   36.6590 C.ar  146  HIS146      0.1986
     59  NE2        9.4220    0.2810   36.4510 N.ar  146  HIS146     -0.2212
     60  N         13.9130   -1.9770   31.5190 N.am  147  PRO147     -0.2729
     61  CA        14.3340   -2.3190   30.1560 C.3   147  PRO147      0.1401
     62  C         13.5640   -3.5050   29.5700 C.2   147  PRO147      0.2269
     63  O         13.2640   -3.5340   28.3770 O.2   147  PRO147     -0.2865
     64  CB        15.8210   -2.6610   30.3240 C.3   147  PRO147      0.0296
     65  CG        15.9880   -2.9910   31.7700 C.3   147  PRO147      0.0237
     66  CD        15.0150   -2.1090   32.4870 C.3   147  PRO147      0.0939
     67  N         10.5340   -4.3300   29.8860 N.3   149  TYR149     -0.1227
     68  CA         9.1320   -4.0610   29.5930 C.3   149  TYR149      0.1736
     69  C          8.9330   -3.5590   28.1550 C.2   149  TYR149      0.2595
     70  O          7.8060   -3.3080   27.7310 O.2   149  TYR149     -0.2718
     71  CB         8.5890   -3.0410   30.5940 C.3   149  TYR149      0.0548
     72  CG         7.0860   -2.8740   30.5830 C.ar  149  TYR149     -0.0200
     73  CD1        6.2540   -3.8250   31.1690 C.ar  149  TYR149     -0.0009
     74  CD2        6.5000   -1.7570   30.0110 C.ar  149  TYR149     -0.0009
     75  CE1        4.8770   -3.6670   31.1710 C.ar  149  TYR149      0.0417
     76  CE2        5.1240   -1.5910   30.0080 C.ar  149  TYR149      0.0417
     77  CZ         4.3200   -2.5440   30.5880 C.ar  149  TYR149      0.1957
     78  OH         2.9540   -2.3660   30.5800 O.3   149  TYR149     -0.2866
     79  N         10.0250   -3.4400   27.4000 N.am  150  ARG150     -0.1980
     80  CA         9.9820   -2.8050   26.0850 C.3   150  ARG150      0.1597
     81  C          9.0520   -3.5290   25.1100 C.2   150  ARG150      0.2287
     82  O          8.3990   -2.8960   24.2780 O.2   150  ARG150     -0.2864
     83  CB        11.3930   -2.7160   25.4870 C.3   150  ARG150      0.0334
     84  CG        12.0490   -4.0470   25.1330 C.3   150  ARG150      0.0492
     85  CD        13.3180   -3.8290   24.3130 C.3   150  ARG150      0.2205
     86  NE        13.9380   -5.0890   23.9050 N.pl3 150  ARG150     -0.0865
     87  CZ        14.8010   -5.7780   24.6450 C.cat 150  ARG150      0.5346
     88  NH1       15.1550   -5.3420   25.8480 N.pl3 150  ARG150      0.1354
     89  NH2       15.3100   -6.9150   24.1830 N.pl3 150  ARG150      0.1354
     90  N          5.5700   -2.5610   26.1250 N.3   153  ALA153     -0.1245
     91  CA         5.3000   -1.1670   25.7960 C.3   153  ALA153      0.1562
     92  C          5.0270   -1.0030   24.3010 C.2   153  ALA153      0.2260
     93  O          4.1550   -0.2340   23.9020 O.2   153  ALA153     -0.2867
     94  CB         6.4660   -0.2800   26.2320 C.3   153  ALA153      0.0290
     95  N          1.4470   -2.1460   23.5440 N.3   156  ARG156     -0.1231
     96  CA         0.5500   -1.0950   24.0220 C.3   156  ARG156      0.1694
     97  C          0.2270   -0.0630   22.9510 C.2   156  ARG156      0.2591
     98  O         -0.9300    0.2860   22.7230 O.2   156  ARG156     -0.2718
     99  CB         1.1750   -0.3700   25.2140 C.3   156  ARG156      0.0321
    100  CG         0.9850   -1.0480   26.5470 C.3   156  ARG156      0.0489
    101  CD         0.1510   -0.1800   27.4700 C.3   156  ARG156      0.2205
    102  NE         0.9630    0.7330   28.2740 N.pl3 156  ARG156     -0.0865
    103  CZ         0.5700    1.9400   28.6760 C.cat 156  ARG156      0.5346
    104  NH1        1.3800    2.6860   29.4160 N.pl3 156  ARG156      0.1354
    105  NH2       -0.6260    2.4100   28.3380 N.pl3 156  ARG156      0.1354
    106  N          1.2690    0.4370   22.3040 N.am  157  ARG157     -0.1980
    107  CA         1.1240    1.4870   21.3050 C.3   157  ARG157      0.1597
    108  C          0.5020    0.9600   20.0170 C.2   157  ARG157      0.2287
    109  O         -0.2570    1.6570   19.3570 O.2   157  ARG157     -0.2864
    110  CB         2.4820    2.1210   21.0070 C.3   157  ARG157      0.0334
    111  CG         3.1370    2.7620   22.2190 C.3   157  ARG157      0.0492
    112  CD         4.3960    3.5270   21.8330 C.3   157  ARG157      0.2205
    113  NE         5.4260    2.6580   21.2620 N.pl3 157  ARG157     -0.0865
    114  CZ         6.4350    2.1220   21.9460 C.cat 157  ARG157      0.5346
    115  NH1        6.5780    2.3530   23.2460 N.pl3 157  ARG157      0.1354
    116  NH2        7.3140    1.3520   21.3220 N.pl3 157  ARG157      0.1354
    117  N         -2.9370   -2.7430   31.1930 N.3   165  PHE165     -0.1241
    118  CA        -1.5370   -2.3270   31.1830 C.3   165  PHE165      0.1605
    119  C         -1.3990   -0.8340   31.4660 C.2   165  PHE165      0.2264
    120  O         -0.3730   -0.3850   31.9690 O.2   165  PHE165     -0.2867
    121  CB        -0.8690   -2.6620   29.8480 C.3   165  PHE165      0.0534
    122  CG        -0.4580   -4.1060   29.7090 C.ar  165  PHE165     -0.0203
    123  CD1       -0.9640   -5.0770   30.5520 C.ar  165  PHE165     -0.0042
    124  CD2        0.4520   -4.4850   28.7350 C.ar  165  PHE165     -0.0042
    125  CE1       -0.5800   -6.4010   30.4230 C.ar  165  PHE165     -0.0003
    126  CE2        0.8410   -5.8100   28.6030 C.ar  165  PHE165     -0.0003
    127  CZ         0.3230   -6.7640   29.4540 C.ar  165  PHE165     -0.0000
    128  N         -0.2100    0.0780   35.0200 N.3   168  LEU168     -0.1231
    129  CA         1.0290   -0.4450   35.5820 C.3   168  LEU168      0.1693
    130  C          2.0880    0.6300   35.8310 C.2   168  LEU168      0.2592
    131  O          2.9090    0.4870   36.7360 O.2   168  LEU168     -0.2718
    132  CB         1.5890   -1.5320   34.6730 C.3   168  LEU168      0.0284
    133  CG         0.7240   -2.7980   34.6030 C.3   168  LEU168      0.0019
    134  CD1        1.2370   -3.7240   33.5270 C.3   168  LEU168      0.0001
    135  CD2        0.6850   -3.5120   35.9490 C.3   168  LEU168      0.0001
    136  N          2.0580    1.7080   35.0540 N.am  169  GLY169     -0.1957
    137  CA         3.0060    2.7960   35.2420 C.3   169  GLY169      0.1869
    138  C          3.0440    3.3110   36.6720 C.2   169  GLY169      0.2309
    139  O          4.0810    3.2330   37.3430 O.2   169  GLY169     -0.2863
    140  N          4.3620    0.8560   39.3550 N.3   172  THR172     -0.1218
    141  CA         5.7070    0.2770   39.2670 C.3   172  THR172      0.1862
    142  C          6.8110    1.3340   39.2710 C.2   172  THR172      0.2287
    143  O          7.8470    1.1740   38.6260 O.2   172  THR172     -0.2866
    144  CB         5.8680   -0.5960   38.0100 C.3   172  THR172      0.1770
    145  OG1        5.6440    0.1920   36.8310 O.3   172  THR172     -0.2211
    146  CG2        4.8940   -1.7530   38.0590 C.3   172  THR172      0.0375
@<TRIPOS>BOND
     1   109   108    2
     2   108   107    1
     3   110   107    1
     4   110   111    1
     5   113   112    1
     6   113   114    2
     7   107   106    1
     8   116   114    1
     9   112   111    1
    10   114   115    1
    11   106    97   am
    12    98    97    2
    13    97    96    1
    14    95    96    1
    15    93    92    2
    16    86    85    1
    17    86    87    2
    18    96    99    1
    19    89    87    1
    20    82    81    2
    21    92    91    1
    22    85    84    1
    23    87    88    1
    24    81    80    1
    25    84    83    1
    26    99   100    1
    27    83    80    1
    28    91    90    1
    29    91    94    1
    30    80    79    1
    31   100   101    1
    32    79    69   am
    33   101   102    1
    34    26    24   am
    35    25    24    2
    36    70    69    2
    37    24    23    1
    38    69    68    1
    39   102   103    2
    40   105   103    1
    41    63    62    2
    42    37    36    1
    43    37    38    1
    44    36    33    1
    45   126   124   ar
    46   126   127   ar
    47   103   104    1
    48   124   122   ar
    49    21    22    2
    50    21    20    1
    51    23    20    1
    52   127   125   ar
    53    62    61    1
    54    68    67    1
    55    68    71    1
    56   122   121    1
    57   122   123   ar
    58    20    19    1
    59   121   118    1
    60    33    34    1
    61    33    32    1
    62    38    32    1
    63    76    74   ar
    64    76    77   ar
    65    74    72   ar
    66    61    64    1
    67    61    60    1
    68    64    65    1
    69    35    34    2
    70   125   123   ar
    71    34    39   am
    72    78    77    1
    73    72    71    1
    74    72    73   ar
    75    77    75   ar
    76    32    29   am
    77    53    52    2
    78    73    75   ar
    79   118   117    1
    80   118   119    1
    81    39    40    1
    82   119   120    2
    83    60    52   am
    84    60    66    1
    85    65    66    1
    86    52    51    1
    87    40    43    1
    88    40    41    1
    89    29    30    2
    90    29    28    1
    91    48    47    1
    92    43    44    1
    93    31    28    1
    94    45    44    1
    95    45    46    1
    96    27    28    1
    97    47    46    2
    98    47    49    1
    99    41    42    2
   100    51    54    1
   101    51    50    1
   102    54    55    1
   103   134   133    1
   104     8     7    1
   105   133   132    1
   106   133   135    1
   107    55    57   ar
   108    55    56   ar
   109   132   129    1
   110     7     6    1
   111   128   129    1
   112   136   137    1
   113   136   130   am
   114    57    59   ar
   115     6     5    1
   116   137   138    1
   117    56    58   ar
   118   129   130    1
   119    18    17   ar
   120    18    16   ar
   121   130   131    2
   122    11    12    2
   123    11    10    1
   124    17    15   ar
   125    16    14   ar
   126    59    58   ar
   127     5     2    1
   128   138   139    2
   129   145   144    1
   130    15    14   ar
   131     2     1    1
   132     2     3    1
   133    14    13    1
   134    10    13    1
   135    10     9    1
   136     4     3    2
   137   144   146    1
   138   144   141    1
   139   143   142    2
   140   141   142    1
   141   141   140    1
