@<TRIPOS>MOLECULE
tmp/5bo6B03.pdb
 154 155 0 0 0
SMALL
GASTEIGER

@<TRIPOS>ATOM
      1  N         10.8380    6.3610   15.7240 N.3    77  GLY77      -0.1210
      2  CA        10.7810    7.5790   14.9600 C.3    77  GLY77       0.1956
      3  C         12.0130    7.6700   14.0980 C.2    77  GLY77       0.2612
      4  O         12.8950    6.7850   14.1550 O.2    77  GLY77      -0.2717
      5  N         12.0810    8.7270   13.2740 N.am   78  ASN78      -0.1960
      6  CA        13.1280    8.7730   12.2520 C.3    78  ASN78       0.1819
      7  C         14.2520    9.7590   12.4860 C.2    78  ASN78       0.2622
      8  O         15.0780    9.9680   11.5730 O.2    78  ASN78      -0.2715
      9  CB        12.4510    8.9900   10.8910 C.3    78  ASN78       0.1195
     10  CG        11.7980    7.7670   10.4040 C.2    78  ASN78       0.2630
     11  OD1       12.2070    6.6570   10.7570 O.2    78  ASN78      -0.2716
     12  ND2       10.7420    7.9200    9.5970 N.am   78  ASN78      -0.0877
     13  N         14.3700   10.2970   13.7060 N.am   79  SER79      -0.1950
     14  CA        15.4260   11.2500   14.0210 C.3    79  SER79       0.1924
     15  C         16.8300   10.7540   13.7540 C.2    79  SER79       0.2314
     16  O         17.1700    9.6060   13.9720 O.2    79  SER79      -0.2863
     17  CB        15.3600   11.7100   15.4940 C.3    79  SER79       0.2116
     18  OG        16.4140   12.6140   15.8150 O.3    79  SER79      -0.2180
     19  N          8.0280    4.2590   10.8970 N.3   100  CYS100     -0.1221
     20  CA         7.3540    5.3980   10.3410 C.3   100  CYS100      0.1808
     21  C          7.8030    5.6090    8.8870 C.2   100  CYS100      0.2601
     22  O          9.0000    5.6360    8.5760 O.2   100  CYS100     -0.2717
     23  CB         7.5920    6.6950   11.1250 C.3   100  CYS100      0.0970
     24  SG         7.0380    6.5720   12.8630 S.3   100  CYS100     -0.0800
     25  N          6.8100    5.7820    8.0130 N.am  101  ASN101     -0.1974
     26  CA         7.0580    6.1890    6.6380 C.3   101  ASN101      0.1688
     27  C          7.9880    5.2710    5.8760 C.2   101  ASN101      0.2292
     28  O          8.7340    5.7180    5.1180 O.2   101  ASN101     -0.2864
     29  CB         7.4860    7.6440    6.5560 C.3   101  ASN101      0.1181
     30  CG         6.3380    8.5330    6.9210 C.2   101  ASN101      0.2629
     31  OD1        5.1890    8.3040    6.4250 O.2   101  ASN101     -0.2716
     32  ND2        6.5320    9.3950    7.9020 N.am  101  ASN101     -0.0877
     33  N          1.9130   14.4120   15.0680 N.3   211  SER211     -0.1202
     34  CA         2.8580   13.6960   14.2390 C.3   211  SER211      0.2020
     35  C          2.5500   12.1830   14.1500 C.2   211  SER211      0.2619
     36  O          1.8780   11.6030   15.0130 O.2   211  SER211     -0.2717
     37  CB         4.2450   13.8990   14.7600 C.3   211  SER211      0.2103
     38  OG         4.5540   13.0210   15.8630 O.3   211  SER211     -0.2182
     39  N          3.0100   11.5650   13.0720 N.am  212  THR212     -0.1938
     40  CA         2.9440   10.1380   12.9290 C.3   212  THR212      0.2028
     41  C          3.4860    9.4100   14.1600 C.2   212  THR212      0.2642
     42  O          2.8950    8.4260   14.6110 O.2   212  THR212     -0.2714
     43  CB         3.8110    9.7280   11.7410 C.3   212  THR212      0.1808
     44  OG1        3.2810   10.3370   10.5530 O.3   212  THR212     -0.2208
     45  CG2        3.8520    8.2450   11.6080 C.3   212  THR212      0.0379
     46  N          4.5460    9.9270   14.7710 N.am  213  GLY213     -0.1954
     47  CA         5.1190    9.2540   15.9170 C.3   213  GLY213      0.1869
     48  C          4.1710    9.1090   17.0730 C.2   213  GLY213      0.2309
     49  O          4.0540    8.0560   17.7230 O.2   213  GLY213     -0.2863
     50  N         14.3950    7.4010   18.3870 N.3   231  GLY231     -0.1210
     51  CA        14.3490    8.2570   17.2540 C.3   231  GLY231      0.1956
     52  C         13.3260    9.3810   17.3410 C.2   231  GLY231      0.2612
     53  O         12.8270    9.8740   16.2980 O.2   231  GLY231     -0.2717
     54  N         13.0020    9.7780   18.5450 N.am  232  PHE232     -0.1962
     55  CA        12.1700   10.9160   18.7890 C.3   232  PHE232      0.1771
     56  C         13.1040   11.9910   19.3340 C.2   232  PHE232      0.2620
     57  O         13.5230   11.8890   20.4900 O.2   232  PHE232     -0.2715
     58  CB        11.0890   10.6160   19.8240 C.3   232  PHE232      0.0574
     59  CG         9.9550    9.8200   19.2900 C.ar  232  PHE232     -0.0200
     60  CD1        8.6980   10.4070   19.0630 C.ar  232  PHE232     -0.0042
     61  CD2       10.1050    8.5010   19.0500 C.ar  232  PHE232     -0.0042
     62  CE1        7.6260    9.6540   18.5730 C.ar  232  PHE232     -0.0003
     63  CE2        9.0230    7.7350   18.5590 C.ar  232  PHE232     -0.0003
     64  CZ         7.8090    8.3000   18.3220 C.ar  232  PHE232     -0.0000
     65  N         13.4010   12.9930   18.5060 N.am  233  TRP233     -0.1960
     66  CA        14.3360   14.0510   18.8430 C.3   233  TRP233      0.1756
     67  C         14.2590   15.0240   17.7010 C.2   233  TRP233      0.2462
     68  O         14.9830   14.8670   16.7580 O.2   233  TRP233     -0.2730
     69  CB        15.7660   13.5230   19.0590 C.3   233  TRP233      0.0590
     70  CG        16.7650   14.6500   19.2940 C.ar  233  TRP233      0.0006
     71  CD1       17.6520   15.1520   18.4100 C.ar  233  TRP233      0.0946
     72  CD2       16.9200   15.4170   20.4920 C.ar  233  TRP233      0.0152
     73  NE1       18.3700   16.1800   18.9790 N.ar  233  TRP233     -0.2442
     74  CE2       17.9270   16.3740   20.2460 C.ar  233  TRP233      0.0810
     75  CE3       16.2480   15.4360   21.6990 C.ar  233  TRP233      0.0012
     76  CZ2       18.2920   17.3330   21.1680 C.ar  233  TRP233      0.0191
     77  CZ3       16.6540   16.3190   22.6510 C.ar  233  TRP233      0.0001
     78  CH2       17.6710   17.2770   22.3770 C.ar  233  TRP233      0.0015
     79  N         13.2970   15.9660   17.7420 N.am  234  PRO234     -0.2716
     80  CA        13.0290   16.8240   16.6330 C.3   234  PRO234      0.1536
     81  C         13.9330   18.0420   16.5560 C.2   234  PRO234      0.2598
     82  O         13.4510   19.1230   16.3800 O.2   234  PRO234     -0.2715
     83  CB        11.5780   17.2510   16.8610 C.3   234  PRO234      0.0310
     84  CG        11.4660   17.3180   18.3280 C.3   234  PRO234      0.0237
     85  CD        12.3640   16.2310   18.8550 C.3   234  PRO234      0.0939
     86  N         15.2460   17.8460   16.6170 N.am  235  PHE235     -0.1974
     87  CA        16.1990   18.9480   16.6610 C.3   235  PHE235      0.1639
     88  C         17.3860   18.6310   15.7280 C.2   235  PHE235      0.2290
     89  O         17.7940   17.4520   15.5750 O.2   235  PHE235     -0.2864
     90  CB        16.6220   19.2580   18.1130 C.3   235  PHE235      0.0560
     91  CG        15.4900   19.5490   19.0620 C.ar  235  PHE235     -0.0200
     92  CD1       14.8520   20.7810   19.0290 C.ar  235  PHE235     -0.0042
     93  CD2       15.0680   18.5920   20.0060 C.ar  235  PHE235     -0.0042
     94  CE1       13.7870   21.0570   19.8740 C.ar  235  PHE235     -0.0003
     95  CE2       14.0020   18.8690   20.8730 C.ar  235  PHE235     -0.0003
     96  CZ        13.3700   20.1180   20.8050 C.ar  235  PHE235     -0.0000
     97  N         21.5000   15.3920   11.2760 N.2   246  PRO246     -0.2571
     98  CA        20.3580   15.4670   10.3470 C.3   246  PRO246      0.2026
     99  C         18.9890   15.1500   10.9630 C.2   246  PRO246      0.2683
    100  O         18.8820   14.5550   12.0300 O.2   246  PRO246     -0.2709
    101  CB        20.6880   14.4550    9.2930 C.2   246  PRO246      0.0085
    102  CG        21.9070   13.7250    9.7400 C.2   246  PRO246      0.0180
    103  CD        22.4530   14.3150   10.9850 C.2   246  PRO246      0.0938
    104  N         17.9560   15.5990   10.2720 N.am  247  TYR247     -0.1955
    105  CA        16.5840   15.4640   10.6950 C.3   247  TYR247      0.1771
    106  C         16.2510   13.9980   10.7290 C.2   247  TYR247      0.2619
    107  O         15.6000   13.5510   11.6670 O.2   247  TYR247     -0.2715
    108  CB        15.6530   16.1890    9.7310 C.3   247  TYR247      0.0574
    109  CG        14.2510   16.3260   10.1930 C.ar  247  TYR247     -0.0198
    110  CD1       13.9340   16.7180   11.4960 C.ar  247  TYR247     -0.0009
    111  CD2       13.2070   16.0520    9.2950 C.ar  247  TYR247     -0.0009
    112  CE1       12.5960   16.8810   11.8850 C.ar  247  TYR247      0.0417
    113  CE2       11.8710   16.2130    9.6760 C.ar  247  TYR247      0.0417
    114  CZ        11.5760   16.6190   10.9750 C.ar  247  TYR247      0.1957
    115  OH        10.2600   16.7720   11.3660 O.3   247  TYR247     -0.2866
    116  N         16.7470   13.2550    9.7250 N.am  248  HIS248     -0.1973
    117  CA        16.4750   11.8470    9.5890 C.3   248  HIS248      0.1656
    118  C         17.7470   11.0380    9.6580 C.2   248  HIS248      0.2291
    119  O         18.7660   11.4090    9.0930 O.2   248  HIS248     -0.2864
    120  CB        15.7120   11.5580    8.2770 C.3   248  HIS248      0.0771
    121  CG        14.2980   12.0540    8.2770 C.ar  248  HIS248      0.0820
    122  ND1       13.6580   12.4910    7.1390 N.ar  248  HIS248     -0.2267
    123  CD2       13.3620   12.0850    9.2520 C.ar  248  HIS248      0.1154
    124  CE1       12.3930   12.7830    7.4210 C.ar  248  HIS248      0.1986
    125  NE2       12.1990   12.5680    8.7070 N.ar  248  HIS248     -0.2212
    126  N         18.4090    8.4930    7.9740 N.3   250  TYR250     -0.1241
    127  CA        18.7520    7.9330    6.6800 C.3   250  TYR250      0.1605
    128  C         19.1560    9.0240    5.7030 C.2   250  TYR250      0.2264
    129  O         19.4550    8.7160    4.5560 O.2   250  TYR250     -0.2867
    130  CB        17.6090    7.0960    6.0690 C.3   250  TYR250      0.0534
    131  CG        16.2360    7.7250    6.1610 C.ar  250  TYR250     -0.0201
    132  CD1       15.3720    7.4200    7.2460 C.ar  250  TYR250     -0.0009
    133  CD2       15.8150    8.6290    5.2610 C.ar  250  TYR250     -0.0009
    134  CE1       14.1170    8.0020    7.3450 C.ar  250  TYR250      0.0417
    135  CE2       14.5680    9.2050    5.3750 C.ar  250  TYR250      0.0417
    136  CZ        13.7400    8.8840    6.4050 C.ar  250  TYR250      0.1957
    137  OH        12.5410    9.4870    6.4770 O.3   250  TYR250     -0.2866
    138  N          6.3500   19.6200   16.7760 N.3   253  LEU253     -0.1245
    139  CA         7.2020   18.5340   17.2810 C.3   253  LEU253      0.1561
    140  C          7.9210   18.8370   18.5910 C.2   253  LEU253      0.2260
    141  O          7.9660   17.9660   19.4100 O.2   253  LEU253     -0.2867
    142  CB         8.1910   18.0320   16.2440 C.3   253  LEU253      0.0270
    143  CG         7.6260   17.1930   15.0910 C.3   253  LEU253      0.0019
    144  CD1        8.7750   16.5410   14.3550 C.3   253  LEU253      0.0001
    145  CD2        6.6530   16.1020   15.5460 C.3   253  LEU253      0.0001
    146  N          5.4960   18.0810   21.2550 N.3   256  GLU256     -0.1245
    147  CA         5.3280   16.6410   21.3850 C.3   256  GLU256      0.1567
    148  C          6.4660   16.0200   22.1540 C.2   256  GLU256      0.2260
    149  O          6.2490   15.2940   23.1540 O.2   256  GLU256     -0.2867
    150  CB         5.2370   15.9540   20.0340 C.3   256  GLU256      0.0388
    151  CG         3.9310   16.2550   19.3020 C.3   256  GLU256      0.1160
    152  CD         3.7870   15.4790   17.9770 C.2   256  GLU256      0.3649
    153  OE1        4.6090   14.5550   17.7740 O.co2 256  GLU256     -0.2457
    154  OE2        2.8070   15.7610   17.2070 O.co2 256  GLU256     -0.2457
@<TRIPOS>BOND
     1   129   128    2
     2    28    27    2
     3   133   135   ar
     4   133   131   ar
     5   135   136   ar
     6   128   127    1
     7    27    26    1
     8   130   131    1
     9   130   127    1
    10   131   132   ar
    11   136   137    1
    12   136   134   ar
    13    31    30    2
    14    29    26    1
    15    29    30    1
    16    26    25    1
    17   127   126    1
    18    30    32   am
    19   122   124   ar
    20   122   121   ar
    21   132   134   ar
    22   124   125   ar
    23    25    21   am
    24   121   120    1
    25   121   123   ar
    26   120   117    1
    27    22    21    2
    28   125   123   ar
    29    21    20    1
    30   119   118    2
    31   101   102    2
    32   101    98    1
    33   111   113   ar
    34   111   109   ar
    35   117   118    1
    36   117   116    1
    37    12    10   am
    38   113   114   ar
    39   116   106   am
    40   108   109    1
    41   108   105    1
    42   102   103    1
    43   109   110   ar
    44   104   105    1
    45   104    99   am
    46    20    19    1
    47    20    23    1
    48    98    99    1
    49    98    97    1
    50    10    11    2
    51    10     9    1
    52    44    43    1
    53   105   106    1
    54   106   107    2
    55     9     6    1
    56    99   100    2
    57   114   115    1
    58   114   112   ar
    59   103    97    2
    60    23    24    1
    61   110   112   ar
    62     8     7    2
    63    45    43    1
    64    43    40    1
    65     6     7    1
    66     6     5    1
    67     7    13   am
    68    40    39    1
    69    40    41    1
    70    39    35   am
    71     5     3   am
    72    13    14    1
    73    15    16    2
    74    15    14    1
    75    14    17    1
    76     3     4    2
    77     3     2    1
    78    35    34    1
    79    35    36    2
    80    41    42    2
    81    41    46   am
    82    34    37    1
    83    34    33    1
    84   144   143    1
    85    37    38    1
    86    46    47    1
    87     2     1    1
    88   143   145    1
    89   143   142    1
    90    17    18    1
    91    89    88    2
    92    88    87    1
    93    47    48    1
    94   142   139    1
    95    53    52    2
    96    82    81    2
    97    81    86   am
    98    81    80    1
    99    86    87    1
   100    80    83    1
   101    80    79    1
   102    87    90    1
   103    68    67    2
   104   138   139    1
   105    83    84    1
   106    48    49    2
   107   154   152   ar
   108    51    52    1
   109    51    50    1
   110   139   140    1
   111    52    54   am
   112    67    79   am
   113    67    66    1
   114    79    85    1
   115   153   152   ar
   116   152   151    1
   117    90    91    1
   118    64    63   ar
   119    64    62   ar
   120    84    85    1
   121    71    73   ar
   122    71    70   ar
   123    65    66    1
   124    65    56   am
   125    54    55    1
   126    63    61   ar
   127    62    60   ar
   128   140   141    2
   129    55    56    1
   130    55    58    1
   131    66    69    1
   132    73    74   ar
   133    92    91   ar
   134    92    94   ar
   135    61    59   ar
   136    69    70    1
   137    91    93   ar
   138    60    59   ar
   139    59    58    1
   140    70    72   ar
   141   151   150    1
   142    56    57    2
   143    94    96   ar
   144    93    95   ar
   145   150   147    1
   146    74    72   ar
   147    74    76   ar
   148    72    75   ar
   149    96    95   ar
   150    76    78   ar
   151   146   147    1
   152   147   148    1
   153    75    77   ar
   154   148   149    2
   155    78    77   ar
