@<TRIPOS>MOLECULE
tmp/5bo7B03.pdb
 175 175 0 0 0
SMALL
GASTEIGER

@<TRIPOS>ATOM
      1  N         11.0430   -6.0630  -15.4530 N.3    79  GLY79      -0.1210
      2  CA        11.0770   -7.2570  -14.7050 C.3    79  GLY79       0.1956
      3  C         12.3300   -7.3520  -13.8810 C.2    79  GLY79       0.2612
      4  O         13.2240   -6.4750  -13.9580 O.2    79  GLY79      -0.2717
      5  N         12.3980   -8.3830  -13.0260 N.am   80  ASN80      -0.1960
      6  CA        13.4780   -8.3920  -12.0010 C.3    80  ASN80       0.1819
      7  C         14.5750   -9.3810  -12.2510 C.2    80  ASN80       0.2622
      8  O         15.4440   -9.5670  -11.3630 O.2    80  ASN80      -0.2715
      9  CB        12.8540   -8.5860  -10.6180 C.3    80  ASN80       0.1195
     10  CG        12.1250   -7.3780  -10.1890 C.2    80  ASN80       0.2630
     11  OD1       12.5260   -6.2730  -10.5600 O.2    80  ASN80      -0.2716
     12  ND2       11.0640   -7.5350   -9.4110 N.am   80  ASN80      -0.0877
     13  N         14.6700   -9.8970  -13.4660 N.am   81  SER81      -0.1950
     14  CA        15.7390  -10.8070  -13.8090 C.3    81  SER81       0.1924
     15  C         17.1720  -10.3090  -13.5490 C.2    81  SER81       0.2314
     16  O         17.5330   -9.1650  -13.8360 O.2    81  SER81      -0.2863
     17  CB        15.6520  -11.2110  -15.2680 C.3    81  SER81       0.2116
     18  OG        16.7780  -12.0520  -15.6450 O.3    81  SER81      -0.2180
     19  N          8.2610   -3.9720  -10.7770 N.3   102  CYS102     -0.1221
     20  CA         7.6090   -5.1270  -10.2140 C.3   102  CYS102      0.1808
     21  C          8.0470   -5.3560   -8.7560 C.2   102  CYS102      0.2601
     22  O          9.2520   -5.4690   -8.4450 O.2   102  CYS102     -0.2717
     23  CB         7.9410   -6.3690  -10.9940 C.3   102  CYS102      0.0970
     24  SG         7.3710   -6.2930  -12.7360 S.3   102  CYS102     -0.0800
     25  N          7.0450   -5.5560   -7.8990 N.am  103  ASN103     -0.1974
     26  CA         7.2570   -6.0190   -6.5130 C.3   103  ASN103      0.1688
     27  C          8.1850   -5.1570   -5.7100 C.2   103  ASN103      0.2292
     28  O          8.9930   -5.6370   -4.9230 O.2   103  ASN103     -0.2864
     29  CB         7.6680   -7.4690   -6.4400 C.3   103  ASN103      0.1181
     30  CG         6.5620   -8.3540   -6.8330 C.2   103  ASN103      0.2629
     31  OD1        5.3970   -8.1310   -6.3940 O.2   103  ASN103     -0.2716
     32  ND2        6.8260   -9.2750   -7.7430 N.am  103  ASN103     -0.0877
     33  N         -3.8600  -14.1170   -3.9410 N.3   163  PHE163     -0.1241
     34  CA        -3.4630  -15.2520   -3.1120 C.3   163  PHE163      0.1605
     35  C         -4.0240  -15.0670   -1.7330 C.2   163  PHE163      0.2264
     36  O         -3.8130  -13.9860   -1.1470 O.2   163  PHE163     -0.2867
     37  CB        -1.9440  -15.2490   -3.0060 C.3   163  PHE163      0.0534
     38  CG        -1.2640  -15.2650   -4.3410 C.ar  163  PHE163     -0.0203
     39  CD1       -1.1820  -16.4430   -5.0860 C.ar  163  PHE163     -0.0042
     40  CD2       -0.7130  -14.0770   -4.8840 C.ar  163  PHE163     -0.0042
     41  CE1       -0.5430  -16.4680   -6.3490 C.ar  163  PHE163     -0.0003
     42  CE2       -0.0960  -14.0970   -6.1570 C.ar  163  PHE163     -0.0003
     43  CZ        -0.0160  -15.2870   -6.8720 C.ar  163  PHE163     -0.0000
     44  N         -0.8700  -16.1370  -14.6510 N.3   212  LEU212     -0.1231
     45  CA         0.0020  -15.2120  -15.3650 C.3   212  LEU212      0.1693
     46  C          0.9000  -14.4380  -14.3910 C.2   212  LEU212      0.2593
     47  O          0.4390  -14.0700  -13.3320 O.2   212  LEU212     -0.2718
     48  CB        -0.8490  -14.2290  -16.1710 C.3   212  LEU212      0.0284
     49  CG        -1.6810  -14.8530  -17.3050 C.3   212  LEU212      0.0019
     50  CD1       -2.6580  -13.7980  -17.8420 C.3   212  LEU212      0.0001
     51  CD2       -0.7860  -15.3610  -18.4160 C.3   212  LEU212      0.0001
     52  N          2.1340  -14.1320  -14.7920 N.am  213  SER213     -0.1938
     53  CA         3.0690  -13.4150  -13.9280 C.3   213  SER213      0.2055
     54  C          2.7840  -11.9140  -13.8360 C.2   213  SER213      0.2644
     55  O          2.0680  -11.3560  -14.7040 O.2   213  SER213     -0.2714
     56  CB         4.4750  -13.5970  -14.3810 C.3   213  SER213      0.2130
     57  OG         4.7890  -12.7970  -15.5310 O.3   213  SER213     -0.2179
     58  N          3.3220  -11.2960  -12.7830 N.am  214  THR214     -0.1936
     59  CA         3.2720   -9.8540  -12.6680 C.3   214  THR214      0.2028
     60  C          3.7870   -9.1380  -13.9280 C.2   214  THR214      0.2642
     61  O          3.1640   -8.1880  -14.4230 O.2   214  THR214     -0.2714
     62  CB         4.0370   -9.3730  -11.4450 C.3   214  THR214      0.1808
     63  OG1        3.4010   -9.8940  -10.2720 O.3   214  THR214     -0.2208
     64  CG2        4.0940   -7.8870  -11.4080 C.3   214  THR214      0.0379
     65  N          4.8840   -9.6310  -14.5030 N.am  215  GLY215     -0.1954
     66  CA         5.4150   -8.9840  -15.7030 C.3   215  GLY215      0.1869
     67  C          4.4450   -8.9030  -16.8740 C.2   215  GLY215      0.2309
     68  O          4.2560   -7.8420  -17.4980 O.2   215  GLY215     -0.2863
     69  N         14.6070   -6.9920  -18.1210 N.3   233  GLY233     -0.1210
     70  CA        14.5430   -7.8390  -16.9730 C.3   233  GLY233      0.1956
     71  C         13.5750   -9.0060  -17.0680 C.2   233  GLY233      0.2612
     72  O         13.1630   -9.5280  -16.0220 O.2   233  GLY233     -0.2717
     73  N         13.1970   -9.4000  -18.2740 N.am  234  PHE234     -0.1962
     74  CA        12.3990  -10.5830  -18.4960 C.3   234  PHE234      0.1771
     75  C         13.3590  -11.6380  -19.0360 C.2   234  PHE234      0.2620
     76  O         13.7940  -11.5530  -20.2120 O.2   234  PHE234     -0.2715
     77  CB        11.2960  -10.3200  -19.5400 C.3   234  PHE234      0.0574
     78  CG        10.1710   -9.4890  -19.0460 C.ar  234  PHE234     -0.0200
     79  CD1        8.9530  -10.0750  -18.7460 C.ar  234  PHE234     -0.0042
     80  CD2       10.2990   -8.1260  -18.8320 C.ar  234  PHE234     -0.0042
     81  CE1        7.8630   -9.2880  -18.2950 C.ar  234  PHE234     -0.0003
     82  CE2        9.2350   -7.3500  -18.3200 C.ar  234  PHE234     -0.0003
     83  CZ         8.0280   -7.9390  -18.0610 C.ar  234  PHE234     -0.0000
     84  N         13.6690  -12.6390  -18.2150 N.am  235  TRP235     -0.1960
     85  CA        14.5970  -13.7410  -18.5990 C.3   235  TRP235      0.1756
     86  C         14.5240  -14.7000  -17.3740 C.2   235  TRP235      0.2462
     87  O         15.2410  -14.4750  -16.3830 O.2   235  TRP235     -0.2730
     88  CB        15.9950  -13.2020  -18.8020 C.3   235  TRP235      0.0590
     89  CG        16.9860  -14.3270  -18.9910 C.ar  235  TRP235      0.0006
     90  CD1       17.9070  -14.7750  -18.1010 C.ar  235  TRP235      0.0946
     91  CD2       17.0830  -15.1570  -20.1280 C.ar  235  TRP235      0.0152
     92  NE1       18.5960  -15.8620  -18.6210 N.ar  235  TRP235     -0.2442
     93  CE2       18.1340  -16.1050  -19.8750 C.ar  235  TRP235      0.0810
     94  CE3       16.4130  -15.1880  -21.3460 C.ar  235  TRP235      0.0012
     95  CZ2       18.4760  -17.0880  -20.7890 C.ar  235  TRP235      0.0191
     96  CZ3       16.7520  -16.1210  -22.2630 C.ar  235  TRP235      0.0001
     97  CH2       17.7830  -17.0910  -21.9840 C.ar  235  TRP235      0.0015
     98  N         13.5970  -15.6560  -17.4040 N.am  236  PRO236     -0.2716
     99  CA        13.2700  -16.5060  -16.2870 C.3   236  PRO236      0.1536
    100  C         14.1540  -17.7120  -16.1510 C.2   236  PRO236      0.2598
    101  O         13.6270  -18.8170  -16.0130 O.2   236  PRO236     -0.2715
    102  CB        11.8410  -16.9510  -16.5920 C.3   236  PRO236      0.0310
    103  CG        11.7930  -17.0170  -18.0600 C.3   236  PRO236      0.0237
    104  CD        12.6660  -15.8830  -18.5120 C.3   236  PRO236      0.0939
    105  N         15.4720  -17.4970  -16.1890 N.am  237  PHE237     -0.1974
    106  CA        16.4400  -18.5960  -16.1660 C.3   237  PHE237      0.1639
    107  C         17.5860  -18.1810  -15.2990 C.2   237  PHE237      0.2290
    108  O         17.9180  -16.9970  -15.1690 O.2   237  PHE237     -0.2864
    109  CB        16.8830  -18.9670  -17.5780 C.3   237  PHE237      0.0560
    110  CG        15.7510  -19.2450  -18.5400 C.ar  237  PHE237     -0.0200
    111  CD1       15.1040  -20.4670  -18.5280 C.ar  237  PHE237     -0.0042
    112  CD2       15.3620  -18.2990  -19.4830 C.ar  237  PHE237     -0.0042
    113  CE1       14.0770  -20.7280  -19.4330 C.ar  237  PHE237     -0.0003
    114  CE2       14.3180  -18.5400  -20.3950 C.ar  237  PHE237     -0.0003
    115  CZ        13.6700  -19.7630  -20.3580 C.ar  237  PHE237     -0.0000
    116  N         18.5440  -15.1730  -10.1250 N.3   249  TYR249     -0.1227
    117  CA        17.1790  -15.0720  -10.6090 C.3   249  TYR249      0.1736
    118  C         16.7520  -13.6110  -10.5780 C.2   249  TYR249      0.2595
    119  O         16.0580  -13.1840  -11.5040 O.2   249  TYR249     -0.2718
    120  CB        16.2790  -15.9800   -9.7760 C.3   249  TYR249      0.0548
    121  CG        14.8260  -15.9420  -10.2110 C.ar  249  TYR249     -0.0200
    122  CD1       14.4210  -16.5140  -11.4450 C.ar  249  TYR249     -0.0009
    123  CD2       13.8330  -15.3630   -9.3860 C.ar  249  TYR249     -0.0009
    124  CE1       13.0750  -16.4720  -11.8690 C.ar  249  TYR249      0.0417
    125  CE2       12.4860  -15.3360   -9.7900 C.ar  249  TYR249      0.0417
    126  CZ        12.1100  -15.8960  -11.0380 C.ar  249  TYR249      0.1957
    127  OH        10.7840  -15.8360  -11.4370 O.3   249  TYR249     -0.2866
    128  N         17.2320  -12.8210   -9.5790 N.am  250  HIS250     -0.1975
    129  CA        16.9510  -11.3860   -9.4880 C.3   250  HIS250      0.1656
    130  C         18.2230  -10.5640   -9.5450 C.2   250  HIS250      0.2291
    131  O         19.2400  -10.9410   -8.9730 O.2   250  HIS250     -0.2864
    132  CB        16.2340  -11.0360   -8.1590 C.3   250  HIS250      0.0771
    133  CG        14.9120  -11.6980   -7.9860 C.ar  250  HIS250      0.0820
    134  ND1       14.6360  -12.5300   -6.9330 N.ar  250  HIS250     -0.2267
    135  CD2       13.7790  -11.6490   -8.7170 C.ar  250  HIS250      0.1154
    136  CE1       13.3770  -12.9300   -6.9940 C.ar  250  HIS250      0.1986
    137  NE2       12.8350  -12.4230   -8.0840 N.ar  250  HIS250     -0.2212
    138  N         18.8460   -8.0280   -7.8320 N.3   252  TYR252     -0.1241
    139  CA        19.1800   -7.5720   -6.4840 C.3   252  TYR252      0.1605
    140  C         19.5380   -8.7040   -5.5320 C.2   252  TYR252      0.2264
    141  O         19.7840   -8.4410   -4.3790 O.2   252  TYR252     -0.2867
    142  CB        18.0550   -6.7360   -5.9230 C.3   252  TYR252      0.0534
    143  CG        16.6960   -7.3810   -5.9980 C.ar  252  TYR252     -0.0201
    144  CD1       15.8530   -7.0700   -7.0540 C.ar  252  TYR252     -0.0009
    145  CD2       16.2620   -8.2920   -5.0890 C.ar  252  TYR252     -0.0009
    146  CE1       14.6230   -7.6220   -7.1740 C.ar  252  TYR252      0.0417
    147  CE2       14.9830   -8.8480   -5.1920 C.ar  252  TYR252      0.0417
    148  CZ        14.1850   -8.5130   -6.2530 C.ar  252  TYR252      0.1957
    149  OH        12.9010   -8.9950   -6.4540 O.3   252  TYR252     -0.2866
    150  N          5.4130  -21.8660  -15.9880 N.3   254  GLN254     -0.1231
    151  CA         4.6320  -20.7670  -16.5270 C.3   254  GLN254      0.1698
    152  C          5.5890  -19.7110  -17.1940 C.2   254  GLN254      0.2592
    153  O          5.3820  -19.3270  -18.3570 O.2   254  GLN254     -0.2718
    154  CB         3.7590  -20.1690  -15.4110 C.3   254  GLN254      0.0381
    155  CG         4.5470  -19.4210  -14.3170 C.3   254  GLN254      0.0905
    156  CD         3.7570  -19.0810  -13.0710 C.2   254  GLN254      0.2608
    157  OE1        3.7830  -19.8460  -12.0960 O.2   254  GLN254     -0.2717
    158  NE2        3.0720  -17.9260  -13.0700 N.am  254  GLN254     -0.0878
    159  N          6.6440  -19.2820  -16.4780 N.am  255  LEU255     -0.1980
    160  CA         7.4840  -18.1690  -16.9590 C.3   255  LEU255      0.1596
    161  C          8.1810  -18.4560  -18.2550 C.2   255  LEU255      0.2287
    162  O          8.2190  -17.5740  -19.1020 O.2   255  LEU255     -0.2864
    163  CB         8.5230  -17.6560  -15.9560 C.3   255  LEU255      0.0297
    164  CG         8.2850  -16.3970  -15.0990 C.3   255  LEU255      0.0022
    165  CD1        6.8320  -15.9250  -14.9800 C.3   255  LEU255      0.0001
    166  CD2        9.0580  -16.3450  -13.7930 C.3   255  LEU255      0.0001
    167  N          5.7050  -17.7470  -20.8840 N.3   258  GLU258     -0.1245
    168  CA         5.5270  -16.3280  -21.0310 C.3   258  GLU258      0.1567
    169  C          6.6970  -15.6860  -21.7980 C.2   258  GLU258      0.2260
    170  O          6.4520  -14.9440  -22.7490 O.2   258  GLU258     -0.2867
    171  CB         5.3930  -15.6150  -19.7220 C.3   258  GLU258      0.0388
    172  CG         4.2120  -16.0590  -18.9330 C.3   258  GLU258      0.1160
    173  CD         4.0500  -15.2510  -17.6550 C.2   258  GLU258      0.3649
    174  OE1        4.8180  -14.2580  -17.4700 O.co2 258  GLU258     -0.2457
    175  OE2        3.0890  -15.5600  -16.8990 O.co2 258  GLU258     -0.2457
@<TRIPOS>BOND
     1   170   169    2
     2    96    97   ar
     3    96    94   ar
     4    97    95   ar
     5   169   168    1
     6    94    91   ar
     7   168   167    1
     8   168   171    1
     9    95    93   ar
    10   114   115   ar
    11   114   112   ar
    12   115   113   ar
    13    76    75    2
    14    91    93   ar
    15    91    89   ar
    16    93    92   ar
    17   171   172    1
    18    77    78    1
    19    77    74    1
    20   112   110   ar
    21   113   111   ar
    22   162   161    2
    23    78    80   ar
    24    78    79   ar
    25    75    74    1
    26    75    84   am
    27    89    88    1
    28    89    90   ar
    29   172   173    1
    30    80    82   ar
    31    88    85    1
    32    79    81   ar
    33    92    90   ar
    34    85    84    1
    35    85    86    1
    36   110   111   ar
    37   110   109    1
    38   104   103    1
    39   104    98    1
    40    74    73    1
    41    51    49    1
    42   153   152    2
    43    82    83   ar
    44    81    83   ar
    45    73    71   am
    46   161   160    1
    47    69    70    1
    48   103   102    1
    49    50    49    1
    50   173   174   ar
    51   173   175   ar
    52   109   106    1
    53    68    67    2
    54    98    86   am
    55    98    99    1
    56    86    87    2
    57    49    48    1
    58   152   151    1
    59   152   159   am
    60    71    70    1
    61    71    72    2
    62   160   159    1
    63   160   163    1
    64    67    66    1
    65   102    99    1
    66   151   150    1
    67   151   154    1
    68    99   100    1
    69   105   106    1
    70   105   100   am
    71    48    45    1
    72   106   107    1
    73   100   101    2
    74   163   164    1
    75    66    65    1
    76    18    17    1
    77    57    56    1
    78     1     2    1
    79   154   155    1
    80    45    44    1
    81    45    46    1
    82   107   108    2
    83    17    14    1
    84   164   165    1
    85   164   166    1
    86    52    46   am
    87    52    53    1
    88     2     3    1
    89    55    54    2
    90    65    60   am
    91    61    60    2
    92    46    47    2
    93    56    53    1
    94   155   156    1
    95     4     3    2
    96    53    54    1
    97    60    59    1
    98     3     5   am
    99    54    58   am
   100    16    15    2
   101    14    15    1
   102    14    13    1
   103    13     7   am
   104   156   158   am
   105   156   157    2
   106     5     6    1
   107    58    59    1
   108    24    23    1
   109    59    62    1
   110     7     6    1
   111     7     8    2
   112     6     9    1
   113   124   122   ar
   114   124   126   ar
   115   119   118    2
   116   122   121   ar
   117    62    64    1
   118    62    63    1
   119   127   126    1
   120   126   125   ar
   121    23    20    1
   122    19    20    1
   123     9    10    1
   124   117   118    1
   125   117   116    1
   126   117   120    1
   127   118   128   am
   128    11    10    2
   129    20    21    1
   130   121   120    1
   131   121   123   ar
   132    10    12   am
   133   125   123   ar
   134   128   129    1
   135   130   129    1
   136   130   131    2
   137   129   132    1
   138    21    22    2
   139    21    25   am
   140   135   137   ar
   141   135   133   ar
   142   132   133    1
   143   137   136   ar
   144   133   134   ar
   145    25    26    1
   146   138   139    1
   147    32    30   am
   148   146   144   ar
   149   146   148   ar
   150   144   143   ar
   151   136   134   ar
   152    43    41   ar
   153    43    42   ar
   154    30    29    1
   155    30    31    2
   156    26    29    1
   157    26    27    1
   158   139   142    1
   159   139   140    1
   160   149   148    1
   161    41    39   ar
   162   148   147   ar
   163    42    40   ar
   164   143   142    1
   165   143   145   ar
   166    27    28    2
   167   140   141    2
   168   147   145   ar
   169    39    38   ar
   170    40    38   ar
   171    38    37    1
   172    33    34    1
   173    34    37    1
   174    34    35    1
   175    35    36    2
