@<TRIPOS>MOLECULE
tmp/5bo9A07.pdb
 222 221 0 0 0
SMALL
GASTEIGER

@<TRIPOS>ATOM
      1  N        -11.3450  -21.4820   39.4280 N.3    77  GLY77      -0.1210
      2  CA       -10.1950  -21.8510   38.6370 C.3    77  GLY77       0.1956
      3  C        -10.5110  -23.1290   37.8880 C.2    77  GLY77       0.2612
      4  O        -11.6200  -23.6440   37.9770 O.2    77  GLY77      -0.2717
      5  N         -9.5680  -23.6180   37.1070 N.am   78  ASN78      -0.1960
      6  CA        -9.9130  -24.6340   36.1440 C.3    78  ASN78       0.1819
      7  C         -9.4170  -26.0220   36.4340 C.2    78  ASN78       0.2622
      8  O         -9.4440  -26.8680   35.5470 O.2    78  ASN78      -0.2715
      9  CB        -9.4650  -24.2140   34.7630 C.3    78  ASN78       0.1195
     10  CG       -10.2380  -23.0410   34.2810 C.2    78  ASN78       0.2630
     11  OD1      -11.4280  -22.9260   34.5510 O.2    78  ASN78      -0.2716
     12  ND2       -9.5680  -22.1500   33.5510 N.am   78  ASN78      -0.0877
     13  N         -9.0630  -26.2850   37.6760 N.am   79  SER79      -0.1936
     14  CA        -8.5100  -27.5830   38.0530 C.3    79  SER79       0.2055
     15  C         -9.4520  -28.7360   37.8080 C.2    79  SER79       0.2643
     16  O        -10.6630  -28.6270   38.0220 O.2    79  SER79      -0.2714
     17  CB        -8.1790  -27.5830   39.5220 C.3    79  SER79       0.2130
     18  OG        -7.7650  -28.8400   39.9400 O.3    79  SER79      -0.2179
     19  N         -8.8580  -29.8650   37.4410 N.am   80  GLY80      -0.1954
     20  CA        -9.5520  -31.1360   37.3560 C.3    80  GLY80       0.1869
     21  C        -10.2130  -31.6170   38.6220 C.2    80  GLY80       0.2309
     22  O        -11.0550  -32.5150   38.5950 O.2    80  GLY80      -0.2863
     23  N        -12.3060  -18.3380   34.6800 N.3   100  CYS100     -0.1221
     24  CA       -10.9810  -18.1310   34.0590 C.3   100  CYS100      0.1808
     25  C        -10.8960  -18.6490   32.6370 C.2   100  CYS100      0.2601
     26  O        -11.2980  -19.7590   32.3510 O.2   100  CYS100     -0.2717
     27  CB        -9.9030  -18.8230   34.8800 C.3   100  CYS100      0.0970
     28  SG        -9.8610  -18.2500   36.5880 S.3   100  CYS100     -0.0800
     29  N        -10.3550  -17.8180   31.7480 N.am  101  ASN101     -0.1974
     30  CA       -10.0510  -18.1880   30.3650 C.3   101  ASN101      0.1688
     31  C        -11.1720  -18.8560   29.5830 C.2   101  ASN101      0.2292
     32  O        -10.9710  -19.8420   28.8550 O.2   101  ASN101     -0.2864
     33  CB        -8.7700  -19.0080   30.3880 C.3   101  ASN101      0.1181
     34  CG        -7.5880  -18.1530   30.8030 C.2   101  ASN101      0.2629
     35  OD1       -7.3860  -17.0960   30.2240 O.2   101  ASN101     -0.2716
     36  ND2       -6.8140  -18.5950   31.7650 N.am  101  ASN101     -0.0877
     37  N         -7.4710  -14.9690   28.1880 N.3   122  ASN122     -0.1240
     38  CA        -6.1210  -14.9240   27.6410 C.3   122  ASN122      0.1653
     39  C         -6.2180  -14.8980   26.1200 C.2   122  ASN122      0.2266
     40  O         -6.9690  -15.7080   25.5210 O.2   122  ASN122     -0.2867
     41  CB        -5.3130  -16.1260   28.0450 C.3   122  ASN122      0.1155
     42  CG        -4.7990  -16.0290   29.4540 C.2   122  ASN122      0.2627
     43  OD1       -4.8680  -14.9490   30.1030 O.2   122  ASN122     -0.2716
     44  ND2       -4.2970  -17.1620   29.9670 N.am  122  ASN122     -0.0877
     45  N         -4.4790  -15.9410   23.8040 N.3   124  SER124     -0.1202
     46  CA        -4.1440  -17.1650   23.1530 C.3   124  SER124      0.2020
     47  C         -5.3690  -18.0450   22.9060 C.2   124  SER124      0.2618
     48  O         -5.3280  -18.9140   22.0420 O.2   124  SER124     -0.2717
     49  CB        -3.0960  -17.9460   23.9690 C.3   124  SER124      0.2103
     50  OG        -3.6020  -18.2770   25.2570 O.3   124  SER124     -0.2182
     51  N         -6.4220  -17.8590   23.6780 N.am  125  ILE125     -0.1979
     52  CA        -7.6340  -18.6210   23.4780 C.3   125  ILE125      0.1595
     53  C         -8.1990  -18.4990   22.0620 C.2   125  ILE125      0.2287
     54  O         -8.6310  -19.4930   21.4720 O.2   125  ILE125     -0.2864
     55  CB        -8.7100  -18.2240   24.4760 C.3   125  ILE125      0.0276
     56  CG1       -8.2860  -18.6760   25.8600 C.3   125  ILE125      0.0022
     57  CG2      -10.0490  -18.8880   24.1360 C.3   125  ILE125      0.0022
     58  CD1       -8.9660  -17.8680   26.9160 C.3   125  ILE125      0.0001
     59  N         -5.9860  -20.7360   19.9040 N.3   128  LYS128     -0.1231
     60  CA        -6.0200  -22.1270   20.2540 C.3   128  LYS128      0.1693
     61  C         -7.3760  -22.7660   19.9280 C.2   128  LYS128      0.2592
     62  O         -7.4140  -23.8470   19.4000 O.2   128  LYS128     -0.2718
     63  CB        -5.6780  -22.2320   21.7330 C.3   128  LYS128      0.0285
     64  CG        -5.4230  -23.6160   22.2800 C.3   128  LYS128      0.0035
     65  CD        -4.6120  -23.5350   23.5940 C.3   128  LYS128      0.0206
     66  CE        -4.9620  -24.6550   24.5810 C.3   128  LYS128      0.1093
     67  NZ        -4.8960  -26.0260   23.9820 N.3   128  LYS128     -0.1314
     68  N         -8.4750  -22.0910   20.2100 N.am  129  TYR129     -0.1976
     69  CA        -9.8110  -22.6700   20.0450 C.3   129  TYR129      0.1639
     70  C        -10.6540  -22.0760   18.9140 C.2   129  TYR129      0.2290
     71  O        -11.5730  -22.7210   18.4480 O.2   129  TYR129     -0.2864
     72  CB       -10.5940  -22.4950   21.3550 C.3   129  TYR129      0.0560
     73  CG        -9.9750  -23.2980   22.4720 C.ar  129  TYR129     -0.0198
     74  CD1      -10.1090  -24.6860   22.5070 C.ar  129  TYR129     -0.0009
     75  CD2       -9.1960  -22.6950   23.4550 C.ar  129  TYR129     -0.0009
     76  CE1       -9.5460  -25.4280   23.5330 C.ar  129  TYR129      0.0417
     77  CE2       -8.6070  -23.4370   24.4690 C.ar  129  TYR129      0.0417
     78  CZ        -8.7920  -24.7990   24.5100 C.ar  129  TYR129      0.1957
     79  OH        -8.1980  -25.5380   25.5030 O.3   129  TYR129     -0.2866
     80  N         -0.6810  -16.2670   38.4570 N.3   211  SER211     -0.1202
     81  CA        -1.7350  -16.9230   37.6480 C.3   211  SER211      0.2020
     82  C         -3.0140  -16.0830   37.5760 C.2   211  SER211      0.2619
     83  O         -3.2550  -15.2310   38.4030 O.2   211  SER211     -0.2717
     84  CB        -2.0620  -18.3010   38.2060 C.3   211  SER211      0.2103
     85  OG        -2.8810  -18.2350   39.3740 O.3   211  SER211     -0.2182
     86  N         -3.8280  -16.3590   36.5740 N.am  212  THR212     -0.1938
     87  CA        -5.1100  -15.7180   36.4090 C.3   212  THR212      0.2028
     88  C         -5.9770  -15.9020   37.6430 C.2   212  THR212      0.2642
     89  O         -6.7070  -14.9870   38.0170 O.2   212  THR212     -0.2714
     90  CB        -5.8560  -16.2830   35.1740 C.3   212  THR212      0.1808
     91  OG1       -5.1800  -15.9010   33.9690 O.3   212  THR212     -0.2208
     92  CG2       -7.3140  -15.7920   35.1090 C.3   212  THR212      0.0379
     93  N         -5.9430  -17.0900   38.2500 N.am  213  GLY213     -0.1954
     94  CA        -6.7410  -17.3390   39.4580 C.3   213  GLY213      0.1869
     95  C         -6.4720  -16.3540   40.5730 C.2   213  GLY213      0.2309
     96  O         -7.4080  -15.7910   41.1160 O.2   213  GLY213     -0.2863
     97  N        -11.7730  -24.9320   42.2330 N.3   231  GLY231     -0.1210
     98  CA       -10.9400  -25.2400   41.0690 C.3   231  GLY231      0.1956
     99  C         -9.4900  -24.7980   41.1810 C.2   231  GLY231      0.2612
    100  O         -8.8010  -24.6120   40.1620 O.2   231  GLY231     -0.2717
    101  N         -9.0560  -24.6000   42.4150 N.am  232  PHE232     -0.1962
    102  CA        -7.6780  -24.2380   42.7060 C.3   232  PHE232      0.1771
    103  C         -7.0450  -25.4850   43.3110 C.2   232  PHE232      0.2620
    104  O         -7.3840  -25.8730   44.4530 O.2   232  PHE232     -0.2715
    105  CB        -7.5670  -23.0730   43.6750 C.3   232  PHE232      0.0574
    106  CG        -7.8590  -21.7520   43.0440 C.ar  232  PHE232     -0.0200
    107  CD1       -9.1710  -21.3970   42.7180 C.ar  232  PHE232     -0.0042
    108  CD2       -6.8410  -20.8370   42.8000 C.ar  232  PHE232     -0.0042
    109  CE1       -9.4420  -20.1700   42.1390 C.ar  232  PHE232     -0.0003
    110  CE2       -7.1220  -19.5740   42.2530 C.ar  232  PHE232     -0.0003
    111  CZ        -8.4170  -19.2540   41.9200 C.ar  232  PHE232     -0.0000
    112  N         -6.2170  -26.1440   42.5080 N.am  233  TRP233     -0.1960
    113  CA        -5.5770  -27.3960   42.9110 C.3   233  TRP233      0.1756
    114  C         -4.6800  -27.7960   41.7220 C.2   233  TRP233      0.2462
    115  O         -5.1180  -28.4730   40.7610 O.2   233  TRP233     -0.2730
    116  CB        -6.5970  -28.4780   43.2880 C.3   233  TRP233      0.0590
    117  CG        -5.9940  -29.7350   43.5420 C.ar  233  TRP233      0.0006
    118  CD1       -5.8800  -30.7910   42.6720 C.ar  233  TRP233      0.0946
    119  CD2       -5.3680  -30.1310   44.7410 C.ar  233  TRP233      0.0152
    120  NE1       -5.2030  -31.8130   43.2680 N.ar  233  TRP233     -0.2442
    121  CE2       -4.8830  -31.4280   44.5450 C.ar  233  TRP233      0.0810
    122  CE3       -5.1420  -29.5090   45.9630 C.ar  233  TRP233      0.0012
    123  CZ2       -4.2010  -32.1170   45.5430 C.ar  233  TRP233      0.0191
    124  CZ3       -4.4720  -30.1850   46.9440 C.ar  233  TRP233      0.0001
    125  CH2       -4.0020  -31.4700   46.7370 C.ar  233  TRP233      0.0015
    126  N         -3.4500  -27.2850   41.7280 N.am  234  PRO234     -0.2716
    127  CA        -2.5670  -27.4270   40.5880 C.3   234  PRO234      0.1536
    128  C         -1.6930  -28.6240   40.7440 C.2   234  PRO234      0.2598
    129  O         -0.4690  -28.5140   40.6250 O.2   234  PRO234     -0.2715
    130  CB        -1.7320  -26.1690   40.6800 C.3   234  PRO234      0.0310
    131  CG        -1.5710  -26.0060   42.1680 C.3   234  PRO234      0.0237
    132  CD        -2.8600  -26.4520   42.7760 C.3   234  PRO234      0.0939
    133  N         -2.3060  -29.7630   41.0520 N.am  235  PHE235     -0.1974
    134  CA        -1.6030  -31.0130   41.1610 C.3   235  PHE235      0.1639
    135  C         -2.3050  -32.0820   40.3340 C.2   235  PHE235      0.2290
    136  O         -3.4780  -31.9500   39.9860 O.2   235  PHE235     -0.2864
    137  CB        -1.5550  -31.3860   42.6030 C.3   235  PHE235      0.0560
    138  CG        -0.8440  -30.3710   43.4680 C.ar  235  PHE235     -0.0200
    139  CD1        0.5510  -30.2710   43.4620 C.ar  235  PHE235     -0.0042
    140  CD2       -1.5670  -29.5260   44.3100 C.ar  235  PHE235     -0.0042
    141  CE1        1.2060  -29.3670   44.2960 C.ar  235  PHE235     -0.0003
    142  CE2       -0.9190  -28.6120   45.1260 C.ar  235  PHE235     -0.0003
    143  CZ         0.4670  -28.5260   45.1170 C.ar  235  PHE235     -0.0000
    144  N         -6.6400  -34.6920   35.4730 N.3   246  PRO246     -0.2102
    145  CA        -6.1450  -33.7590   34.4790 C.3   246  PRO246      0.1504
    146  C         -5.8940  -32.3630   35.0840 C.2   246  PRO246      0.2576
    147  O         -6.4890  -32.0170   36.1130 O.2   246  PRO246     -0.2718
    148  CB        -7.3000  -33.6890   33.4990 C.3   246  PRO246      0.0282
    149  CG        -8.5100  -33.9400   34.3330 C.3   246  PRO246      0.0208
    150  CD        -8.0760  -34.9680   35.3380 C.3   246  PRO246      0.0893
    151  N         -5.0430  -31.5870   34.4230 N.am  247  TYR247     -0.1963
    152  CA        -4.7750  -30.2130   34.8100 C.3   247  TYR247      0.1771
    153  C         -6.0480  -29.3280   34.7640 C.2   247  TYR247      0.2619
    154  O         -6.2720  -28.5360   35.6510 O.2   247  TYR247     -0.2715
    155  CB        -3.6630  -29.6430   33.9310 C.3   247  TYR247      0.0574
    156  CG        -3.2470  -28.2320   34.2610 C.ar  247  TYR247     -0.0198
    157  CD1       -2.4610  -27.9590   35.3570 C.ar  247  TYR247     -0.0009
    158  CD2       -3.6390  -27.1790   33.4690 C.ar  247  TYR247     -0.0009
    159  CE1       -2.0740  -26.6600   35.6700 C.ar  247  TYR247      0.0417
    160  CE2       -3.2610  -25.8830   33.7620 C.ar  247  TYR247      0.0417
    161  CZ        -2.4660  -25.6240   34.8680 C.ar  247  TYR247      0.1957
    162  OH        -2.0930  -24.3190   35.1460 O.3   247  TYR247     -0.2866
    163  N         -6.8870  -29.5280   33.7630 N.am  248  HIS248     -0.1973
    164  CA        -8.1390  -28.7860   33.6270 C.3   248  HIS248      0.1656
    165  C         -9.3300  -29.7040   33.7230 C.2   248  HIS248      0.2291
    166  O         -9.2500  -30.8480   33.2910 O.2   248  HIS248     -0.2864
    167  CB        -8.1780  -28.1440   32.2550 C.3   248  HIS248      0.0771
    168  CG        -7.3090  -26.9450   32.1160 C.ar  248  HIS248      0.0820
    169  ND1       -6.7210  -26.5980   30.9190 N.ar  248  HIS248     -0.2267
    170  CD2       -6.9750  -25.9750   32.9980 C.ar  248  HIS248      0.1154
    171  CE1       -6.0730  -25.4560   31.0670 C.ar  248  HIS248      0.1986
    172  NE2       -6.1930  -25.0710   32.3240 N.ar  248  HIS248     -0.2212
    173  N        -11.9950  -29.6830   32.0030 N.3   250  TYR250     -0.1241
    174  CA       -12.5380  -29.9800   30.6780 C.3   250  TYR250      0.1605
    175  C        -11.4900  -30.6240   29.7680 C.2   250  TYR250      0.2264
    176  O        -11.6260  -30.5660   28.5730 O.2   250  TYR250     -0.2867
    177  CB       -13.0660  -28.7150   29.9850 C.3   250  TYR250      0.0534
    178  CG       -12.1540  -27.5640   30.1350 C.ar  250  TYR250     -0.0201
    179  CD1      -11.1120  -27.3490   29.2510 C.ar  250  TYR250     -0.0009
    180  CD2      -12.2880  -26.7170   31.2080 C.ar  250  TYR250     -0.0009
    181  CE1      -10.2490  -26.2660   29.4230 C.ar  250  TYR250      0.0417
    182  CE2      -11.4420  -25.6630   31.3960 C.ar  250  TYR250      0.0417
    183  CZ       -10.4320  -25.4450   30.5060 C.ar  250  TYR250      0.1957
    184  OH        -9.6270  -24.3870   30.7460 O.3   250  TYR250     -0.2866
    185  N         -1.0200  -34.7770   33.2890 N.3   257  PHE257     -0.1241
    186  CA        -0.7050  -33.4190   33.7440 C.3   257  PHE257      0.1605
    187  C          0.3230  -32.6970   32.8400 C.2   257  PHE257      0.2264
    188  O          0.8260  -31.6070   33.1550 O.2   257  PHE257     -0.2867
    189  CB        -0.1630  -33.5190   35.1670 C.3   257  PHE257      0.0534
    190  CG        -0.3830  -32.2910   35.9970 C.ar  257  PHE257     -0.0203
    191  CD1       -1.6340  -32.0190   36.5200 C.ar  257  PHE257     -0.0042
    192  CD2        0.6750  -31.4320   36.2900 C.ar  257  PHE257     -0.0042
    193  CE1       -1.8360  -30.8980   37.3000 C.ar  257  PHE257     -0.0003
    194  CE2        0.4820  -30.3140   37.0670 C.ar  257  PHE257     -0.0003
    195  CZ        -0.7760  -30.0460   37.5700 C.ar  257  PHE257     -0.0000
    196  N          4.7920  -20.0860   35.9030 N.3   260  HIS260     -0.1241
    197  CA         4.0660  -20.0550   37.1500 C.3   260  HIS260      0.1621
    198  C          4.7220  -20.9140   38.2030 C.2   260  HIS260      0.2264
    199  O          5.4680  -21.8540   37.9180 O.2   260  HIS260     -0.2867
    200  CB         2.6240  -20.5110   36.9480 C.3   260  HIS260      0.0745
    201  CG         1.8290  -19.6050   36.0620 C.ar  260  HIS260      0.0817
    202  ND1        1.5860  -18.2880   36.3760 N.ar  260  HIS260     -0.2268
    203  CD2        1.2380  -19.8200   34.8630 C.ar  260  HIS260      0.1154
    204  CE1        0.8760  -17.7290   35.4110 C.ar  260  HIS260      0.1986
    205  NE2        0.6550  -18.6350   34.4800 N.ar  260  HIS260     -0.2212
    206  N          2.6210  -22.3660   40.5270 N.3   262  LEU262     -0.1245
    207  CA         1.2510  -22.5800   41.0180 C.3   262  LEU262      0.1561
    208  C          1.1750  -23.2710   42.3980 C.2   262  LEU262      0.2260
    209  O          0.2950  -22.9550   43.1900 O.2   262  LEU262     -0.2867
    210  CB         0.3950  -23.3420   39.9870 C.3   262  LEU262      0.0270
    211  CG        -0.1490  -22.5740   38.7910 C.3   262  LEU262      0.0019
    212  CD1       -1.1010  -23.4520   37.9830 C.3   262  LEU262      0.0001
    213  CD2       -0.8750  -21.2890   39.1940 C.3   262  LEU262      0.0001
    214  N          1.5670  -20.7190   44.9470 N.3   265  GLU265     -0.1245
    215  CA         0.2880  -19.9820   45.0320 C.3   265  GLU265      0.1567
    216  C         -0.7270  -20.7660   45.8490 C.2   265  GLU265      0.2260
    217  O         -1.3500  -20.2640   46.7680 O.2   265  GLU265     -0.2867
    218  CB        -0.3110  -19.7170   43.6600 C.3   265  GLU265      0.0388
    219  CG         0.4610  -18.7950   42.7530 C.3   265  GLU265      0.1160
    220  CD        -0.3070  -18.4020   41.4910 C.2   265  GLU265      0.3649
    221  OE1       -1.4910  -18.8310   41.2750 O.co2 265  GLU265     -0.2457
    222  OE2        0.2830  -17.6420   40.6920 O.co2 265  GLU265     -0.2457
@<TRIPOS>BOND
     1    71    70    2
     2    70    69    1
     3    62    61    2
     4    59    60    1
     5    61    68   am
     6    61    60    1
     7    69    68    1
     8    69    72    1
     9    60    63    1
    10    72    73    1
    11    54    53    2
    12    63    64    1
    13    48    47    2
    14    53    52    1
    15    64    65    1
    16    73    74   ar
    17    73    75   ar
    18    74    76   ar
    19    47    46    1
    20    47    51   am
    21    46    45    1
    22    46    49    1
    23    75    77   ar
    24    52    51    1
    25    52    55    1
    26    76    78   ar
    27    65    66    1
    28    49    50    1
    29    67    66    1
    30    57    55    1
    31    77    78   ar
    32    55    56    1
    33    78    79    1
    34    40    39    2
    35    56    58    1
    36    39    38    1
    37    38    41    1
    38    38    37    1
    39    41    42    1
    40   176   175    2
    41    32    31    2
    42   179   181   ar
    43   179   178   ar
    44   181   183   ar
    45    42    44   am
    46    42    43    2
    47    31    30    1
    48   175   174    1
    49   177   178    1
    50   177   174    1
    51   178   180   ar
    52    35    34    2
    53    30    33    1
    54    30    29    1
    55    33    34    1
    56   183   184    1
    57   183   182   ar
    58   174   173    1
    59    34    36   am
    60   169   171   ar
    61   169   168   ar
    62   171   172   ar
    63   180   182   ar
    64    29    25   am
    65   168   167    1
    66   168   170   ar
    67   167   164    1
    68   172   170   ar
    69    26    25    2
    70    25    24    1
    71   187   188    2
    72   187   186    1
    73   185   186    1
    74   166   165    2
    75   158   160   ar
    76   158   156   ar
    77   148   149    1
    78   148   145    1
    79    12    10   am
    80   164   165    1
    81   164   163    1
    82   186   189    1
    83   160   161   ar
    84   163   153   am
    85   155   156    1
    86   155   152    1
    87    91    90    1
    88    24    23    1
    89    24    27    1
    90   156   157   ar
    91    10    11    2
    92    10     9    1
    93   149   150    1
    94   151   152    1
    95   151   146   am
    96   145   146    1
    97   145   144    1
    98   205   203   ar
    99   205   204   ar
   100     9     6    1
   101   153   152    1
   102   153   154    2
   103   203   201   ar
   104   161   162    1
   105   161   159   ar
   106    27    28    1
   107   146   147    2
   108    92    90    1
   109   189   190    1
   110    90    87    1
   111   150   144    1
   112   157   159   ar
   113   204   202   ar
   114     8     7    2
   115   196   197    1
   116   190   192   ar
   117   190   191   ar
   118   201   202   ar
   119   201   200    1
   120     6     7    1
   121     6     5    1
   122   192   194   ar
   123    87    86    1
   124    87    88    1
   125     7    13   am
   126   191   193   ar
   127    86    82   am
   128   200   197    1
   129   194   195   ar
   130     5     3   am
   131   197   198    1
   132   193   195   ar
   133    20    19    1
   134    20    21    1
   135    19    15   am
   136    82    81    1
   137    82    83    2
   138    88    89    2
   139    88    93   am
   140    81    84    1
   141    81    80    1
   142    13    14    1
   143    15    16    2
   144    15    14    1
   145     3     4    2
   146     3     2    1
   147   199   198    2
   148   212   211    1
   149    14    17    1
   150    84    85    1
   151    93    94    1
   152    22    21    2
   153     2     1    1
   154   211   213    1
   155   211   210    1
   156    94    95    1
   157    17    18    1
   158   136   135    2
   159   210   207    1
   160   100    99    2
   161   135   134    1
   162   206   207    1
   163    95    96    2
   164   127   130    1
   165   127   128    1
   166   127   126    1
   167   129   128    2
   168   130   131    1
   169   222   220   ar
   170   128   133   am
   171   115   114    2
   172   207   208    1
   173   133   134    1
   174    98    99    1
   175    98    97    1
   176   134   137    1
   177    99   101   am
   178   221   220   ar
   179   220   219    1
   180   114   126   am
   181   114   113    1
   182   126   132    1
   183   111   109   ar
   184   111   110   ar
   185   109   107   ar
   186   131   132    1
   187   110   108   ar
   188   208   209    2
   189   101   102    1
   190   112   113    1
   191   112   103   am
   192   137   138    1
   193   118   120   ar
   194   118   117   ar
   195   102   103    1
   196   102   105    1
   197   107   106   ar
   198   219   218    1
   199   108   106   ar
   200   113   116    1
   201   106   105    1
   202   120   121   ar
   203   116   117    1
   204   103   104    2
   205   139   138   ar
   206   139   141   ar
   207   138   140   ar
   208   117   119   ar
   209   218   215    1
   210   141   143   ar
   211   140   142   ar
   212   121   119   ar
   213   121   123   ar
   214   119   122   ar
   215   214   215    1
   216   215   216    1
   217   143   142   ar
   218   123   125   ar
   219   216   217    2
   220   122   124   ar
   221   125   124   ar
