@<TRIPOS>MOLECULE
tmp/5bo9A04.pdb
 139 137 0 0 0
SMALL
GASTEIGER

@<TRIPOS>ATOM
      1  N          5.2150   -8.4010   30.7740 N.3    42  TYR42      -0.1241
      2  CA         6.2150   -9.4490   30.9050 C.3    42  TYR42       0.1605
      3  C          7.1610   -9.5320   29.7360 C.2    42  TYR42       0.2264
      4  O          7.8240  -10.5450   29.5520 O.2    42  TYR42      -0.2867
      5  CB         5.5090  -10.7720   31.0420 C.3    42  TYR42       0.0534
      6  CG         4.5780  -10.8450   32.2170 C.ar   42  TYR42      -0.0201
      7  CD1        4.9920  -10.4290   33.4860 C.ar   42  TYR42      -0.0009
      8  CD2        3.2820  -11.2910   32.0680 C.ar   42  TYR42      -0.0009
      9  CE1        4.1440  -10.5070   34.5870 C.ar   42  TYR42       0.0417
     10  CE2        2.4240  -11.3880   33.1620 C.ar   42  TYR42       0.0417
     11  CZ         2.8510  -10.9930   34.4090 C.ar   42  TYR42       0.1957
     12  OH         2.0150  -11.0870   35.4970 O.3    42  TYR42      -0.2866
     13  N         -7.4710  -14.9690   28.1880 N.3   122  ASN122     -0.1226
     14  CA        -6.1210  -14.9240   27.6410 C.3   122  ASN122      0.1770
     15  C         -6.2180  -14.8980   26.1200 C.2   122  ASN122      0.2439
     16  O         -6.9690  -15.7080   25.5210 O.2   122  ASN122     -0.2733
     17  CB        -5.3130  -16.1260   28.0450 C.3   122  ASN122      0.1168
     18  CG        -4.7990  -16.0290   29.4540 C.2   122  ASN122      0.2627
     19  OD1       -4.8680  -14.9490   30.1030 O.2   122  ASN122     -0.2716
     20  ND2       -4.2970  -17.1620   29.9670 N.am  122  ASN122     -0.0877
     21  N         -5.5140  -13.9620   25.4700 N.am  123  PRO123     -0.2718
     22  CA        -5.7100  -13.8450   24.0440 C.3   123  PRO123      0.1535
     23  C         -5.3740  -15.1090   23.2670 C.2   123  PRO123      0.2599
     24  O         -5.9290  -15.3210   22.2070 O.2   123  PRO123     -0.2715
     25  CB        -4.7540  -12.7200   23.6920 C.3   123  PRO123      0.0310
     26  CG        -4.9040  -11.8150   24.8480 C.3   123  PRO123      0.0237
     27  CD        -4.8310  -12.7830   25.9920 C.3   123  PRO123      0.0939
     28  N         -4.4790  -15.9410   23.8040 N.am  124  SER124     -0.1950
     29  CA        -4.1440  -17.1650   23.1530 C.3   124  SER124      0.1924
     30  C         -5.3690  -18.0450   22.9060 C.2   124  SER124      0.2314
     31  O         -5.3280  -18.9140   22.0420 O.2   124  SER124     -0.2863
     32  CB        -3.0960  -17.9460   23.9690 C.3   124  SER124      0.2116
     33  OG        -3.6020  -18.2770   25.2570 O.3   124  SER124     -0.2180
     34  N        -13.0490  -10.2450   30.4620 N.3   155  TRP155     -0.1241
     35  CA       -11.8710   -9.5630   30.9330 C.3   155  TRP155      0.1605
     36  C        -10.6780  -10.0950   30.1550 C.2   155  TRP155      0.2264
     37  O        -10.2660  -11.2280   30.3400 O.2   155  TRP155     -0.2867
     38  CB       -11.7230   -9.8150   32.4170 C.3   155  TRP155      0.0550
     39  CG       -10.7930   -8.9290   33.1610 C.ar  155  TRP155      0.0003
     40  CD1      -11.0750   -7.7150   33.7100 C.ar  155  TRP155      0.0946
     41  CD2       -9.4500   -9.2250   33.5450 C.ar  155  TRP155      0.0152
     42  NE1       -9.9790   -7.2050   34.3520 N.ar  155  TRP155     -0.2442
     43  CE2       -8.9650   -8.1150   34.2760 C.ar  155  TRP155      0.0810
     44  CE3       -8.5970  -10.2800   33.3080 C.ar  155  TRP155      0.0012
     45  CZ2       -7.6480   -8.0490   34.7690 C.ar  155  TRP155      0.0191
     46  CZ3       -7.3080  -10.2140   33.8150 C.ar  155  TRP155      0.0001
     47  CH2       -6.8540   -9.1030   34.5470 C.ar  155  TRP155      0.0015
     48  N         -6.8560   -9.6540   29.1270 N.3   157  PRO157     -0.2116
     49  CA        -5.5660   -9.0470   29.3530 C.3   157  PRO157      0.1372
     50  C         -4.6970   -9.1240   28.1050 C.2   157  PRO157      0.2244
     51  O         -4.0210  -10.1250   27.8300 O.2   157  PRO157     -0.2868
     52  CB        -4.9850   -9.8900   30.4840 C.3   157  PRO157      0.0268
     53  CG        -5.5420  -11.2330   30.2360 C.3   157  PRO157      0.0207
     54  CD        -6.9250  -11.0110   29.6990 C.3   157  PRO157      0.0892
     55  N         -0.0270   -8.0110   28.6790 N.3   160  PHE160     -0.1227
     56  CA         0.9220   -8.6570   29.5390 C.3   160  PHE160      0.1736
     57  C          2.0380   -9.2480   28.7450 C.2   160  PHE160      0.2595
     58  O          3.1790   -9.1840   29.1740 O.2   160  PHE160     -0.2718
     59  CB         0.2630   -9.7190   30.3860 C.3   160  PHE160      0.0547
     60  CG        -0.7250   -9.1920   31.3700 C.ar  160  PHE160     -0.0202
     61  CD1       -0.7400   -7.8620   31.7580 C.ar  160  PHE160     -0.0042
     62  CD2       -1.6140  -10.0540   31.9680 C.ar  160  PHE160     -0.0042
     63  CE1       -1.6630   -7.4060   32.6930 C.ar  160  PHE160     -0.0003
     64  CE2       -2.5250   -9.6020   32.8990 C.ar  160  PHE160     -0.0003
     65  CZ        -2.5630   -8.2700   33.2600 C.ar  160  PHE160     -0.0000
     66  N          1.7360   -9.8010   27.5710 N.am  161  PHE161     -0.1976
     67  CA         2.8040  -10.3610   26.7180 C.3   161  PHE161      0.1639
     68  C          2.5830  -10.0610   25.2360 C.2   161  PHE161      0.2290
     69  O          1.4480  -10.0440   24.7210 O.2   161  PHE161     -0.2864
     70  CB         2.9520  -11.8690   26.9560 C.3   161  PHE161      0.0560
     71  CG         4.3240  -12.4030   26.6210 C.ar  161  PHE161     -0.0200
     72  CD1        5.4740  -11.8900   27.2390 C.ar  161  PHE161     -0.0042
     73  CD2        4.4810  -13.4530   25.7270 C.ar  161  PHE161     -0.0042
     74  CE1        6.7330  -12.3900   26.9410 C.ar  161  PHE161     -0.0003
     75  CE2        5.7610  -13.9400   25.4090 C.ar  161  PHE161     -0.0003
     76  CZ         6.8810  -13.4080   26.0240 C.ar  161  PHE161     -0.0000
     77  N          3.0070  -11.5320   22.4320 N.3   163  THR163     -0.1203
     78  CA         2.3250  -12.5020   21.5690 C.3   163  THR163      0.1994
     79  C          0.7940  -12.2530   21.4620 C.2   163  THR163      0.2618
     80  O          0.1470  -12.8230   20.6340 O.2   163  THR163     -0.2717
     81  CB         2.5080  -13.9670   22.0580 C.3   163  THR163      0.1784
     82  OG1        2.0460  -14.0950   23.4100 O.3   163  THR163     -0.2211
     83  CG2        3.9400  -14.3990   21.9850 C.3   163  THR163      0.0376
     84  N          0.2260  -11.4180   22.3040 N.am  164  SER164     -0.1951
     85  CA        -1.1800  -11.0970   22.2060 C.3   164  SER164      0.1924
     86  C         -1.4870  -10.0930   21.0860 C.2   164  SER164      0.2314
     87  O         -2.6500   -9.8320   20.7740 O.2   164  SER164     -0.2863
     88  CB        -1.6310  -10.5220   23.5380 C.3   164  SER164      0.2116
     89  OG        -1.5470  -11.5240   24.5430 O.3   164  SER164     -0.2180
     90  N          5.3050  -15.1330   36.6840 N.3   209  ARG209     -0.1231
     91  CA         3.9520  -14.5830   36.4050 C.3   209  ARG209      0.1694
     92  C          2.9350  -15.1130   37.3810 C.2   209  ARG209      0.2591
     93  O          2.7670  -16.3300   37.5120 O.2   209  ARG209     -0.2718
     94  CB         3.5040  -14.9230   34.9590 C.3   209  ARG209      0.0321
     95  CG         4.2060  -14.0610   33.9060 C.3   209  ARG209      0.0489
     96  CD         4.7070  -14.7050   32.5830 C.3   209  ARG209      0.2205
     97  NE         3.6490  -14.7180   31.6020 N.pl3 209  ARG209     -0.0865
     98  CZ         3.7440  -14.5960   30.2700 C.cat 209  ARG209      0.5346
     99  NH1        2.5960  -14.6550   29.6110 N.pl3 209  ARG209      0.1354
    100  NH2        4.8730  -14.4150   29.5800 N.pl3 209  ARG209      0.1354
    101  N          2.2360  -14.2160   38.0560 N.am  210  LEU210     -0.1980
    102  CA         1.0830  -14.6130   38.8560 C.3   210  LEU210      0.1596
    103  C          0.0200  -15.2500   37.9430 C.2   210  LEU210      0.2287
    104  O         -0.1480  -14.8220   36.7800 O.2   210  LEU210     -0.2864
    105  CB         0.4740  -13.4180   39.5940 C.3   210  LEU210      0.0297
    106  CG         1.3520  -12.8300   40.7200 C.3   210  LEU210      0.0022
    107  CD1        0.8470  -11.4810   41.1820 C.3   210  LEU210      0.0001
    108  CD2        1.4180  -13.7890   41.8970 C.3   210  LEU210      0.0001
    109  N         -3.8280  -16.3590   36.5740 N.3   212  THR212     -0.1218
    110  CA        -5.1100  -15.7180   36.4090 C.3   212  THR212      0.1862
    111  C         -5.9770  -15.9020   37.6430 C.2   212  THR212      0.2287
    112  O         -6.7070  -14.9870   38.0170 O.2   212  THR212     -0.2866
    113  CB        -5.8560  -16.2830   35.1740 C.3   212  THR212      0.1770
    114  OG1       -5.1800  -15.9010   33.9690 O.3   212  THR212     -0.2211
    115  CG2       -7.3140  -15.7920   35.1090 C.3   212  THR212      0.0375
    116  N         -4.8120  -13.4940   40.3460 N.3   215  LEU215     -0.1245
    117  CA        -5.1780  -12.1960   39.8320 C.3   215  LEU215      0.1561
    118  C         -6.7010  -11.9560   40.0350 C.2   215  LEU215      0.2260
    119  O         -7.1150  -10.9210   40.5450 O.2   215  LEU215     -0.2867
    120  CB        -4.7670  -12.1600   38.3940 C.3   215  LEU215      0.0270
    121  CG        -4.7380  -10.9200   37.5330 C.3   215  LEU215      0.0019
    122  CD1       -4.2270   -9.7020   38.3010 C.3   215  LEU215      0.0001
    123  CD2       -3.8480  -11.2700   36.3560 C.3   215  LEU215      0.0001
    124  N          6.3790  -20.6560   33.6770 N.3   259  SER259     -0.1202
    125  CA         6.4260  -19.2910   34.2520 C.3   259  SER259      0.2020
    126  C          5.6590  -19.1310   35.5870 C.2   259  SER259      0.2618
    127  O          5.8290  -18.1350   36.3020 O.2   259  SER259     -0.2717
    128  CB         5.8460  -18.2940   33.2450 C.3   259  SER259      0.2103
    129  OG         4.4300  -18.4660   33.1050 O.3   259  SER259     -0.2182
    130  N          4.7920  -20.0860   35.9030 N.am  260  HIS260     -0.1975
    131  CA         4.0660  -20.0550   37.1500 C.3   260  HIS260      0.1656
    132  C          4.7220  -20.9140   38.2030 C.2   260  HIS260      0.2291
    133  O          5.4680  -21.8540   37.9180 O.2   260  HIS260     -0.2864
    134  CB         2.6240  -20.5110   36.9480 C.3   260  HIS260      0.0771
    135  CG         1.8290  -19.6050   36.0620 C.ar  260  HIS260      0.0820
    136  ND1        1.5860  -18.2880   36.3760 N.ar  260  HIS260     -0.2267
    137  CD2        1.2380  -19.8200   34.8630 C.ar  260  HIS260      0.1154
    138  CE1        0.8760  -17.7290   35.4110 C.ar  260  HIS260      0.1986
    139  NE2        0.6550  -18.6350   34.4800 N.ar  260  HIS260     -0.2212
@<TRIPOS>BOND
     1    80    79    2
     2    87    86    2
     3    86    85    1
     4    79    78    1
     5    79    84   am
     6    78    81    1
     7    78    77    1
     8    83    81    1
     9    31    30    2
    10    81    82    1
    11    85    84    1
    12    85    88    1
    13    24    23    2
    14    30    29    1
    15    29    28    1
    16    29    32    1
    17    23    28   am
    18    23    22    1
    19    88    89    1
    20    25    22    1
    21    25    26    1
    22    32    33    1
    23    22    21    1
    24    69    68    2
    25    26    27    1
    26    68    67    1
    27    75    73   ar
    28    75    76   ar
    29    21    27    1
    30    21    15   am
    31    16    15    2
    32    73    71   ar
    33    76    74   ar
    34    15    14    1
    35    71    70    1
    36    71    72   ar
    37    67    70    1
    38    67    66    1
    39    74    72   ar
    40    66    57   am
    41    14    17    1
    42    14    13    1
    43    51    50    2
    44    17    18    1
    45    50    49    1
    46    55    56    1
    47    57    58    2
    48    57    56    1
    49    48    49    1
    50    48    54    1
    51    49    52    1
    52    18    20   am
    53    18    19    2
    54    56    59    1
    55     4     3    2
    56   100    98    1
    57    99    98    1
    58    54    53    1
    59     3     2    1
    60    36    37    2
    61    36    35    1
    62    53    52    1
    63    98    97    2
    64    59    60    1
    65    34    35    1
    66     1     2    1
    67     2     5    1
    68    35    38    1
    69     5     6    1
    70    60    61   ar
    71    60    62   ar
    72    97    96    1
    73    61    63   ar
    74    62    64   ar
    75     8     6   ar
    76     8    10   ar
    77     6     7   ar
    78    38    39    1
    79    96    95    1
    80    63    65   ar
    81    64    65   ar
    82   129   128    1
    83    39    41   ar
    84    39    40   ar
    85    10    11   ar
    86   128   125    1
    87    44    41   ar
    88    44    46   ar
    89     7     9   ar
    90    41    43   ar
    91   124   125    1
    92    40    42   ar
    93    46    47   ar
    94    95    94    1
    95   114   113    1
    96   125   126    1
    97    43    42   ar
    98    43    45   ar
    99    11     9   ar
   100    11    12    1
   101   139   137   ar
   102   139   138   ar
   103    47    45   ar
   104   137   135   ar
   105    94    91    1
   106   115   113    1
   107   113   110    1
   108   138   136   ar
   109   126   130   am
   110   126   127    2
   111   130   131    1
   112   135   136   ar
   113   135   134    1
   114   123   121    1
   115    91    90    1
   116    91    92    1
   117   110   109    1
   118   110   111    1
   119   104   103    2
   120   134   131    1
   121   131   132    1
   122    92    93    2
   123    92   101   am
   124   121   122    1
   125   121   120    1
   126   111   112    2
   127   133   132    2
   128   103   102    1
   129   101   102    1
   130   120   117    1
   131   102   105    1
   132   105   106    1
   133   117   118    1
   134   117   116    1
   135   118   119    2
   136   106   107    1
   137   106   108    1
