@<TRIPOS>MOLECULE
tmp/5boaE00.pdb
 98 93 0 0 0
SMALL
GASTEIGER

@<TRIPOS>ATOM
      1  N         32.9210    6.5530    7.5210 N.3    56  TYR56      -0.1241
      2  CA        33.7450    6.0100    6.4500 C.3    56  TYR56       0.1605
      3  C         34.5710    7.1170    5.8030 C.2    56  TYR56       0.2264
      4  O         34.1610    8.2690    5.7400 O.2    56  TYR56      -0.2867
      5  CB        32.9090    5.3530    5.3580 C.3    56  TYR56       0.0534
      6  CG        31.8720    4.3450    5.7770 C.ar   56  TYR56      -0.0201
      7  CD1       31.9820    3.0040    5.3970 C.ar   56  TYR56      -0.0009
      8  CD2       30.7390    4.7380    6.4940 C.ar   56  TYR56      -0.0009
      9  CE1       31.0120    2.0850    5.7460 C.ar   56  TYR56       0.0417
     10  CE2       29.7610    3.8220    6.8470 C.ar   56  TYR56       0.0417
     11  CZ        29.9030    2.4980    6.4700 C.ar   56  TYR56       0.1957
     12  OH        28.9320    1.5920    6.8260 O.3    56  TYR56      -0.2866
     13  N         32.8140   -8.0060   10.6900 N.3    91  GLY91      -0.1225
     14  CA        31.7390   -7.0850   11.0190 C.3    91  GLY91       0.1811
     15  C         31.7500   -6.5970   12.4540 C.2    91  GLY91       0.2280
     16  O         31.2190   -5.5200   12.7610 O.2    91  GLY91      -0.2866
     17  N         37.7080   -1.1700   10.1700 N.3    96  ARG96      -0.1245
     18  CA        37.6520   -2.0840    9.0310 C.3    96  ARG96       0.1563
     19  C         38.2240   -1.4460    7.7730 C.2    96  ARG96       0.2260
     20  O         38.3370   -0.2260    7.6860 O.2    96  ARG96      -0.2867
     21  CB        36.2160   -2.5480    8.7730 C.3    96  ARG96       0.0307
     22  CG        35.5150   -3.1760    9.9700 C.3    96  ARG96       0.0489
     23  CD        34.2380   -3.8810    9.5420 C.3    96  ARG96       0.2205
     24  NE        34.5010   -5.0140    8.6610 N.pl3  96  ARG96      -0.0865
     25  CZ        33.5600   -5.6810    7.9960 C.cat  96  ARG96       0.5346
     26  NH1       32.2810   -5.3260    8.1010 N.pl3  96  ARG96       0.1354
     27  NH2       33.8990   -6.6960    7.2160 N.pl3  96  ARG96       0.1354
     28  N         30.1260   -9.4370    1.5920 N.3   107  GLU107     -0.1245
     29  CA        29.9720   -8.4540    2.6530 C.3   107  GLU107      0.1567
     30  C         31.2240   -7.5880    2.8580 C.2   107  GLU107      0.2260
     31  O         31.1240   -6.3980    3.1940 O.2   107  GLU107     -0.2867
     32  CB        29.6170   -9.1720    3.9550 C.3   107  GLU107      0.0388
     33  CG        29.1520   -8.2520    5.0580 C.3   107  GLU107      0.1160
     34  CD        30.2870   -7.5900    5.8050 C.2   107  GLU107      0.3649
     35  OE1       31.4120   -8.1520    5.8220 O.co2 107  GLU107     -0.2457
     36  OE2       30.0540   -6.4820    6.3440 O.co2 107  GLU107     -0.2457
     37  N         30.1890   -2.5830    0.4430 N.3   113  GLN113     -0.1245
     38  CA        30.4560   -1.5810    1.4610 C.3   113  GLN113      0.1566
     39  C         30.1410   -0.2050    0.9450 C.2   113  GLN113      0.2260
     40  O         29.6570    0.6420    1.6870 O.2   113  GLN113     -0.2867
     41  CB        31.9100   -1.6500    1.9190 C.3   113  GLN113      0.0367
     42  CG        32.1800   -2.8270    2.8160 C.3   113  GLN113      0.0905
     43  CD        31.3030   -2.8160    4.0600 C.2   113  GLN113      0.2608
     44  OE1       30.8080   -3.8570    4.4880 O.2   113  GLN113     -0.2717
     45  NE2       31.1160   -1.6400    4.6500 N.am  113  GLN113     -0.0878
     46  N         26.4430    0.1970    1.1050 N.3   116  TRP116     -0.1241
     47  CA        26.0340    0.3640    2.4960 C.3   116  TRP116      0.1605
     48  C         26.3770    1.7330    3.1040 C.2   116  TRP116      0.2264
     49  O         25.9080    2.0660    4.1940 O.2   116  TRP116     -0.2867
     50  CB        26.6560   -0.7450    3.3350 C.3   116  TRP116      0.0550
     51  CG        25.9180   -2.0330    3.1550 C.ar  116  TRP116      0.0003
     52  CD1       24.5860   -2.1760    2.9040 C.ar  116  TRP116      0.0946
     53  CD2       26.4660   -3.3600    3.1920 C.ar  116  TRP116      0.0152
     54  NE1       24.2660   -3.5060    2.7920 N.ar  116  TRP116     -0.2442
     55  CE2       25.4020   -4.2570    2.9630 C.ar  116  TRP116      0.0810
     56  CE3       27.7490   -3.8750    3.3980 C.ar  116  TRP116      0.0012
     57  CZ2       25.5800   -5.6430    2.9340 C.ar  116  TRP116      0.0191
     58  CZ3       27.9250   -5.2560    3.3700 C.ar  116  TRP116      0.0001
     59  CH2       26.8450   -6.1220    3.1400 C.ar  116  TRP116      0.0015
     60  N         36.6850    2.2390    7.6470 N.3   141  PHE141     -0.1241
     61  CA        35.4590    2.3050    8.4470 C.3   141  PHE141      0.1605
     62  C         35.6980    2.2850    9.9490 C.2   141  PHE141      0.2264
     63  O         36.3920    1.4070   10.4740 O.2   141  PHE141     -0.2867
     64  CB        34.5330    1.1410    8.0900 C.3   141  PHE141      0.0534
     65  CG        33.3270    1.0180    8.9910 C.ar  141  PHE141     -0.0203
     66  CD1       32.1890    1.7920    8.7710 C.ar  141  PHE141     -0.0042
     67  CD2       33.3150    0.1110   10.0410 C.ar  141  PHE141     -0.0042
     68  CE1       31.0650    1.6750    9.5850 C.ar  141  PHE141     -0.0003
     69  CE2       32.2010   -0.0110   10.8570 C.ar  141  PHE141     -0.0003
     70  CZ        31.0720    0.7780   10.6320 C.ar  141  PHE141     -0.0000
     71  N         33.5600    1.9130   13.3470 N.3   143  ASN143     -0.1240
     72  CA        32.2970    1.6360   14.0160 C.3   143  ASN143      0.1653
     73  C         32.1860    2.3770   15.3500 C.2   143  ASN143      0.2266
     74  O         33.1690    2.9670   15.8150 O.2   143  ASN143     -0.2867
     75  CB        32.1480    0.1260   14.2450 C.3   143  ASN143      0.1155
     76  CG        30.6980   -0.3420   14.1470 C.2   143  ASN143      0.2627
     77  OD1       29.7950    0.3050   14.6830 O.2   143  ASN143     -0.2716
     78  ND2       30.4670   -1.4490   13.4300 N.am  143  ASN143     -0.0877
     79  N         26.7440    7.6100    9.3110 N.3   170  LYS170     -0.1245
     80  CA        25.4130    7.0190    9.3950 C.3   170  LYS170      0.1561
     81  C         25.0350    6.4670   10.7620 C.2   170  LYS170      0.2260
     82  O         25.8790    6.1850   11.5870 O.2   170  LYS170     -0.2867
     83  CB        25.2610    5.9160    8.3380 C.3   170  LYS170      0.0271
     84  CG        25.8110    4.5680    8.7060 C.3   170  LYS170      0.0035
     85  CD        25.5170    3.5970    7.5800 C.3   170  LYS170      0.0206
     86  CE        25.9660    2.1820    7.9270 C.3   170  LYS170      0.1093
     87  NZ        25.6680    1.2040    6.8280 N.3   170  LYS170     -0.1314
     88  N         23.2020    3.3250   12.8450 N.3   172  PHE172     -0.1241
     89  CA        22.9290    1.9060   12.6440 C.3   172  PHE172      0.1605
     90  C         21.5510    1.5190   13.1710 C.2   172  PHE172      0.2264
     91  O         21.1430    0.3660   13.0640 O.2   172  PHE172     -0.2867
     92  CB        24.0060    1.0410   13.3050 C.3   172  PHE172      0.0534
     93  CG        25.2430    0.8830   12.4680 C.ar  172  PHE172     -0.0203
     94  CD1       25.2690   -0.0080   11.4010 C.ar  172  PHE172     -0.0042
     95  CD2       26.3820    1.6350   12.7350 C.ar  172  PHE172     -0.0042
     96  CE1       26.4130   -0.1460   10.6390 C.ar  172  PHE172     -0.0003
     97  CE2       27.5200    1.5010   11.9650 C.ar  172  PHE172     -0.0003
     98  CZ        27.5410    0.6170   10.9320 C.ar  172  PHE172     -0.0000
@<TRIPOS>BOND
     1    37    38    1
     2    39    38    1
     3    39    40    2
     4    46    47    1
     5    38    41    1
     6    28    29    1
     7    41    42    1
     8    47    48    1
     9    47    50    1
    10    29    30    1
    11    29    32    1
    12    54    52   ar
    13    54    55   ar
    14    42    43    1
    15    30    31    2
    16    52    51   ar
    17    57    55   ar
    18    57    59   ar
    19    55    53   ar
    20    48    49    2
    21    59    58   ar
    22    51    53   ar
    23    51    50    1
    24    53    56   ar
    25    58    56   ar
    26    32    33    1
    27    43    44    2
    28    43    45   am
    29    33    34    1
    30     5     6    1
    31     5     2    1
    32     7     9   ar
    33     7     6   ar
    34     4     3    2
    35     9    11   ar
    36     6     8   ar
    37     3     2    1
    38    34    35   ar
    39    34    36   ar
    40     2     1    1
    41    11    12    1
    42    11    10   ar
    43     8    10   ar
    44    87    86    1
    45    27    25    1
    46    85    86    1
    47    85    84    1
    48    60    61    1
    49    20    19    2
    50    19    18    1
    51    25    26    1
    52    25    24    2
    53    64    61    1
    54    64    65    1
    55    83    84    1
    56    83    80    1
    57    61    62    1
    58    24    23    1
    59    66    65   ar
    60    66    68   ar
    61    21    18    1
    62    21    22    1
    63    65    67   ar
    64    18    17    1
    65    79    80    1
    66    80    81    1
    67    23    22    1
    68    68    70   ar
    69    62    63    2
    70    67    69   ar
    71    70    69   ar
    72    96    98   ar
    73    96    94   ar
    74    13    14    1
    75    81    82    2
    76    98    97   ar
    77    14    15    1
    78    94    93   ar
    79    97    95   ar
    80    15    16    2
    81    93    95   ar
    82    93    92    1
    83    89    88    1
    84    89    90    1
    85    89    92    1
    86    91    90    2
    87    71    72    1
    88    78    76   am
    89    72    75    1
    90    72    73    1
    91    76    75    1
    92    76    77    2
    93    73    74    2
