@<TRIPOS>MOLECULE
tmp/5bocA00.pdb
 125 116 0 0 0
SMALL
GASTEIGER

@<TRIPOS>ATOM
      1  N         22.3890   28.6760   -2.5090 N.3    32  ILE32      -0.1245
      2  CA        22.0110   29.7940   -1.6530 C.3    32  ILE32       0.1561
      3  C         20.6940   30.4260   -2.1220 C.2    32  ILE32       0.2260
      4  O         19.7840   30.6510   -1.3210 O.2    32  ILE32      -0.2867
      5  CB        23.1260   30.8610   -1.6020 C.3    32  ILE32       0.0252
      6  CG1       24.4050   30.2530   -1.0200 C.3    32  ILE32       0.0019
      7  CG2       22.6970   32.0460   -0.7620 C.3    32  ILE32       0.0019
      8  CD1       24.2180   29.6900    0.3870 C.3    32  ILE32       0.0001
      9  N         17.3430   28.5010   -1.4460 N.3    35  ASN35      -0.1225
     10  CA        16.8480   28.6420   -0.0750 C.3    35  ASN35       0.1785
     11  C         15.9150   29.8490    0.0260 C.2    35  ASN35       0.2597
     12  O         14.8700   29.7890    0.6630 O.2    35  ASN35      -0.2718
     13  CB        17.9990   28.8040    0.9210 C.3    35  ASN35       0.1169
     14  CG        18.6540   27.4860    1.2870 C.2    35  ASN35       0.2627
     15  OD1       18.1640   26.7500    2.1470 O.2    35  ASN35      -0.2716
     16  ND2       19.7700   27.1830    0.6380 N.am   35  ASN35      -0.0877
     17  N         16.3040   30.9460   -0.6130 N.am   36  ALA36      -0.1979
     18  CA        15.4870   32.1510   -0.6220 C.3    36  ALA36       0.1597
     19  C         14.2180   31.9120   -1.4410 C.2    36  ALA36       0.2287
     20  O         13.1250   32.3150   -1.0490 O.2    36  ALA36      -0.2864
     21  CB        16.2800   33.3250   -1.1830 C.3    36  ALA36       0.0319
     22  N         11.5910   29.8510    0.3220 N.3    39  GLU39      -0.1245
     23  CA        10.8680   30.6970    1.2690 C.3    39  GLU39       0.1567
     24  C          9.7850   31.5200    0.6110 C.2    39  GLU39       0.2260
     25  O          8.6660   31.5980    1.1210 O.2    39  GLU39      -0.2867
     26  CB        11.8190   31.6400    1.9900 C.3    39  GLU39       0.0388
     27  CG        12.2780   31.0990    3.2980 C.3    39  GLU39       0.1160
     28  CD        11.1990   31.0950    4.3570 C.2    39  GLU39       0.3649
     29  OE1       10.6480   30.0080    4.6110 O.co2  39  GLU39      -0.2457
     30  OE2       10.9220   32.1600    4.9500 O.co2  39  GLU39      -0.2457
     31  N         23.2340   37.1710   -1.2350 N.3    60  VAL60      -0.1245
     32  CA        21.8310   36.9200   -1.5260 C.3    60  VAL60       0.1561
     33  C         20.9840   37.3390   -0.3370 C.2    60  VAL60       0.2260
     34  O         21.2250   36.9020    0.7850 O.2    60  VAL60      -0.2867
     35  CB        21.5650   35.4400   -1.8520 C.3    60  VAL60       0.0252
     36  CG1       20.0740   35.2100   -2.1160 C.3    60  VAL60       0.0019
     37  CG2       22.3990   35.0110   -3.0490 C.3    60  VAL60       0.0019
     38  N         16.9630   37.7870    1.1330 N.3    62  ASP62      -0.1239
     39  CA        15.5170   37.6900    1.0010 C.3    62  ASP62       0.1674
     40  C         14.8310   38.4540    2.1290 C.2    62  ASP62       0.2266
     41  O         15.4910   38.9820    3.0350 O.2    62  ASP62      -0.2867
     42  CB        15.0400   36.2230    0.9550 C.3    62  ASP62       0.1410
     43  CG        15.1700   35.4830    2.2920 C.2    62  ASP62       0.3668
     44  OD1       14.7490   35.9990    3.3540 O.co2  62  ASP62      -0.2456
     45  OD2       15.6510   34.3320    2.2630 O.co2  62  ASP62      -0.2456
     46  N         10.8440   34.9650    6.5880 N.3    65  ARG65      -0.1231
     47  CA        10.6850   34.9650    8.0460 C.3    65  ARG65       0.1694
     48  C         11.9960   35.1800    8.8060 C.2    65  ARG65       0.2593
     49  O         11.9890   35.6020    9.9660 O.2    65  ARG65      -0.2718
     50  CB        10.0390   33.6510    8.5020 C.3    65  ARG65       0.0321
     51  CG         8.5740   33.4830    8.0750 C.3    65  ARG65       0.0489
     52  CD         8.1120   32.0320    8.2120 C.3    65  ARG65       0.2205
     53  NE         8.8070   31.1480    7.2770 N.pl3  65  ARG65      -0.0865
     54  CZ         8.5780   29.8430    7.1590 C.cat  65  ARG65       0.5346
     55  NH1        7.6640   29.2540    7.9250 N.pl3  65  ARG65       0.1354
     56  NH2        9.2660   29.1250    6.2740 N.pl3  65  ARG65       0.1354
     57  N         13.1160   34.9050    8.1480 N.am   66  GLY66      -0.1942
     58  CA        14.4080   34.9320    8.8030 C.3    66  GLY66       0.2014
     59  C         14.6590   33.5790    9.4330 C.2    66  GLY66       0.2639
     60  O         13.7560   33.0030   10.0420 O.2    66  GLY66      -0.2714
     61  N         15.8700   33.0560    9.2610 N.am   67  MET67      -0.1963
     62  CA        16.2380   31.7730    9.8500 C.3    67  MET67       0.1722
     63  C         16.0860   31.8460   11.3600 C.2    67  MET67       0.2458
     64  O         16.2970   32.9050   11.9560 O.2    67  MET67      -0.2730
     65  CB        17.6750   31.3850    9.4760 C.3    67  MET67       0.0427
     66  CG        17.9130   31.1830    7.9830 C.3    67  MET67       0.0599
     67  SD        19.6030   30.6600    7.6050 S.3    67  MET67      -0.1393
     68  CE        19.6160   29.0080    8.2910 C.3    67  MET67       0.0692
     69  N         15.6910   30.7230   11.9790 N.am   68  PRO68      -0.2727
     70  CA        15.5500   30.6350   13.4380 C.3    68  PRO68       0.1402
     71  C         16.7940   31.1220   14.1560 C.2    68  PRO68       0.2269
     72  O         17.9110   30.7350   13.8250 O.2    68  PRO68      -0.2865
     73  CB        15.3230   29.1410   13.6770 C.3    68  PRO68       0.0296
     74  CG        14.6350   28.6820   12.4250 C.3    68  PRO68       0.0237
     75  CD        15.2480   29.4910   11.3020 C.3    68  PRO68       0.0939
     76  N         23.2080   24.3130   11.1880 N.3    82  ILE82      -0.1231
     77  CA        22.8540   24.2320    9.7700 C.3    82  ILE82       0.1692
     78  C         24.0560   24.4960    8.8500 C.2    82  ILE82       0.2592
     79  O         24.2100   23.8560    7.8050 O.2    82  ILE82      -0.2718
     80  CB        21.7210   25.2280    9.4380 C.3    82  ILE82       0.0266
     81  CG1       20.4440   24.8330   10.1860 C.3    82  ILE82       0.0019
     82  CG2       21.4600   25.2840    7.9380 C.3    82  ILE82       0.0020
     83  CD1       19.2820   25.7840    9.9740 C.3    82  ILE82       0.0001
     84  N         24.9160   25.4250    9.2490 N.am   83  PHE83      -0.1976
     85  CA        26.0400   25.8220    8.4140 C.3    83  PHE83       0.1639
     86  C         27.3140   24.9860    8.6210 C.2    83  PHE83       0.2290
     87  O         28.2790   25.1500    7.8750 O.2    83  PHE83      -0.2864
     88  CB        26.3600   27.3050    8.6450 C.3    83  PHE83       0.0560
     89  CG        25.5370   28.2410    7.8030 C.ar   83  PHE83      -0.0200
     90  CD1       25.8360   28.4280    6.4630 C.ar   83  PHE83      -0.0042
     91  CD2       24.4700   28.9380    8.3490 C.ar   83  PHE83      -0.0042
     92  CE1       25.0840   29.2840    5.6800 C.ar   83  PHE83      -0.0003
     93  CE2       23.7130   29.7980    7.5690 C.ar   83  PHE83      -0.0003
     94  CZ        24.0240   29.9760    6.2350 C.ar   83  PHE83      -0.0000
     95  N         23.5310   24.6270    2.4180 N.3    90  SER90      -0.1217
     96  CA        24.1600   25.7520    3.1010 C.3    90  SER90       0.1889
     97  C         25.5350   25.3820    3.6680 C.2    90  SER90       0.2288
     98  O         26.4860   26.1500    3.5450 O.2    90  SER90      -0.2866
     99  CB        23.2500   26.2740    4.2130 C.3    90  SER90       0.2089
    100  OG        22.8960   25.2340    5.1040 O.3    90  SER90      -0.2183
    101  N         14.7340   39.6410   12.3890 N.3   106  ARG106     -0.1245
    102  CA        13.3760   39.3410   12.8490 C.3   106  ARG106      0.1563
    103  C         13.1830   39.7490   14.3010 C.2   106  ARG106      0.2260
    104  O         14.1480   39.8860   15.0610 O.2   106  ARG106     -0.2867
    105  CB        13.0410   37.8510   12.6820 C.3   106  ARG106      0.0307
    106  CG        14.0750   36.8900   13.2580 C.3   106  ARG106      0.0489
    107  CD        13.6920   35.4360   12.9690 C.3   106  ARG106      0.2205
    108  NE        12.4900   35.0280   13.6970 N.pl3 106  ARG106     -0.0865
    109  CZ        11.8360   33.8870   13.4890 C.cat 106  ARG106      0.5346
    110  NH1       12.2630   33.0320   12.5690 N.pl3 106  ARG106      0.1354
    111  NH2       10.7490   33.6030   14.1970 N.pl3 106  ARG106      0.1354
    112  N         16.5930   37.0850    5.5730 N.3   138  THR138     -0.1218
    113  CA        17.8700   36.4070    5.7110 C.3   138  THR138      0.1862
    114  C         18.8060   36.8880    4.6150 C.2   138  THR138      0.2287
    115  O         18.4080   36.9730    3.4500 O.2   138  THR138     -0.2866
    116  CB        17.7170   34.8720    5.6190 C.3   138  THR138      0.1770
    117  OG1       16.7420   34.4240    6.5710 O.3   138  THR138     -0.2211
    118  CG2       19.0480   34.1740    5.8750 C.3   138  THR138      0.0375
    119  N         22.8480   36.2040    3.1550 N.3   140  VAL140     -0.1245
    120  CA        24.0800   35.4330    3.2190 C.3   140  VAL140      0.1561
    121  C         25.0720   35.9740    2.2070 C.2   140  VAL140      0.2260
    122  O         24.7350   36.1790    1.0380 O.2   140  VAL140     -0.2867
    123  CB        23.8370   33.9210    2.9550 C.3   140  VAL140      0.0252
    124  CG1       25.1570   33.1530    2.9470 C.3   140  VAL140      0.0019
    125  CG2       22.8830   33.3310    3.9980 C.3   140  VAL140      0.0019
@<TRIPOS>BOND
     1    37    35    1
     2     1     2    1
     3     3     2    1
     4     3     4    2
     5    36    35    1
     6    35    32    1
     7     2     5    1
     8     5     6    1
     9     5     7    1
    10    32    31    1
    11    32    33    1
    12     9    10    1
    13    19    20    2
    14    19    18    1
    15    21    18    1
    16     6     8    1
    17    18    17    1
    18    17    11   am
    19    33    34    2
    20    10    11    1
    21    10    13    1
    22    11    12    2
    23    22    23    1
    24    24    25    2
    25    24    23    1
    26    16    14   am
    27    13    14    1
    28    42    39    1
    29    42    43    1
    30    39    38    1
    31    39    40    1
    32   122   121    2
    33    23    26    1
    34    14    15    2
    35    26    27    1
    36    40    41    2
    37   121   120    1
    38    45    43   ar
    39    43    44   ar
    40    95    96    1
    41   124   123    1
    42   123   120    1
    43   123   125    1
    44    96    97    1
    45    96    99    1
    46   119   120    1
    47    27    28    1
    48   115   114    2
    49    98    97    2
    50    99   100    1
    51    28    29   ar
    52    28    30   ar
    53   114   113    1
    54   112   113    1
    55   116   113    1
    56   116   118    1
    57   116   117    1
    58    92    94   ar
    59    92    90   ar
    60    94    93   ar
    61    56    54    1
    62    90    89   ar
    63    46    47    1
    64    54    53    2
    65    54    55    1
    66    53    52    1
    67    93    91   ar
    68    67    66    1
    69    67    68    1
    70    89    91   ar
    71    89    88    1
    72    79    78    2
    73    87    86    2
    74    82    80    1
    75    66    65    1
    76    47    50    1
    77    47    48    1
    78    51    52    1
    79    51    50    1
    80    57    58    1
    81    57    48   am
    82    85    86    1
    83    85    88    1
    84    85    84    1
    85    58    59    1
    86    48    49    2
    87    78    84   am
    88    78    77    1
    89    61    59   am
    90    61    62    1
    91    59    60    2
    92    80    77    1
    93    80    81    1
    94    65    62    1
    95    77    76    1
    96    62    63    1
    97    83    81    1
    98    75    69    1
    99    75    74    1
   100    63    64    2
   101    63    69   am
   102    69    70    1
   103   101   102    1
   104    74    73    1
   105   110   109    1
   106   105   102    1
   107   105   106    1
   108   102   103    1
   109   107   106    1
   110   107   108    1
   111    70    73    1
   112    70    71    1
   113   109   108    2
   114   109   111    1
   115    72    71    2
   116   103   104    2
