@<TRIPOS>MOLECULE
tmp/5bodA00.pdb
 125 116 0 0 0
SMALL
GASTEIGER

@<TRIPOS>ATOM
      1  N         14.5350   18.6250   58.5720 N.3    32  ILE32      -0.1245
      2  CA        14.9300   17.5200   59.4360 C.3    32  ILE32       0.1561
      3  C         16.1980   16.8360   58.9280 C.2    32  ILE32       0.2260
      4  O         17.0920   16.5100   59.7090 O.2    32  ILE32      -0.2867
      5  CB        13.7990   16.4820   59.5580 C.3    32  ILE32       0.0252
      6  CG1       12.5300   17.1460   60.0990 C.3    32  ILE32       0.0019
      7  CG2       14.2180   15.3380   60.4620 C.3    32  ILE32       0.0019
      8  CD1       12.7170   17.8090   61.4530 C.3    32  ILE32       0.0001
      9  N         19.4780   18.8400   59.5110 N.3    35  ASN35      -0.1225
     10  CA        19.9880   18.6870   60.8680 C.3    35  ASN35       0.1785
     11  C         20.9320   17.4960   60.9710 C.2    35  ASN35       0.2597
     12  O         22.0230   17.6020   61.5280 O.2    35  ASN35      -0.2718
     13  CB        18.8400   18.5330   61.8650 C.3    35  ASN35       0.1169
     14  CG        18.1130   19.8380   62.1190 C.2    35  ASN35       0.2627
     15  OD1       18.7090   20.9130   62.0650 O.2    35  ASN35      -0.2716
     16  ND2       16.8170   19.7510   62.3960 N.am   35  ASN35      -0.0877
     17  N         20.5030   16.3620   60.4260 N.am   36  ALA36      -0.1979
     18  CA        21.3330   15.1660   60.3980 C.3    36  ALA36       0.1597
     19  C         22.5880   15.4140   59.5630 C.2    36  ALA36       0.2287
     20  O         23.6870   15.0130   59.9450 O.2    36  ALA36      -0.2864
     21  CB        20.5460   13.9860   59.8470 C.3    36  ALA36       0.0319
     22  N         25.1330   17.5850   61.3010 N.3    39  GLU39      -0.1245
     23  CA        25.8250   16.7790   62.2980 C.3    39  GLU39       0.1567
     24  C         26.9150   15.9230   61.6600 C.2    39  GLU39       0.2260
     25  O         28.0120   15.7860   62.2050 O.2    39  GLU39      -0.2867
     26  CB        24.8300   15.8930   63.0460 C.3    39  GLU39       0.0388
     27  CG        25.4610   15.0280   64.1210 C.3    39  GLU39       0.1160
     28  CD        25.7370   15.7860   65.4060 C.2    39  GLU39       0.3649
     29  OE1       25.5610   17.0220   65.4280 O.co2  39  GLU39      -0.2457
     30  OE2       26.1310   15.1390   66.4000 O.co2  39  GLU39      -0.2457
     31  N         13.6000   10.2260   59.8450 N.3    60  VAL60      -0.1245
     32  CA        15.0050   10.5050   59.5750 C.3    60  VAL60       0.1561
     33  C         15.8520   10.0890   60.7720 C.2    60  VAL60       0.2260
     34  O         15.6450   10.5690   61.8830 O.2    60  VAL60      -0.2867
     35  CB        15.2520   11.9900   59.2680 C.3    60  VAL60       0.0252
     36  CG1       16.7160   12.2210   58.9230 C.3    60  VAL60       0.0019
     37  CG2       14.3570   12.4520   58.1280 C.3    60  VAL60       0.0019
     38  N         19.8730    9.5590   62.1920 N.3    62  ASP62      -0.1239
     39  CA        21.3150    9.6780   62.0230 C.3    62  ASP62       0.1674
     40  C         22.0230    8.9620   63.1620 C.2    62  ASP62       0.2266
     41  O         21.3840    8.4050   64.0580 O.2    62  ASP62      -0.2867
     42  CB        21.7630   11.1480   61.9400 C.3    62  ASP62       0.1410
     43  CG        21.5180   11.9360   63.2300 C.2    62  ASP62       0.3668
     44  OD1       21.9330   11.4980   64.3270 O.co2  62  ASP62      -0.2456
     45  OD2       20.9300   13.0330   63.1340 O.co2  62  ASP62      -0.2456
     46  N         25.8350   12.6910   67.5610 N.3    65  ARG65      -0.1231
     47  CA        25.9790   12.7050   69.0150 C.3    65  ARG65       0.1694
     48  C         24.6490   12.5400   69.7440 C.2    65  ARG65       0.2593
     49  O         24.6160   12.1950   70.9270 O.2    65  ARG65      -0.2718
     50  CB        26.6490   14.0040   69.4630 C.3    65  ARG65       0.0321
     51  CG        28.1040   14.1200   69.0540 C.3    65  ARG65       0.0489
     52  CD        28.5990   15.5530   69.1670 C.3    65  ARG65       0.2205
     53  NE        27.9920   16.4250   68.1660 N.pl3  65  ARG65      -0.0865
     54  CZ        28.2830   17.7140   68.0270 C.cat  65  ARG65       0.5346
     55  NH1       29.1760   18.2820   68.8280 N.pl3  65  ARG65       0.1354
     56  NH2       27.6840   18.4350   67.0880 N.pl3  65  ARG65       0.1354
     57  N         23.5550   12.7870   69.0340 N.am   66  GLY66      -0.1942
     58  CA        22.2430   12.8000   69.6490 C.3    66  GLY66       0.2014
     59  C         21.9480   14.1860   70.1880 C.2    66  GLY66       0.2639
     60  O         22.8500   14.8730   70.6640 O.2    66  GLY66      -0.2714
     61  N         20.6880   14.6020   70.1010 N.am   67  MET67      -0.1963
     62  CA        20.2610   15.8890   70.6400 C.3    67  MET67       0.1722
     63  C         20.4810   15.9290   72.1520 C.2    67  MET67       0.2458
     64  O         20.6500   14.8820   72.7760 O.2    67  MET67      -0.2730
     65  CB        18.7880   16.1450   70.3020 C.3    67  MET67       0.0427
     66  CG        18.4930   16.2010   68.8130 C.3    67  MET67       0.0599
     67  SD        16.7880   16.6860   68.4860 S.3    67  MET67      -0.1393
     68  CE        16.8180   18.3970   69.0160 C.3    67  MET67       0.0692
     69  N         20.4990   17.1360   72.7470 N.am   68  PRO68      -0.2727
     70  CA        20.6900   17.2210   74.2010 C.3    68  PRO68       0.1402
     71  C         19.6130   16.4720   74.9830 C.2    68  PRO68       0.2269
     72  O         18.4200   16.6390   74.7190 O.2    68  PRO68      -0.2865
     73  CB        20.6130   18.7270   74.4780 C.3    68  PRO68       0.0296
     74  CG        21.0110   19.3650   73.1970 C.3    68  PRO68       0.0237
     75  CD        20.4750   18.4700   72.1190 C.3    68  PRO68       0.0939
     76  N         13.6430   23.0630   72.0970 N.3    82  ILE82      -0.1231
     77  CA        14.0140   23.1430   70.6880 C.3    82  ILE82       0.1692
     78  C         12.8180   22.8660   69.7740 C.2    82  ILE82       0.2592
     79  O         12.7020   23.4450   68.6930 O.2    82  ILE82      -0.2718
     80  CB        15.1620   22.1540   70.3580 C.3    82  ILE82       0.0266
     81  CG1       16.3980   22.4710   71.2050 C.3    82  ILE82       0.0019
     82  CG2       15.5090   22.1830   68.8730 C.3    82  ILE82       0.0020
     83  CD1       17.5520   21.5140   70.9940 C.3    82  ILE82       0.0001
     84  N         11.9170   21.9970   70.2220 N.am   83  PHE83      -0.1976
     85  CA        10.7910   21.5770   69.3930 C.3    83  PHE83       0.1639
     86  C          9.5060   22.3810   69.6110 C.2    83  PHE83       0.2290
     87  O          8.5430   22.2080   68.8670 O.2    83  PHE83      -0.2864
     88  CB        10.4990   20.0890   69.6220 C.3    83  PHE83       0.0560
     89  CG        11.3240   19.1700   68.7650 C.ar   83  PHE83      -0.0200
     90  CD1       10.9650   18.9210   67.4500 C.ar   83  PHE83      -0.0042
     91  CD2       12.4540   18.5530   69.2730 C.ar   83  PHE83      -0.0042
     92  CE1       11.7210   18.0750   66.6570 C.ar   83  PHE83      -0.0003
     93  CE2       13.2150   17.7070   68.4870 C.ar   83  PHE83      -0.0003
     94  CZ        12.8480   17.4670   67.1770 C.ar   83  PHE83      -0.0000
     95  N         13.4150   22.8730   63.6520 N.3    90  SER90      -0.1217
     96  CA        12.7690   21.7040   64.2400 C.3    90  SER90       0.1889
     97  C         11.3550   22.0250   64.7150 C.2    90  SER90       0.2288
     98  O         10.4230   21.2500   64.4940 O.2    90  SER90      -0.2866
     99  CB        13.6010   21.1700   65.4070 C.3    90  SER90       0.2089
    100  OG        14.9540   21.0010   65.0280 O.3    90  SER90      -0.2183
    101  N         22.1700    7.8390   73.4970 N.3   106  ARG106     -0.1245
    102  CA        23.5180    8.1800   73.9570 C.3   106  ARG106      0.1563
    103  C         23.7550    7.7080   75.3860 C.2   106  ARG106      0.2260
    104  O         22.8140    7.5620   76.1670 O.2   106  ARG106     -0.2867
    105  CB        23.7750    9.6890   73.8630 C.3   106  ARG106      0.0307
    106  CG        22.7430   10.5600   74.5560 C.3   106  ARG106      0.0489
    107  CD        22.9340   12.0240   74.1800 C.3   106  ARG106      0.2205
    108  NE        24.2020   12.5590   74.6700 N.pl3 106  ARG106     -0.0865
    109  CZ        24.6700   13.7650   74.3650 C.cat 106  ARG106      0.5346
    110  NH1       23.9750   14.5650   73.5670 N.pl3 106  ARG106      0.1354
    111  NH2       25.8340   14.1700   74.8550 N.pl3 106  ARG106      0.1354
    112  N         20.1830   10.3750   66.6010 N.3   138  THR138     -0.1218
    113  CA        18.8820   11.0210   66.7320 C.3   138  THR138      0.1862
    114  C         17.9210   10.4760   65.6830 C.2   138  THR138      0.2287
    115  O         18.2660   10.3860   64.5050 O.2   138  THR138     -0.2866
    116  CB        18.9810   12.5540   66.5750 C.3   138  THR138      0.1770
    117  OG1       19.8700   13.0870   67.5630 O.3   138  THR138     -0.2211
    118  CG2       17.6120   13.2060   66.7260 C.3   138  THR138      0.0375
    119  N         13.9780   11.1100   64.2240 N.3   140  VAL140     -0.1245
    120  CA        12.7940   11.9560   64.2370 C.3   140  VAL140      0.1561
    121  C         11.7760   11.4550   63.2220 C.2   140  VAL140      0.2260
    122  O         12.0950   11.2700   62.0450 O.2   140  VAL140     -0.2867
    123  CB        13.1400   13.4350   63.9340 C.3   140  VAL140      0.0252
    124  CG1       11.8710   14.2580   63.7710 C.3   140  VAL140      0.0019
    125  CG2       14.0250   14.0230   65.0290 C.3   140  VAL140      0.0019
@<TRIPOS>BOND
     1    37    35    1
     2     1     2    1
     3    36    35    1
     4     3     2    1
     5     3     4    2
     6    35    32    1
     7     2     5    1
     8     9    10    1
     9     5     6    1
    10     5     7    1
    11    19    20    2
    12    19    18    1
    13    32    31    1
    14    32    33    1
    15    21    18    1
    16     6     8    1
    17    18    17    1
    18    17    11   am
    19    33    34    2
    20    10    11    1
    21    10    13    1
    22    11    12    2
    23    22    23    1
    24    24    25    2
    25    24    23    1
    26    13    14    1
    27    42    39    1
    28    42    43    1
    29    39    38    1
    30    39    40    1
    31   122   121    2
    32    15    14    2
    33    14    16   am
    34    23    26    1
    35    26    27    1
    36    45    43   ar
    37    40    41    2
    38   121   120    1
    39    43    44   ar
    40    95    96    1
    41   124   123    1
    42   123   120    1
    43   123   125    1
    44    27    28    1
    45   119   120    1
    46    96    97    1
    47    96    99    1
    48    98    97    2
    49   115   114    2
    50   100    99    1
    51    28    29   ar
    52    28    30   ar
    53   114   113    1
    54   116   118    1
    55   116   113    1
    56   116   117    1
    57   112   113    1
    58    92    94   ar
    59    92    90   ar
    60    56    54    1
    61    94    93   ar
    62    90    89   ar
    63    46    47    1
    64    54    53    2
    65    54    55    1
    66    53    52    1
    67    67    66    1
    68    67    68    1
    69    93    91   ar
    70    79    78    2
    71    89    91   ar
    72    89    88    1
    73    66    65    1
    74    87    86    2
    75    82    80    1
    76    47    50    1
    77    47    48    1
    78    57    58    1
    79    57    48   am
    80    51    52    1
    81    51    50    1
    82    85    86    1
    83    85    88    1
    84    85    84    1
    85    58    59    1
    86    48    49    2
    87    78    84   am
    88    78    77    1
    89    61    59   am
    90    61    62    1
    91    59    60    2
    92    65    62    1
    93    80    77    1
    94    80    81    1
    95    62    63    1
    96    77    76    1
    97    83    81    1
    98    75    69    1
    99    75    74    1
   100    63    69   am
   101    63    64    2
   102    69    70    1
   103    74    73    1
   104   101   102    1
   105   110   109    1
   106   105   102    1
   107   105   106    1
   108   102   103    1
   109   107   106    1
   110   107   108    1
   111    70    73    1
   112    70    71    1
   113   109   108    2
   114   109   111    1
   115    72    71    2
   116   103   104    2
