@<TRIPOS>MOLECULE
tmp/5boeB00.pdb
 127 118 0 0 0
SMALL
GASTEIGER

@<TRIPOS>ATOM
      1  N        -32.8560  -26.2440   25.6140 N.3    39  SER39      -0.1217
      2  CA       -33.4960  -26.8810   24.4630 C.3    39  SER39       0.1889
      3  C        -34.5860  -25.9650   23.9970 C.2    39  SER39       0.2288
      4  O        -35.0810  -25.1630   24.7710 O.2    39  SER39      -0.2866
      5  CB       -34.0770  -28.2530   24.8430 C.3    39  SER39       0.2089
      6  OG       -35.0680  -28.1380   25.8480 O.3    39  SER39      -0.2183
      7  N        -45.9590  -37.0800   29.6300 N.3   157  HIS157     -0.1241
      8  CA       -44.7280  -37.3080   30.3980 C.3   157  HIS157      0.1621
      9  C        -44.9070  -38.4140   31.4130 C.2   157  HIS157      0.2264
     10  O        -44.1530  -38.5050   32.3760 O.2   157  HIS157     -0.2867
     11  CB       -44.2930  -36.0250   31.1130 C.3   157  HIS157      0.0745
     12  CG       -43.9100  -34.9210   30.1820 C.ar  157  HIS157      0.0817
     13  ND1      -43.6700  -33.6390   30.6120 N.ar  157  HIS157     -0.2268
     14  CD2      -43.7620  -34.9000   28.8360 C.ar  157  HIS157      0.1154
     15  CE1      -43.3570  -32.8760   29.5790 C.ar  157  HIS157      0.1986
     16  NE2      -43.4160  -33.6170   28.4860 N.ar  157  HIS157     -0.2212
     17  N        -50.1200  -32.4450   32.6530 N.3   165  GLN165     -0.1231
     18  CA       -48.7130  -32.7490   32.4270 C.3   165  GLN165      0.1698
     19  C        -47.8420  -32.6470   33.6750 C.2   165  GLN165      0.2592
     20  O        -46.9000  -33.4370   33.8720 O.2   165  GLN165     -0.2718
     21  CB       -48.1690  -31.7920   31.3730 C.3   165  GLN165      0.0381
     22  CG       -46.8140  -32.1890   30.8510 C.3   165  GLN165      0.0905
     23  CD       -46.3850  -31.3050   29.7080 C.2   165  GLN165      0.2608
     24  OE1      -45.7730  -30.2580   29.9300 O.2   165  GLN165     -0.2717
     25  NE2      -46.6910  -31.7130   28.4900 N.am  165  GLN165     -0.0878
     26  N        -48.1480  -31.6860   34.5370 N.am  166  GLU166     -0.1979
     27  CA       -47.2790  -31.4340   35.6750 C.3   166  GLU166      0.1602
     28  C        -48.0210  -30.9250   36.9100 C.2   166  GLU166      0.2287
     29  O        -48.9590  -30.1350   36.8090 O.2   166  GLU166     -0.2864
     30  CB       -46.2240  -30.4340   35.2370 C.3   166  GLU166      0.0415
     31  CG       -45.4050  -29.8390   36.3260 C.3   166  GLU166      0.1163
     32  CD       -44.3970  -28.8400   35.7850 C.2   166  GLU166      0.3649
     33  OE1      -44.6690  -28.1530   34.7680 O.co2 166  GLU166     -0.2457
     34  OE2      -43.3280  -28.7420   36.4040 O.co2 166  GLU166     -0.2457
     35  N        -37.1670  -33.2930   34.3330 N.3   207  GLU207     -0.1245
     36  CA       -37.1020  -32.1900   35.3030 C.3   207  GLU207      0.1567
     37  C        -36.7410  -32.6090   36.7280 C.2   207  GLU207      0.2260
     38  O        -36.7470  -31.7810   37.6250 O.2   207  GLU207     -0.2867
     39  CB       -38.4320  -31.4180   35.3580 C.3   207  GLU207      0.0388
     40  CG       -39.0270  -31.1240   34.0060 C.3   207  GLU207      0.1160
     41  CD       -40.0770  -32.1460   33.5840 C.2   207  GLU207      0.3649
     42  OE1      -41.0100  -31.7140   32.8930 O.co2 207  GLU207     -0.2457
     43  OE2      -39.9790  -33.3730   33.8990 O.co2 207  GLU207     -0.2457
     44  N        -49.3900  -27.5870   35.6520 N.3   244  ASP244     -0.1239
     45  CA       -49.2380  -27.3050   34.2110 C.3   244  ASP244      0.1674
     46  C        -50.1190  -28.3270   33.4900 C.2   244  ASP244      0.2266
     47  O        -49.7720  -29.4980   33.3350 O.2   244  ASP244     -0.2867
     48  CB       -47.7890  -27.3560   33.7120 C.3   244  ASP244      0.1410
     49  CG       -47.6660  -27.0640   32.2060 C.2   244  ASP244      0.3668
     50  OD1      -48.6920  -26.7710   31.5520 O.co2 244  ASP244     -0.2456
     51  OD2      -46.5420  -27.1330   31.6670 O.co2 244  ASP244     -0.2456
     52  N        -51.0890  -23.4360   34.8480 N.3   291  GLU291     -0.1245
     53  CA       -50.4670  -23.0930   33.5830 C.3   291  GLU291      0.1567
     54  C        -51.1930  -23.8240   32.4450 C.2   291  GLU291      0.2260
     55  O        -51.4510  -25.0270   32.5160 O.2   291  GLU291     -0.2867
     56  CB       -48.9770  -23.4670   33.6330 C.3   291  GLU291      0.0388
     57  CG       -48.1880  -23.2160   32.3600 C.3   291  GLU291      0.1160
     58  CD       -46.7760  -23.7560   32.4720 C.2   291  GLU291      0.3649
     59  OE1      -46.2440  -23.7300   33.6040 O.co2 291  GLU291     -0.2457
     60  OE2      -46.2170  -24.2310   31.4710 O.co2 291  GLU291     -0.2457
     61  N        -48.2530  -20.2770   28.8520 N.3   318  ASP318     -0.1239
     62  CA       -46.9850  -20.7790   28.3220 C.3   318  ASP318      0.1674
     63  C        -47.1310  -20.9300   26.8160 C.2   318  ASP318      0.2266
     64  O        -46.7320  -20.0280   26.0760 O.2   318  ASP318     -0.2867
     65  CB       -46.5950  -22.1030   29.0100 C.3   318  ASP318      0.1410
     66  CG       -45.3950  -22.7930   28.3770 C.2   318  ASP318      0.3668
     67  OD1      -44.5560  -22.1370   27.7100 O.co2 318  ASP318     -0.2456
     68  OD2      -45.2700  -24.0250   28.5710 O.co2 318  ASP318     -0.2456
     69  N        -45.2150  -17.4150   31.3580 N.3   341  LEU341     -0.1245
     70  CA       -43.9800  -18.1800   31.4960 C.3   341  LEU341      0.1561
     71  C        -42.9500  -17.6530   30.5110 C.2   341  LEU341      0.2260
     72  O        -43.1850  -17.6560   29.3090 O.2   341  LEU341     -0.2867
     73  CB       -44.2600  -19.6590   31.2320 C.3   341  LEU341      0.0270
     74  CG       -43.2150  -20.6120   31.7650 C.3   341  LEU341      0.0019
     75  CD1      -43.1590  -20.5870   33.2920 C.3   341  LEU341      0.0001
     76  CD2      -43.4980  -22.0210   31.2840 C.3   341  LEU341      0.0001
     77  N        -39.5180  -17.8320   28.6800 N.3   343  LYS343     -0.1245
     78  CA       -38.4790  -18.7640   28.2090 C.3   343  LYS343      0.1561
     79  C        -37.5150  -17.9610   27.3440 C.2   343  LYS343      0.2260
     80  O        -37.8460  -17.5700   26.2290 O.2   343  LYS343     -0.2867
     81  CB       -39.1150  -19.9200   27.4500 C.3   343  LYS343      0.0271
     82  CG       -39.8450  -20.9220   28.3550 C.3   343  LYS343      0.0035
     83  CD       -40.7050  -21.8730   27.5670 C.3   343  LYS343      0.0206
     84  CE       -41.1780  -22.9990   28.4780 C.3   343  LYS343      0.1093
     85  NZ       -42.2140  -23.8400   27.8570 N.3   343  LYS343     -0.1314
     86  N        -38.4370  -19.2590   33.3770 N.3   370  SER370     -0.1202
     87  CA       -38.5450  -20.7040   33.2300 C.3   370  SER370      0.2020
     88  C        -37.3350  -21.4400   32.6520 C.2   370  SER370      0.2619
     89  O        -36.6320  -20.9460   31.7570 O.2   370  SER370     -0.2717
     90  CB       -39.7470  -21.0130   32.3400 C.3   370  SER370      0.2103
     91  OG       -40.0350  -22.3970   32.2520 O.3   370  SER370     -0.2182
     92  N        -37.1560  -22.6530   33.1470 N.am  371  HIS371     -0.1961
     93  CA       -36.2940  -23.6460   32.5130 C.3   371  HIS371      0.1787
     94  C        -36.9270  -24.2020   31.2240 C.2   371  HIS371      0.2620
     95  O        -38.0940  -23.8950   30.8920 O.2   371  HIS371     -0.2715
     96  CB       -35.9870  -24.7900   33.4830 C.3   371  HIS371      0.0785
     97  CG       -37.1700  -25.6280   33.8740 C.ar  371  HIS371      0.0821
     98  ND1      -37.0360  -26.7980   34.5840 N.ar  371  HIS371     -0.2267
     99  CD2      -38.5020  -25.4760   33.6690 C.ar  371  HIS371      0.1154
    100  CE1      -38.2210  -27.3350   34.7970 C.ar  371  HIS371      0.1986
    101  NE2      -39.1360  -26.5560   34.2460 N.ar  371  HIS371     -0.2212
    102  N        -36.1630  -25.0300   30.5220 N.am  372  ARG372     -0.1963
    103  CA       -36.6930  -25.9040   29.4720 C.3   372  ARG372      0.1729
    104  C        -36.4400  -27.3530   29.8500 C.2   372  ARG372      0.2616
    105  O        -35.6700  -27.6290   30.7660 O.2   372  ARG372     -0.2715
    106  CB       -36.0080  -25.6370   28.1120 C.3   372  ARG372      0.0348
    107  CG       -36.0440  -24.1950   27.6640 C.3   372  ARG372      0.0492
    108  CD       -37.4560  -23.6950   27.4320 C.3   372  ARG372      0.2205
    109  NE       -38.3190  -24.4690   26.5410 N.pl3 372  ARG372     -0.0865
    110  CZ       -38.6310  -24.1530   25.2730 C.cat 372  ARG372      0.5346
    111  NH1      -38.0820  -23.1190   24.6340 N.pl3 372  ARG372      0.1354
    112  NH2      -39.5050  -24.9140   24.6080 N.pl3 372  ARG372      0.1354
    113  N        -37.0720  -28.2700   29.1170 N.am  373  SER373     -0.1950
    114  CA       -36.8820  -29.7170   29.3260 C.3   373  SER373      0.1924
    115  C        -35.4030  -30.1120   29.2490 C.2   373  SER373      0.2314
    116  O        -34.9200  -30.8990   30.0750 O.2   373  SER373     -0.2863
    117  CB       -37.7160  -30.5370   28.3230 C.3   373  SER373      0.2116
    118  OG       -37.2890  -30.3820   26.9790 O.3   373  SER373     -0.2180
    119  N        -39.5900  -21.0340   37.6970 N.3   394  LYS394     -0.1245
    120  CA       -39.9380  -22.4200   37.4360 C.3   394  LYS394      0.1561
    121  C        -38.7160  -23.0970   36.8600 C.2   394  LYS394      0.2260
    122  O        -38.3890  -22.8880   35.6930 O.2   394  LYS394     -0.2867
    123  CB       -41.1050  -22.5100   36.4690 C.3   394  LYS394      0.0271
    124  CG       -41.5920  -23.9330   36.2680 C.3   394  LYS394      0.0035
    125  CD       -42.6670  -23.9730   35.1820 C.3   394  LYS394      0.0206
    126  CE       -43.1130  -25.3790   34.9070 C.3   394  LYS394      0.1093
    127  NZ       -44.1290  -25.4580   33.8270 N.3   394  LYS394     -0.1314
@<TRIPOS>BOND
     1     3     2    1
     2     3     4    2
     3     2     5    1
     4     2     1    1
     5   112   110    1
     6   111   110    1
     7     5     6    1
     8   110   109    2
     9    64    63    2
    10    80    79    2
    11   109   108    1
    12    63    62    1
    13   118   117    1
    14    79    78    1
    15   108   107    1
    16    81    78    1
    17    81    82    1
    18    83    82    1
    19    83    84    1
    20   107   106    1
    21    67    66   ar
    22    85    84    1
    23   106   103    1
    24    78    77    1
    25    62    61    1
    26    62    65    1
    27   117   114    1
    28    66    68   ar
    29    66    65    1
    30    16    14   ar
    31    16    15   ar
    32    25    23   am
    33    14    12   ar
    34   113   114    1
    35   113   104   am
    36   115   114    1
    37   115   116    2
    38    72    71    2
    39   103   104    1
    40   103   102    1
    41    15    13   ar
    42     7     8    1
    43    23    24    2
    44    23    22    1
    45   104   105    2
    46    12    13   ar
    47    12    11    1
    48     8    11    1
    49     8     9    1
    50    71    70    1
    51   102    94   am
    52    22    21    1
    53    95    94    2
    54    94    93    1
    55    73    70    1
    56    73    74    1
    57    76    74    1
    58    69    70    1
    59    21    18    1
    60     9    10    2
    61    60    58   ar
    62    50    49   ar
    63    51    49   ar
    64    89    88    2
    65    74    75    1
    66    49    48    1
    67    91    90    1
    68    90    87    1
    69    57    58    1
    70    57    56    1
    71    18    17    1
    72    18    19    1
    73    54    55    2
    74    54    53    1
    75    58    59   ar
    76    93    92    1
    77    93    96    1
    78    88    92   am
    79    88    87    1
    80    42    41   ar
    81    87    86    1
    82    47    46    2
    83    96    97    1
    84    46    45    1
    85    53    56    1
    86    53    52    1
    87    41    43   ar
    88    41    40    1
    89    99    97   ar
    90    99   101   ar
    91    19    20    2
    92    19    26   am
    93    48    45    1
    94   127   126    1
    95    97    98   ar
    96    40    39    1
    97    45    44    1
    98   101   100   ar
    99    35    36    1
   100    26    27    1
   101    98   100   ar
   102    33    32   ar
   103   126   125    1
   104   125   124    1
   105    30    27    1
   106    30    31    1
   107    36    39    1
   108    36    37    1
   109    27    28    1
   110   122   121    2
   111    32    31    1
   112    32    34   ar
   113   124   123    1
   114   123   120    1
   115    37    38    2
   116    29    28    2
   117   121   120    1
   118   120   119    1
