@<TRIPOS>MOLECULE
tmp/5bojA00.pdb
 69 63 0 0 0
SMALL
GASTEIGER

@<TRIPOS>ATOM
      1  N         -0.9940    7.6220    2.5290 N.3     6  LYS6       -0.1245
      2  CA        -2.0170    6.5840    2.4330 C.3     6  LYS6        0.1561
      3  C         -2.6590    6.3880    3.7910 C.2     6  LYS6        0.2260
      4  O         -1.9820    6.3260    4.8110 O.2     6  LYS6       -0.2867
      5  CB        -1.4250    5.2750    1.9120 C.3     6  LYS6        0.0271
      6  CG        -2.4800    4.1780    1.7020 C.3     6  LYS6        0.0035
      7  CD        -2.0600    3.1900    0.6340 C.3     6  LYS6        0.0206
      8  CE        -3.2260    2.3080    0.1580 C.3     6  LYS6        0.1093
      9  NZ        -2.7690    1.2560   -0.7890 N.3     6  LYS6       -0.1314
     10  N         -5.6410    4.1790    5.9710 N.3     8  LEU8       -0.1245
     11  CA        -6.6120    3.1010    6.1720 C.3     8  LEU8        0.1561
     12  C         -7.4920    3.2830    7.4160 C.2     8  LEU8        0.2260
     13  O         -7.0980    3.8760    8.4270 O.2     8  LEU8       -0.2867
     14  CB        -5.8760    1.7760    6.2880 C.3     8  LEU8        0.0270
     15  CG        -4.9560    1.4160    5.1170 C.3     8  LEU8        0.0019
     16  CD1       -4.2690    0.0790    5.3990 C.3     8  LEU8        0.0001
     17  CD2       -5.7330    1.3660    3.8330 C.3     8  LEU8        0.0001
     18  N          6.7020    7.7700    1.6260 N.3    97  THR97      -0.1218
     19  CA         5.2980    7.3900    1.8020 C.3    97  THR97       0.1862
     20  C          4.9750    7.4710    3.2840 C.2    97  THR97       0.2287
     21  O          5.6520    6.8770    4.1060 O.2    97  THR97      -0.2866
     22  CB         4.9780    5.9790    1.2830 C.3    97  THR97       0.1770
     23  OG1        5.1840    5.8950   -0.1300 O.3    97  THR97      -0.2211
     24  CG2        3.5410    5.6490    1.5480 C.3    97  THR97       0.0375
     25  N          2.0700    6.5960    5.9070 N.3    99  ALA99      -0.1231
     26  CA         0.9120    5.7390    6.0140 C.3    99  ALA99       0.1694
     27  C          0.3370    5.9230    7.4060 C.2    99  ALA99       0.2592
     28  O          1.1010    6.1530    8.3390 O.2    99  ALA99      -0.2718
     29  CB         1.2850    4.2730    5.7600 C.3    99  ALA99       0.0304
     30  N         -0.9970    5.8960    7.5130 N.am  100  ALA100     -0.1966
     31  CA        -1.6970    6.0020    8.7840 C.3   100  ALA100      0.1728
     32  C         -2.8460    5.0290    8.8230 C.2   100  ALA100      0.2616
     33  O         -3.4770    4.7530    7.7990 O.2   100  ALA100     -0.2715
     34  CB        -2.2270    7.4420    9.0220 C.3   100  ALA100      0.0334
     35  N         -3.1030    4.5150   10.0290 N.am  101  LEU101     -0.1977
     36  CA        -4.1510    3.5590   10.2820 C.3   101  LEU101      0.1596
     37  C         -4.9800    4.1270   11.4000 C.2   101  LEU101      0.2287
     38  O         -4.4460    4.4210   12.4660 O.2   101  LEU101     -0.2864
     39  CB        -3.5590    2.2160   10.6820 C.3   101  LEU101      0.0297
     40  CG        -4.5480    1.1680   11.1130 C.3   101  LEU101      0.0022
     41  CD1       -5.4100    0.7050    9.9350 C.3   101  LEU101      0.0001
     42  CD2       -3.7610    0.0090   11.7000 C.3   101  LEU101      0.0001
     43  N         -2.0210    4.8810   14.2120 N.3   108  SER108     -0.1202
     44  CA        -0.6440    4.4620   13.9550 C.3   108  SER108      0.2020
     45  C         -0.1460    5.0990   12.6800 C.2   108  SER108      0.2619
     46  O         -0.8990    5.2990   11.7250 O.2   108  SER108     -0.2717
     47  CB        -0.5170    2.9520   13.8000 C.3   108  SER108      0.2103
     48  OG        -0.8430    2.2600   14.9690 O.3   108  SER108     -0.2182
     49  N          1.1480    5.3480   12.6150 N.am  109  THR109     -0.1938
     50  CA         1.7500    5.8980   11.4150 C.3   109  THR109      0.2028
     51  C          3.0710    5.1990   11.1280 C.2   109  THR109      0.2642
     52  O          3.7990    4.8490   12.0630 O.2   109  THR109     -0.2714
     53  CB         1.9820    7.4380   11.5500 C.3   109  THR109      0.1808
     54  OG1        2.3090    8.0070   10.2780 O.3   109  THR109     -0.2208
     55  CG2        3.0960    7.7370   12.5340 C.3   109  THR109      0.0379
     56  N          3.3920    5.0350    9.8560 N.am  110  THR110     -0.1950
     57  CA         4.7520    4.6430    9.5340 C.3   110  THR110      0.1897
     58  C          5.2110    5.3520    8.2760 C.2   110  THR110      0.2313
     59  O          4.4100    5.9450    7.5500 O.2   110  THR110     -0.2863
     60  CB         4.8800    3.1320    9.3940 C.3   110  THR110      0.1794
     61  OG1        6.2640    2.7760    9.5540 O.3   110  THR110     -0.2208
     62  CG2        4.3000    2.6250    8.0840 C.3   110  THR110      0.0378
     63  N          7.7120    4.9790    4.7470 N.3   112  VAL112     -0.1245
     64  CA         8.5930    4.2610    3.8210 C.3   112  VAL112      0.1561
     65  C          9.4010    5.2830    3.0550 C.2   112  VAL112      0.2260
     66  O          8.8490    6.1720    2.4070 O.2   112  VAL112     -0.2867
     67  CB         7.8020    3.3600    2.8600 C.3   112  VAL112      0.0252
     68  CG1        8.7470    2.6630    1.8790 C.3   112  VAL112      0.0019
     69  CG2        6.9800    2.3450    3.6410 C.3   112  VAL112      0.0019
@<TRIPOS>BOND
     1     9     8    1
     2    23    22    1
     3     8     7    1
     4     7     6    1
     5    22    24    1
     6    22    19    1
     7    18    19    1
     8     6     5    1
     9    19    20    1
    10    68    67    1
    11     5     2    1
    12    66    65    2
    13     2     1    1
    14     2     3    1
    15    67    69    1
    16    67    64    1
    17    65    64    1
    18    20    21    2
    19     3     4    2
    20    64    63    1
    21    17    15    1
    22    15    16    1
    23    15    14    1
    24    29    26    1
    25    25    26    1
    26    10    11    1
    27    26    27    1
    28    11    14    1
    29    11    12    1
    30    27    30   am
    31    27    28    2
    32    12    13    2
    33    30    31    1
    34    59    58    2
    35    33    32    2
    36    62    60    1
    37    58    57    1
    38    31    32    1
    39    31    34    1
    40    32    35   am
    41    60    57    1
    42    60    61    1
    43    57    56    1
    44    56    51   am
    45    41    40    1
    46    35    36    1
    47    54    53    1
    48    36    39    1
    49    36    37    1
    50    39    40    1
    51    40    42    1
    52    51    50    1
    53    51    52    2
    54    37    38    2
    55    50    53    1
    56    50    49    1
    57    53    55    1
    58    46    45    2
    59    49    45   am
    60    45    44    1
    61    47    44    1
    62    47    48    1
    63    44    43    1
