@<TRIPOS>MOLECULE
tmp/5botB00.pdb
 146 145 0 0 0
SMALL
GASTEIGER

@<TRIPOS>ATOM
      1  N         16.4660    2.8420   67.0910 N.3    82  LEU82      -0.1245
      2  CA        17.6900    3.0400   67.8570 C.3    82  LEU82       0.1561
      3  C         18.1050    4.5030   67.9100 C.2    82  LEU82       0.2260
      4  O         18.7050    4.9610   68.8870 O.2    82  LEU82      -0.2867
      5  CB        18.8390    2.2510   67.2420 C.3    82  LEU82       0.0270
      6  CG        18.6710    0.7500   67.0370 C.3    82  LEU82       0.0019
      7  CD1       19.9990    0.1920   66.5640 C.3    82  LEU82       0.0001
      8  CD2       18.2320    0.0620   68.3320 C.3    82  LEU82       0.0001
      9  N         29.4280    2.8680   65.1650 N.3   115  LEU115     -0.1231
     10  CA        28.8190    2.3390   63.9460 C.3   115  LEU115      0.1693
     11  C         27.4460    2.9370   63.6830 C.2   115  LEU115      0.2591
     12  O         27.1450    3.3490   62.5620 O.2   115  LEU115     -0.2718
     13  CB        28.7230    0.8110   64.0170 C.3   115  LEU115      0.0284
     14  CG        30.0480    0.0510   63.9210 C.3   115  LEU115      0.0019
     15  CD1       29.8780   -1.4300   64.2730 C.3   115  LEU115      0.0001
     16  CD2       30.6250    0.2220   62.5310 C.3   115  LEU115      0.0001
     17  N         26.6060    2.9760   64.7110 N.am  116  VAL116     -0.1980
     18  CA        25.2850    3.5650   64.5520 C.3   116  VAL116      0.1595
     19  C         25.4080    5.0470   64.1890 C.2   116  VAL116      0.2287
     20  O         24.7440    5.5120   63.2680 O.2   116  VAL116     -0.2864
     21  CB        24.4190    3.3560   65.7920 C.3   116  VAL116      0.0276
     22  CG1       23.0780    4.0720   65.6520 C.3   116  VAL116      0.0022
     23  CG2       24.2080    1.8610   66.0260 C.3   116  VAL116      0.0022
     24  N         26.4350    5.5170   60.6170 N.3   119  HIS119     -0.1226
     25  CA        25.2400    5.3330   59.8050 C.3   119  HIS119      0.1752
     26  C         24.3370    6.5660   59.8090 C.2   119  HIS119      0.2595
     27  O         23.9220    7.0480   58.7540 O.2   119  HIS119     -0.2718
     28  CB        24.4390    4.1250   60.2930 C.3   119  HIS119      0.0759
     29  CG        23.1540    3.9230   59.5550 C.ar  119  HIS119      0.0818
     30  ND1       23.0520    3.1050   58.4510 N.ar  119  HIS119     -0.2268
     31  CD2       21.9180    4.4410   59.7540 C.ar  119  HIS119      0.1154
     32  CE1       21.8100    3.1240   58.0030 C.ar  119  HIS119      0.1986
     33  NE2       21.1040    3.9340   58.7700 N.ar  119  HIS119     -0.2212
     34  N         24.0200    7.0590   61.0030 N.am  120  GLU120     -0.1979
     35  CA        23.1400    8.2170   61.1470 C.3   120  GLU120      0.1602
     36  C         23.7280    9.4900   60.5520 C.2   120  GLU120      0.2287
     37  O         23.0130   10.2620   59.9090 O.2   120  GLU120     -0.2864
     38  CB        22.7570    8.4410   62.6100 C.3   120  GLU120      0.0415
     39  CG        21.9870    7.2740   63.2260 C.3   120  GLU120      0.1163
     40  CD        20.6780    7.0150   62.5150 C.2   120  GLU120      0.3649
     41  OE1       20.1240    7.9710   61.9270 O.co2 120  GLU120     -0.2457
     42  OE2       20.1920    5.8600   62.5490 O.co2 120  GLU120     -0.2457
     43  N         18.8030    5.3010   52.7570 N.3   129  HIS129     -0.1241
     44  CA        19.1860    3.9110   52.9180 C.3   129  HIS129      0.1621
     45  C         19.6460    3.3270   51.5920 C.2   129  HIS129      0.2264
     46  O         19.1330    3.6670   50.5220 O.2   129  HIS129     -0.2867
     47  CB        18.0500    3.0840   53.5250 C.3   129  HIS129      0.0745
     48  CG        17.8170    3.3650   54.9760 C.ar  129  HIS129      0.0817
     49  ND1       16.5590    3.4000   55.5390 N.ar  129  HIS129     -0.2268
     50  CD2       18.6850    3.6400   55.9770 C.ar  129  HIS129      0.1154
     51  CE1       16.6630    3.6720   56.8270 C.ar  129  HIS129      0.1986
     52  NE2       17.9430    3.8290   57.1170 N.ar  129  HIS129     -0.2212
     53  N         23.2780   -4.7890   50.5330 N.3   133  PRO133     -0.2102
     54  CA        23.2620   -5.3830   51.8750 C.3   133  PRO133      0.1504
     55  C         24.5810   -5.2280   52.6200 C.2   133  PRO133      0.2576
     56  O         24.6220   -5.4370   53.8300 O.2   133  PRO133     -0.2718
     57  CB        22.9700   -6.8650   51.6050 C.3   133  PRO133      0.0282
     58  CG        23.3510   -7.0880   50.1870 C.3   133  PRO133      0.0208
     59  CD        23.1490   -5.7970   49.4660 C.3   133  PRO133      0.0893
     60  N         25.6470   -4.8810   51.9070 N.am  134  GLY134     -0.1943
     61  CA        26.9430   -4.6970   52.5340 C.3   134  GLY134      0.2014
     62  C         27.2320   -3.2630   52.9540 C.2   134  GLY134      0.2639
     63  O         28.2040   -3.0090   53.6570 O.2   134  GLY134     -0.2714
     64  N         26.3820   -2.3280   52.5390 N.am  135  ALA135     -0.1963
     65  CA        26.6610   -0.9040   52.7340 C.3   135  ALA135      0.1728
     66  C         26.4450   -0.4600   54.1770 C.2   135  ALA135      0.2616
     67  O         25.6410   -1.0470   54.9030 O.2   135  ALA135     -0.2715
     68  CB        25.8130   -0.0670   51.7900 C.3   135  ALA135      0.0334
     69  N         27.1840    0.5680   54.5880 N.am  136  LEU136     -0.1977
     70  CA        26.9690    1.1980   55.8850 C.3   136  LEU136      0.1596
     71  C         25.5490    1.7530   55.9460 C.2   136  LEU136      0.2287
     72  O         24.9050    1.7130   56.9910 O.2   136  LEU136     -0.2864
     73  CB        27.9980    2.3100   56.1380 C.3   136  LEU136      0.0297
     74  CG        27.8260    3.0800   57.4560 C.3   136  LEU136      0.0022
     75  CD1       27.7760    2.1180   58.6340 C.3   136  LEU136      0.0001
     76  CD2       28.9350    4.0910   57.6320 C.3   136  LEU136      0.0001
     77  N         22.9140    0.5480   54.5950 N.3   138  PHE138     -0.1228
     78  CA        21.9060   -0.5080   54.7010 C.3   138  PHE138      0.1721
     79  C         21.2760   -0.4640   56.1000 C.2   138  PHE138      0.2437
     80  O         21.9890   -0.3480   57.0980 O.2   138  PHE138     -0.2733
     81  CB        22.5510   -1.8700   54.4500 C.3   138  PHE138      0.0547
     82  CG        21.5700   -2.9580   54.1680 C.ar  138  PHE138     -0.0202
     83  CD1       20.9000   -3.0010   52.9580 C.ar  138  PHE138     -0.0042
     84  CD2       21.3220   -3.9420   55.1050 C.ar  138  PHE138     -0.0042
     85  CE1       19.9900   -4.0110   52.6910 C.ar  138  PHE138     -0.0003
     86  CE2       20.4120   -4.9490   54.8460 C.ar  138  PHE138     -0.0003
     87  CZ        19.7460   -4.9850   53.6400 C.ar  138  PHE138     -0.0000
     88  N         19.9380   -0.5590   56.1790 N.am  139  PRO139     -0.2718
     89  CA        19.2010   -0.2960   57.4240 C.3   139  PRO139      0.1535
     90  C         19.1580   -1.4580   58.4290 C.2   139  PRO139      0.2598
     91  O         18.1140   -1.6730   59.0470 O.2   139  PRO139     -0.2715
     92  CB        17.7720   -0.0010   56.9350 C.3   139  PRO139      0.0310
     93  CG        17.7850   -0.1880   55.4370 C.3   139  PRO139      0.0237
     94  CD        19.0300   -0.9190   55.0800 C.3   139  PRO139      0.0939
     95  N         20.2540   -2.1930   58.5920 N.am  140  ILE140     -0.1964
     96  CA        20.3230   -3.2260   59.6240 C.3   140  ILE140      0.1727
     97  C         21.6280   -3.1150   60.3960 C.2   140  ILE140      0.2616
     98  O         22.7030   -3.0880   59.7990 O.2   140  ILE140     -0.2715
     99  CB        20.2330   -4.6440   59.0220 C.3   140  ILE140      0.0290
    100  CG1       18.8530   -4.8910   58.4180 C.3   140  ILE140      0.0022
    101  CG2       20.5520   -5.7030   60.0810 C.3   140  ILE140      0.0023
    102  CD1       18.7690   -6.1970   57.6440 C.3   140  ILE140      0.0001
    103  N         21.5460   -3.0540   61.7210 N.am  141  TYR141     -0.1960
    104  CA        22.7570   -2.9980   62.5280 C.3   141  TYR141      0.1771
    105  C         23.4880   -4.3330   62.5080 C.2   141  TYR141      0.2620
    106  O         22.8810   -5.3900   62.7050 O.2   141  TYR141     -0.2715
    107  CB        22.4540   -2.5930   63.9810 C.3   141  TYR141      0.0574
    108  CG        23.6540   -2.7020   64.9070 C.ar  141  TYR141     -0.0198
    109  CD1       24.5610   -1.6610   65.0290 C.ar  141  TYR141     -0.0009
    110  CD2       23.8880   -3.8570   65.6440 C.ar  141  TYR141     -0.0009
    111  CE1       25.6610   -1.7610   65.8710 C.ar  141  TYR141      0.0417
    112  CE2       24.9830   -3.9680   66.4750 C.ar  141  TYR141      0.0417
    113  CZ        25.8670   -2.9180   66.5880 C.ar  141  TYR141      0.1957
    114  OH        26.9530   -3.0180   67.4280 O.3   141  TYR141     -0.2866
    115  N         24.7900   -4.2750   62.2560 N.am  142  THR142     -0.1951
    116  CA        25.6700   -5.4130   62.4770 C.3   142  THR142      0.1897
    117  C         26.9940   -4.9470   63.0550 C.2   142  THR142      0.2313
    118  O         27.4050   -3.8130   62.8490 O.2   142  THR142     -0.2863
    119  CB        25.9520   -6.2310   61.1900 C.3   142  THR142      0.1794
    120  OG1       26.4010   -5.3580   60.1460 O.3   142  THR142     -0.2208
    121  CG2       24.7050   -6.9730   60.7410 C.3   142  THR142      0.0378
    122  N         31.0030   -6.2600   63.2320 N.3   144  THR144     -0.1218
    123  CA        31.9350   -7.2300   62.6500 C.3   144  THR144      0.1862
    124  C         32.8400   -7.9400   63.6640 C.2   144  THR144      0.2287
    125  O         33.2820   -9.0660   63.4330 O.2   144  THR144     -0.2866
    126  CB        32.8560   -6.5570   61.6310 C.3   144  THR144      0.1770
    127  OG1       33.5770   -5.5070   62.2840 O.3   144  THR144     -0.2211
    128  CG2       32.0540   -5.9960   60.4700 C.3   144  THR144      0.0375
    129  N         37.5430   -0.3260   60.6360 N.3   149  PHE149     -0.1241
    130  CA        36.3620   -0.2050   59.7810 C.3   149  PHE149      0.1605
    131  C         36.6830    0.3550   58.3950 C.2   149  PHE149      0.2264
    132  O         37.3640    1.3730   58.2710 O.2   149  PHE149     -0.2867
    133  CB        35.2970    0.6670   60.4510 C.3   149  PHE149      0.0534
    134  CG        34.1000    0.9200   59.5870 C.ar  149  PHE149     -0.0203
    135  CD1       34.0060    2.0760   58.8350 C.ar  149  PHE149     -0.0042
    136  CD2       33.0750   -0.0050   59.5170 C.ar  149  PHE149     -0.0042
    137  CE1       32.9090    2.3050   58.0290 C.ar  149  PHE149     -0.0003
    138  CE2       31.9770    0.2210   58.7160 C.ar  149  PHE149     -0.0003
    139  CZ        31.8950    1.3780   57.9730 C.ar  149  PHE149     -0.0000
    140  N         32.4230    0.9100   52.8640 N.3   152  PRO152     -0.2116
    141  CA        32.1800    0.1690   51.6180 C.3   152  PRO152      0.1372
    142  C         32.0590    1.0910   50.4060 C.2   152  PRO152      0.2244
    143  O         31.6210    2.2420   50.5220 O.2   152  PRO152     -0.2868
    144  CB        30.8500   -0.5410   51.8860 C.3   152  PRO152      0.0268
    145  CG        30.7780   -0.6480   53.3830 C.3   152  PRO152      0.0207
    146  CD        31.3910    0.6330   53.8790 C.3   152  PRO152      0.0892
@<TRIPOS>BOND
     1    59    58    1
     2    59    53    1
     3    58    57    1
     4   142   143    2
     5   142   141    1
     6    46    45    2
     7    53    54    1
     8    45    44    1
     9    57    54    1
    10   141   144    1
    11   141   140    1
    12    68    65    1
    13    54    55    1
    14   144   145    1
    15    60    61    1
    16    60    55   am
    17    61    62    1
    18    64    65    1
    19    64    62   am
    20    55    56    2
    21    85    83   ar
    22    85    87   ar
    23    65    66    1
    24    43    44    1
    25   140   146    1
    26    44    47    1
    27    62    63    2
    28    83    82   ar
    29   145   146    1
    30    47    48    1
    31    87    86   ar
    32    82    81    1
    33    82    84   ar
    34    66    69   am
    35    66    67    2
    36    81    78    1
    37    69    70    1
    38    77    78    1
    39    78    79    1
    40    86    84   ar
    41    48    49   ar
    42    48    50   ar
    43    94    93    1
    44    94    88    1
    45    93    92    1
    46    49    51   ar
    47    70    71    1
    48    70    73    1
    49    71    72    2
    50    50    52   ar
    51    79    88   am
    52    79    80    2
    53    73    74    1
    54    88    89    1
    55    51    52   ar
    56    92    89    1
    57    89    90    1
    58    74    76    1
    59    74    75    1
    60   102   100    1
    61   139   137   ar
    62   139   138   ar
    63    32    30   ar
    64    32    33   ar
    65   137   135   ar
    66   132   131    2
    67   131   130    1
    68   100    99    1
    69    90    95   am
    70    90    91    2
    71    30    29   ar
    72    95    96    1
    73   138   136   ar
    74    27    26    2
    75    33    31   ar
    76   135   134   ar
    77    99    96    1
    78    99   101    1
    79   136   134   ar
    80    29    31   ar
    81    29    28    1
    82   134   133    1
    83    96    97    1
    84   130   133    1
    85   130   129    1
    86    98    97    2
    87    25    26    1
    88    25    28    1
    89    25    24    1
    90    26    34   am
    91    37    36    2
    92   120   119    1
    93    97   103   am
    94   128   126    1
    95    36    35    1
    96   121   119    1
    97    34    35    1
    98    35    38    1
    99   119   116    1
   100   126   127    1
   101   126   123    1
   102   103   104    1
   103    41    40   ar
   104   115   116    1
   105   115   105   am
   106   116   117    1
   107   105   104    1
   108   105   106    2
   109    40    42   ar
   110    40    39    1
   111   104   107    1
   112    16    14    1
   113    12    11    2
   114    38    39    1
   115   123   122    1
   116   123   124    1
   117   118   117    2
   118    20    19    2
   119   125   124    2
   120    11    10    1
   121    11    17   am
   122    14    13    1
   123    14    15    1
   124    10    13    1
   125    10     9    1
   126   107   108    1
   127    19    18    1
   128    18    17    1
   129    18    21    1
   130   108   109   ar
   131   108   110   ar
   132   109   111   ar
   133   110   112   ar
   134    22    21    1
   135    21    23    1
   136   111   113   ar
   137   112   113   ar
   138     7     6    1
   139   113   114    1
   140     6     5    1
   141     6     8    1
   142     1     2    1
   143     5     2    1
   144     2     3    1
   145     3     4    2
