@<TRIPOS>MOLECULE
tmp/5bouV00.pdb
 114 108 0 0 0
SMALL
GASTEIGER

@<TRIPOS>ATOM
      1  N          4.2510 -159.7990   43.6920 N.3     1  THR1       -0.1218
      2  CA         3.7670 -161.0640   44.3160 C.3     1  THR1        0.1862
      3  C          3.7870 -160.9410   45.8320 C.2     1  THR1        0.2287
      4  O          4.7360 -160.4080   46.4060 O.2     1  THR1       -0.2866
      5  CB         4.6290 -162.2750   43.8960 C.3     1  THR1        0.1770
      6  OG1        4.4540 -162.5290   42.4980 O.3     1  THR1       -0.2211
      7  CG2        4.2620 -163.5280   44.6760 C.3     1  THR1        0.0375
      8  N         -1.5760 -162.2220   40.8020 N.3    19  ARG19      -0.1231
      9  CA        -1.0970 -161.3400   39.7350 C.3    19  ARG19       0.1694
     10  C          0.3050 -161.7320   39.2790 C.2    19  ARG19       0.2593
     11  O          1.2120 -161.8550   40.0980 O.2    19  ARG19      -0.2718
     12  CB        -1.0860 -159.8810   40.1990 C.3    19  ARG19       0.0321
     13  CG        -0.5470 -158.9160   39.1500 C.3    19  ARG19       0.0489
     14  CD        -0.5150 -157.4850   39.6530 C.3    19  ARG19       0.2205
     15  NE        -1.8340 -156.8570   39.6280 N.pl3  19  ARG19      -0.0865
     16  CZ        -2.0820 -155.6080   40.0150 C.cat  19  ARG19       0.5346
     17  NH1       -1.1020 -154.8310   40.4670 N.pl3  19  ARG19       0.1354
     18  NH2       -3.3190 -155.1320   39.9540 N.pl3  19  ARG19       0.1354
     19  N          0.4760 -161.9140   37.9700 N.am   20  SER20      -0.1938
     20  CA         1.7960 -162.1310   37.3800 C.3    20  SER20       0.2055
     21  C          2.0930 -160.9970   36.4030 C.2    20  SER20       0.2643
     22  O          1.2440 -160.6440   35.5810 O.2    20  SER20      -0.2714
     23  CB         1.8620 -163.4850   36.6720 C.3    20  SER20       0.2130
     24  OG         0.9670 -163.5390   35.5770 O.3    20  SER20      -0.2179
     25  N          3.2920 -160.4270   36.4980 N.am   21  THR21      -0.1950
     26  CA         3.6300 -159.2310   35.7300 C.3    21  THR21       0.1897
     27  C          4.8330 -159.3880   34.8080 C.2    21  THR21       0.2313
     28  O          5.7710 -160.1280   35.1010 O.2    21  THR21      -0.2863
     29  CB         3.9090 -158.0320   36.6540 C.3    21  THR21       0.1794
     30  OG1        4.9340 -158.3710   37.5950 O.3    21  THR21      -0.2208
     31  CG2        2.6510 -157.6340   37.3950 C.3    21  THR21       0.0378
     32  N          7.8090 -166.9240   44.6280 N.3    46  ALA46      -0.1231
     33  CA         7.9950 -165.5700   44.1460 C.3    46  ALA46       0.1694
     34  C          9.3110 -165.5490   43.3870 C.2    46  ALA46       0.2592
     35  O         10.1720 -166.4020   43.6120 O.2    46  ALA46      -0.2718
     36  CB         8.0370 -164.6020   45.3130 C.3    46  ALA46       0.0304
     37  N          9.4590 -164.5860   42.4840 N.am   47  GLY47      -0.1957
     38  CA        10.6760 -164.4500   41.6930 C.3    47  GLY47       0.1869
     39  C         10.4110 -164.8660   40.2640 C.2    47  GLY47       0.2309
     40  O          9.3190 -164.6470   39.7410 O.2    47  GLY47      -0.2863
     41  N         12.2850 -168.0490   44.9870 N.3    97  TYR97      -0.1241
     42  CA        12.1130 -167.7230   46.3970 C.3    97  TYR97       0.1605
     43  C         10.8080 -168.3730   46.8170 C.2    97  TYR97       0.2264
     44  O          9.7560 -168.0470   46.2690 O.2    97  TYR97      -0.2867
     45  CB        12.0620 -166.2070   46.6050 C.3    97  TYR97       0.0534
     46  CG        13.3340 -165.5030   46.1930 C.ar   97  TYR97      -0.0201
     47  CD1       13.6120 -165.2580   44.8510 C.ar   97  TYR97      -0.0009
     48  CD2       14.2650 -165.0880   47.1400 C.ar   97  TYR97      -0.0009
     49  CE1       14.7790 -164.6200   44.4630 C.ar   97  TYR97       0.0417
     50  CE2       15.4350 -164.4460   46.7630 C.ar   97  TYR97       0.0417
     51  CZ        15.6880 -164.2160   45.4240 C.ar   97  TYR97       0.1957
     52  OH        16.8500 -163.5810   45.0430 O.3    97  TYR97      -0.2866
     53  N         15.4620 -169.2140   49.9810 N.3   114  HIS114     -0.1241
     54  CA        15.8750 -168.1710   49.0590 C.3   114  HIS114      0.1621
     55  C         16.6670 -168.7560   47.9000 C.2   114  HIS114      0.2264
     56  O         17.1800 -169.8760   47.9790 O.2   114  HIS114     -0.2867
     57  CB        16.7000 -167.1250   49.8020 C.3   114  HIS114      0.0745
     58  CG        15.9380 -166.4270   50.8830 C.ar  114  HIS114      0.0817
     59  ND1       15.4080 -165.1650   50.7240 N.ar  114  HIS114     -0.2268
     60  CD2       15.5950 -166.8240   52.1310 C.ar  114  HIS114      0.1154
     61  CE1       14.7810 -164.8100   51.8310 C.ar  114  HIS114      0.1986
     62  NE2       14.8790 -165.7990   52.7000 N.ar  114  HIS114     -0.2212
     63  N         19.5210 -168.4220   46.6700 N.3   116  HIS116     -0.1241
     64  CA        20.8960 -168.7820   46.8440 C.3   116  HIS116      0.1621
     65  C         21.0850 -170.0470   47.6480 C.2   116  HIS116      0.2264
     66  O         22.1450 -170.6020   47.6650 O.2   116  HIS116     -0.2867
     67  CB        21.6610 -167.6190   47.4490 C.3   116  HIS116      0.0745
     68  CG        21.9720 -166.5370   46.4690 C.ar  116  HIS116      0.0817
     69  ND1       21.1190 -165.4920   46.2240 N.ar  116  HIS116     -0.2268
     70  CD2       23.0330 -166.3460   45.6660 C.ar  116  HIS116      0.1154
     71  CE1       21.6410 -164.7050   45.3130 C.ar  116  HIS116      0.1986
     72  NE2       22.8050 -165.2000   44.9620 N.ar  116  HIS116     -0.2212
     73  N          6.7170 -164.3000   55.1580 N.3   126  SER126     -0.1202
     74  CA         6.2250 -163.6310   53.9580 C.3   126  SER126      0.2020
     75  C          7.3300 -163.4540   52.9230 C.2   126  SER126      0.2619
     76  O          8.5000 -163.2990   53.2710 O.2   126  SER126     -0.2717
     77  CB         5.6170 -162.2720   54.3000 C.3   126  SER126      0.2103
     78  OG         6.6180 -161.3370   54.6670 O.3   126  SER126     -0.2182
     79  N          6.9700 -163.4670   51.6540 N.am  127  LEU127     -0.1965
     80  CA         7.9090 -163.3010   50.5730 C.3   127  LEU127      0.1728
     81  C          7.3180 -162.5420   49.4060 C.2   127  LEU127      0.2617
     82  O          6.1380 -162.4270   49.2880 O.2   127  LEU127     -0.2715
     83  CB         8.3570 -164.6550   50.0790 C.3   127  LEU127      0.0311
     84  CG         9.7590 -165.1160   50.4400 C.3   127  LEU127      0.0022
     85  CD1       10.1360 -164.7470   51.8500 C.3   127  LEU127      0.0001
     86  CD2        9.8680 -166.6020   50.2560 C.3   127  LEU127      0.0001
     87  N          8.1710 -162.0350   48.5350 N.am  128  GLY128     -0.1940
     88  CA         7.7840 -161.3090   47.3320 C.3   128  GLY128      0.2014
     89  C          7.8490 -159.8060   47.5020 C.2   128  GLY128      0.2639
     90  O          8.2700 -159.3040   48.5450 O.2   128  GLY128     -0.2714
     91  N          7.4270 -159.0910   46.4620 N.am  129  SER129     -0.1949
     92  CA         7.4000 -157.6280   46.4710 C.3   129  SER129      0.1924
     93  C          6.4710 -157.0690   47.5500 C.2   129  SER129      0.2314
     94  O          6.7220 -155.9880   48.0840 O.2   129  SER129     -0.2863
     95  CB         6.9780 -157.0960   45.0980 C.3   129  SER129      0.2116
     96  OG         5.7920 -157.7260   44.6440 O.3   129  SER129     -0.2180
     97  N          5.9220 -158.4690   50.4980 N.3   131  SER131     -0.1202
     98  CA         6.2610 -159.1270   51.7610 C.3   131  SER131      0.2020
     99  C          6.2790 -158.1830   52.9600 C.2   131  SER131      0.2618
    100  O          5.9520 -158.5970   54.0730 O.2   131  SER131     -0.2717
    101  CB         7.6130 -159.8390   51.6550 C.3   131  SER131      0.2103
    102  OG         8.6530 -158.9320   51.3440 O.3   131  SER131     -0.2182
    103  N          6.6640 -156.9290   52.7400 N.am  132  LEU132     -0.1979
    104  CA         6.7140 -155.9460   53.8270 C.3   132  LEU132      0.1596
    105  C          5.3140 -155.5270   54.2650 C.2   132  LEU132      0.2287
    106  O          5.0620 -155.3350   55.4550 O.2   132  LEU132     -0.2864
    107  CB         7.5300 -154.7140   53.4260 C.3   132  LEU132      0.0297
    108  CG         9.0400 -154.8230   53.6510 C.3   132  LEU132      0.0022
    109  CD1        9.6630 -155.9160   52.7950 C.3   132  LEU132      0.0001
    110  CD2        9.7000 -153.4850   53.3680 C.3   132  LEU132      0.0001
    111  N          3.0100 -154.7250   42.5830 N.3   168  GLY168     -0.1225
    112  CA         3.3920 -156.0240   42.0410 C.3   168  GLY168      0.1811
    113  C          2.4210 -157.1420   42.3810 C.2   168  GLY168      0.2280
    114  O          2.5270 -158.2390   41.8340 O.2   168  GLY168     -0.2866
@<TRIPOS>BOND
     1    27    28    2
     2    27    26    1
     3    24    23    1
     4    22    21    2
     5    26    25    1
     6    26    29    1
     7    21    25   am
     8    21    20    1
     9    29    31    1
    10    29    30    1
    11    23    20    1
    12    20    19    1
    13    19    10   am
    14    13    14    1
    15    13    12    1
    16    10     9    1
    17    10    11    2
    18    15    14    1
    19    15    16    2
    20     9    12    1
    21     9     8    1
    22    40    39    2
    23    18    16    1
    24    16    17    1
    25    39    38    1
    26    38    37    1
    27   114   113    2
    28   112   113    1
    29   112   111    1
    30    37    34   am
    31     6     5    1
    32    34    35    2
    33    34    33    1
    34     1     2    1
    35     5     2    1
    36     5     7    1
    37    33    32    1
    38    33    36    1
    39     2     3    1
    40    49    47   ar
    41    49    51   ar
    42    96    95    1
    43    47    46   ar
    44    72    71   ar
    45    72    70   ar
    46    41    42    1
    47    52    51    1
    48    95    92    1
    49    71    69   ar
    50    51    50   ar
    51    70    68   ar
    52     3     4    2
    53    46    45    1
    54    46    48   ar
    55    69    68   ar
    56    44    43    2
    57    42    45    1
    58    42    43    1
    59    91    92    1
    60    91    89   am
    61    68    67    1
    62    92    93    1
    63    63    64    1
    64    50    48   ar
    65    64    67    1
    66    64    65    1
    67    88    89    1
    68    88    87    1
    69    89    90    2
    70    93    94    2
    71    65    66    2
    72    55    56    2
    73    55    54    1
    74    87    81   am
    75    54    57    1
    76    54    53    1
    77    82    81    2
    78    81    80    1
    79    57    58    1
    80    83    84    1
    81    83    80    1
    82    86    84    1
    83    84    85    1
    84    97    98    1
    85    80    79    1
    86    59    58   ar
    87    59    61   ar
    88    58    60   ar
    89   102   101    1
    90    79    75   am
    91   101    98    1
    92    98    99    1
    93    61    62   ar
    94    60    62   ar
    95   103    99   am
    96   103   104    1
    97   109   108    1
    98    75    76    2
    99    75    74    1
   100    99   100    2
   101   110   108    1
   102   107   108    1
   103   107   104    1
   104   104   105    1
   105    74    77    1
   106    74    73    1
   107   105   106    2
   108    77    78    1
