@<TRIPOS>MOLECULE
tmp/5boyB00.pdb
 166 167 0 0 0
SMALL
GASTEIGER

@<TRIPOS>ATOM
      1  N         16.3300    1.6600   66.6200 N.3    82  LEU82      -0.1245
      2  CA        17.5540    1.8600   67.3990 C.3    82  LEU82       0.1561
      3  C         17.9670    3.3270   67.4190 C.2    82  LEU82       0.2260
      4  O         18.5450    3.8140   68.3930 O.2    82  LEU82      -0.2867
      5  CB        18.7100    1.0350   66.8260 C.3    82  LEU82       0.0270
      6  CG        18.5570   -0.4770   66.6510 C.3    82  LEU82       0.0019
      7  CD1       19.8200   -1.0730   66.0270 C.3    82  LEU82       0.0001
      8  CD2       18.2570   -1.1370   67.9760 C.3    82  LEU82       0.0001
      9  N         29.1930    1.6650   64.8510 N.3   115  LEU115     -0.1231
     10  CA        28.5680    1.1440   63.6360 C.3   115  LEU115      0.1693
     11  C         27.2150    1.8010   63.3640 C.2   115  LEU115      0.2591
     12  O         26.9540    2.2670   62.2530 O.2   115  LEU115     -0.2718
     13  CB        28.4110   -0.3670   63.7220 C.3   115  LEU115      0.0284
     14  CG        29.7340   -1.1320   63.7240 C.3   115  LEU115      0.0019
     15  CD1       29.4860   -2.6030   64.0540 C.3   115  LEU115      0.0001
     16  CD2       30.4320   -0.9570   62.3740 C.3   115  LEU115      0.0001
     17  N         26.3590    1.8420   64.3760 N.am  116  VAL116     -0.1980
     18  CA        25.0440    2.4500   64.2070 C.3   116  VAL116      0.1595
     19  C         25.1670    3.9410   63.8630 C.2   116  VAL116      0.2287
     20  O         24.4530    4.4330   62.9990 O.2   116  VAL116     -0.2864
     21  CB        24.1400    2.2100   65.4220 C.3   116  VAL116      0.0276
     22  CG1       22.8000    2.9240   65.2430 C.3   116  VAL116      0.0022
     23  CG2       23.9210    0.6940   65.6280 C.3   116  VAL116      0.0022
     24  N         26.2570    4.3550   60.2110 N.3   119  HIS119     -0.1226
     25  CA        25.0390    4.1940   59.4190 C.3   119  HIS119      0.1752
     26  C         24.1180    5.4240   59.4990 C.2   119  HIS119      0.2595
     27  O         23.6280    5.9150   58.4710 O.2   119  HIS119     -0.2718
     28  CB        24.2880    2.9530   59.8860 C.3   119  HIS119      0.0759
     29  CG        22.9790    2.7400   59.1960 C.ar  119  HIS119      0.0818
     30  ND1       22.8340    1.8760   58.1330 N.ar  119  HIS119     -0.2268
     31  CD2       21.7530    3.2720   59.4210 C.ar  119  HIS119      0.1154
     32  CE1       21.5740    1.8850   57.7320 C.ar  119  HIS119      0.1986
     33  NE2       20.8990    2.7210   58.4980 N.ar  119  HIS119     -0.2212
     34  N         23.8810    5.9180   60.7130 N.am  120  GLU120     -0.1979
     35  CA        22.9780    7.0640   60.8970 C.3   120  GLU120      0.1602
     36  C         23.5420    8.3370   60.2830 C.2   120  GLU120      0.2287
     37  O         22.7960    9.1320   59.7020 O.2   120  GLU120     -0.2864
     38  CB        22.6300    7.2900   62.3700 C.3   120  GLU120      0.0415
     39  CG        21.8030    6.1610   63.0000 C.3   120  GLU120      0.1163
     40  CD        20.5030    5.9150   62.2620 C.2   120  GLU120      0.3649
     41  OE1       19.9020    6.9050   61.7910 O.co2 120  GLU120     -0.2457
     42  OE2       20.0860    4.7350   62.1360 O.co2 120  GLU120     -0.2457
     43  N         18.5390    4.1690   52.4740 N.3   129  HIS129     -0.1241
     44  CA        18.9310    2.7780   52.6520 C.3   129  HIS129      0.1621
     45  C         19.3470    2.1290   51.3410 C.2   129  HIS129      0.2264
     46  O         18.7740    2.4050   50.2940 O.2   129  HIS129     -0.2867
     47  CB        17.8050    1.9770   53.2990 C.3   129  HIS129      0.0745
     48  CG        17.6520    2.2450   54.7590 C.ar  129  HIS129      0.0817
     49  ND1       16.4290    2.2590   55.3920 N.ar  129  HIS129     -0.2268
     50  CD2       18.5720    2.5290   55.7080 C.ar  129  HIS129      0.1154
     51  CE1       16.6030    2.5320   56.6730 C.ar  129  HIS129      0.1986
     52  NE2       17.8950    2.7040   56.8900 N.ar  129  HIS129     -0.2212
     53  N         23.0670   -5.9940   50.2830 N.3   133  PRO133     -0.2102
     54  CA        23.0790   -6.6250   51.6060 C.3   133  PRO133      0.1504
     55  C         24.3980   -6.4420   52.3490 C.2   133  PRO133      0.2576
     56  O         24.4390   -6.6650   53.5590 O.2   133  PRO133     -0.2718
     57  CB        22.8730   -8.1170   51.2950 C.3   133  PRO133      0.0282
     58  CG        22.3560   -8.1690   49.9130 C.3   133  PRO133      0.0208
     59  CD        22.9500   -6.9890   49.2060 C.3   133  PRO133      0.0893
     60  N         25.4510   -6.0590   51.6380 N.am  134  GLY134     -0.1943
     61  CA        26.7510   -5.8660   52.2530 C.3   134  GLY134      0.2014
     62  C         27.0590   -4.4200   52.6010 C.2   134  GLY134      0.2639
     63  O         28.0930   -4.1320   53.1920 O.2   134  GLY134     -0.2714
     64  N         26.1660   -3.5070   52.2310 N.am  135  ALA135     -0.1963
     65  CA        26.3990   -2.0810   52.4350 C.3   135  ALA135      0.1728
     66  C         26.2200   -1.6550   53.8920 C.2   135  ALA135      0.2616
     67  O         25.4390   -2.2430   54.6250 O.2   135  ALA135     -0.2715
     68  CB        25.4820   -1.2690   51.5400 C.3   135  ALA135      0.0334
     69  N         26.9500   -0.6220   54.3020 N.am  136  LEU136     -0.1977
     70  CA        26.7280   -0.0180   55.6150 C.3   136  LEU136      0.1596
     71  C         25.3070    0.5310   55.6870 C.2   136  LEU136      0.2287
     72  O         24.6560    0.4540   56.7230 O.2   136  LEU136     -0.2864
     73  CB        27.7260    1.1130   55.8660 C.3   136  LEU136      0.0297
     74  CG        27.4910    1.9380   57.1220 C.3   136  LEU136      0.0022
     75  CD1       27.4800    1.0070   58.3360 C.3   136  LEU136      0.0001
     76  CD2       28.5590    2.9870   57.2510 C.3   136  LEU136      0.0001
     77  N         22.6670   -0.6330   54.3950 N.3   138  PHE138     -0.1228
     78  CA        21.6500   -1.6810   54.4540 C.3   138  PHE138      0.1721
     79  C         20.9990   -1.6570   55.8410 C.2   138  PHE138      0.2437
     80  O         21.6960   -1.6160   56.8480 O.2   138  PHE138     -0.2733
     81  CB        22.2940   -3.0410   54.1870 C.3   138  PHE138      0.0547
     82  CG        21.3100   -4.1450   53.9420 C.ar  138  PHE138     -0.0202
     83  CD1       20.6130   -4.2190   52.7440 C.ar  138  PHE138     -0.0042
     84  CD2       21.1000   -5.1210   54.8930 C.ar  138  PHE138     -0.0042
     85  CE1       19.7080   -5.2430   52.5070 C.ar  138  PHE138     -0.0003
     86  CE2       20.2010   -6.1560   54.6640 C.ar  138  PHE138     -0.0003
     87  CZ        19.4990   -6.2150   53.4720 C.ar  138  PHE138     -0.0000
     88  N         19.6580   -1.6920   55.8980 N.am  139  PRO139     -0.2718
     89  CA        18.9380   -1.4080   57.1450 C.3   139  PRO139      0.1535
     90  C         18.8900   -2.5640   58.1490 C.2   139  PRO139      0.2598
     91  O         17.8790   -2.7190   58.8250 O.2   139  PRO139     -0.2715
     92  CB        17.5110   -1.0930   56.6680 C.3   139  PRO139      0.0310
     93  CG        17.4930   -1.3100   55.1940 C.3   139  PRO139      0.0237
     94  CD        18.7370   -2.0300   54.8030 C.3   139  PRO139      0.0939
     95  N         19.9480   -3.3600   58.2490 N.am  140  ILE140     -0.1964
     96  CA        20.0020   -4.3950   59.2780 C.3   140  ILE140      0.1727
     97  C         21.3440   -4.3450   60.0100 C.2   140  ILE140      0.2616
     98  O         22.4020   -4.4000   59.3960 O.2   140  ILE140     -0.2715
     99  CB        19.7410   -5.7950   58.6880 C.3   140  ILE140      0.0290
    100  CG1       18.2850   -5.8980   58.2350 C.3   140  ILE140      0.0022
    101  CG2       20.0550   -6.8950   59.7110 C.3   140  ILE140      0.0023
    102  CD1       18.0240   -7.0540   57.2870 C.3   140  ILE140      0.0001
    103  N         21.2970   -4.2140   61.3260 N.am  141  TYR141     -0.1960
    104  CA        22.5270   -4.1450   62.1030 C.3   141  TYR141      0.1771
    105  C         23.3010   -5.4630   62.0440 C.2   141  TYR141      0.2620
    106  O         22.7330   -6.5450   62.1600 O.2   141  TYR141     -0.2715
    107  CB        22.2210   -3.7810   63.5570 C.3   141  TYR141      0.0574
    108  CG        23.4190   -3.8480   64.4800 C.ar  141  TYR141     -0.0198
    109  CD1       24.2490   -2.7480   64.6590 C.ar  141  TYR141     -0.0009
    110  CD2       23.7130   -5.0040   65.1770 C.ar  141  TYR141     -0.0009
    111  CE1       25.3490   -2.8070   65.5080 C.ar  141  TYR141      0.0417
    112  CE2       24.8020   -5.0720   66.0300 C.ar  141  TYR141      0.0417
    113  CZ        25.6150   -3.9680   66.1940 C.ar  141  TYR141      0.1957
    114  OH        26.6900   -4.0410   67.0440 O.3   141  TYR141     -0.2866
    115  N         24.6060   -5.3650   61.8630 N.am  142  THR142     -0.1937
    116  CA        25.4460   -6.5470   61.9170 C.3   142  THR142      0.2028
    117  C         26.7850   -6.1730   62.5370 C.2   142  THR142      0.2642
    118  O         27.2120   -5.0230   62.4730 O.2   142  THR142     -0.2714
    119  CB        25.5930   -7.2340   60.5210 C.3   142  THR142      0.1808
    120  OG1       26.3980   -8.4130   60.6440 O.3   142  THR142     -0.2208
    121  CG2       26.2340   -6.3020   59.5190 C.3   142  THR142      0.0379
    122  N         27.4150   -7.1470   63.1770 N.am  143  TYR143     -0.1959
    123  CA        28.6700   -6.9420   63.8860 C.3   143  TYR143      0.1771
    124  C         29.6160   -8.0490   63.4340 C.2   143  TYR143      0.2620
    125  O         29.2730   -9.2230   63.5220 O.2   143  TYR143     -0.2715
    126  CB        28.4300   -7.0070   65.4030 C.3   143  TYR143      0.0574
    127  CG        29.6550   -6.7150   66.2500 C.ar  143  TYR143     -0.0198
    128  CD1       30.4970   -7.7370   66.6600 C.ar  143  TYR143     -0.0009
    129  CD2       29.9540   -5.4180   66.6560 C.ar  143  TYR143     -0.0009
    130  CE1       31.6190   -7.4790   67.4270 C.ar  143  TYR143      0.0417
    131  CE2       31.0730   -5.1520   67.4290 C.ar  143  TYR143      0.0417
    132  CZ        31.9010   -6.1860   67.8110 C.ar  143  TYR143      0.1957
    133  OH        33.0150   -5.9340   68.5780 O.3   143  TYR143     -0.2866
    134  N         30.7880   -7.6800   62.9250 N.am  144  THR144     -0.1951
    135  CA        31.7080   -8.6720   62.3600 C.3   144  THR144      0.1897
    136  C         32.6660   -9.2390   63.4000 C.2   144  THR144      0.2313
    137  O         33.1540  -10.3530   63.2560 O.2   144  THR144     -0.2863
    138  CB        32.5810   -8.0760   61.2430 C.3   144  THR144      0.1794
    139  OG1       33.4120   -7.0440   61.7930 O.3   144  THR144     -0.2208
    140  CG2       31.7250   -7.5100   60.1180 C.3   144  THR144      0.0378
    141  N         37.3210   -1.4660   60.5050 N.3   149  PHE149     -0.1227
    142  CA        36.1370   -1.2980   59.6750 C.3   149  PHE149      0.1736
    143  C         36.4940   -0.7570   58.2940 C.2   149  PHE149      0.2595
    144  O         37.2030    0.2430   58.1670 O.2   149  PHE149     -0.2718
    145  CB        35.1290   -0.3680   60.3490 C.3   149  PHE149      0.0547
    146  CG        33.9350   -0.0530   59.4950 C.ar  149  PHE149     -0.0202
    147  CD1       33.9630    1.0090   58.6070 C.ar  149  PHE149     -0.0042
    148  CD2       32.7870   -0.8160   59.5790 C.ar  149  PHE149     -0.0042
    149  CE1       32.8690    1.3040   57.8200 C.ar  149  PHE149     -0.0003
    150  CE2       31.6870   -0.5250   58.7900 C.ar  149  PHE149     -0.0003
    151  CZ        31.7330    0.5330   57.9080 C.ar  149  PHE149     -0.0000
    152  N         35.9790   -1.4270   57.2690 N.am  150  MET150     -0.1979
    153  CA        36.1920   -1.0490   55.8830 C.3   150  MET150      0.1605
    154  C         34.8540   -0.6310   55.2910 C.2   150  MET150      0.2287
    155  O         33.9240   -1.4320   55.2570 O.2   150  MET150     -0.2864
    156  CB        36.7350   -2.2450   55.0950 C.3   150  MET150      0.0413
    157  CG        37.8380   -3.0240   55.8040 C.3   150  MET150      0.0598
    158  SD        39.4870   -2.3320   55.5460 S.3   150  MET150     -0.1393
    159  CE        40.4750   -3.4530   56.5310 C.3   150  MET150      0.0692
    160  N         32.1320   -0.3460   52.7910 N.3   152  PRO152     -0.2116
    161  CA        31.8480   -1.1090   51.5690 C.3   152  PRO152      0.1372
    162  C         31.7950   -0.2220   50.3280 C.2   152  PRO152      0.2244
    163  O         31.4610    0.9690   50.4200 O.2   152  PRO152     -0.2868
    164  CB        30.4690   -1.7060   51.8440 C.3   152  PRO152      0.0268
    165  CG        30.3930   -1.7960   53.3520 C.3   152  PRO152      0.0207
    166  CD        31.1240   -0.5780   53.8440 C.3   152  PRO152      0.0892
@<TRIPOS>BOND
     1    59    58    1
     2    59    53    1
     3    58    57    1
     4    53    54    1
     5    46    45    2
     6   162   163    2
     7   162   161    1
     8    57    54    1
     9    45    44    1
    10    68    65    1
    11   161   164    1
    12   161   160    1
    13    54    55    1
    14    60    61    1
    15    60    55   am
    16   164   165    1
    17    64    65    1
    18    64    62   am
    19    61    62    1
    20    55    56    2
    21    65    66    1
    22    43    44    1
    23    85    83   ar
    24    85    87   ar
    25    62    63    2
    26    44    47    1
    27    83    82   ar
    28   160   166    1
    29    47    48    1
    30   165   166    1
    31    87    86   ar
    32    66    69   am
    33    66    67    2
    34    82    81    1
    35    82    84   ar
    36    81    78    1
    37    69    70    1
    38    77    78    1
    39    78    79    1
    40    86    84   ar
    41    48    49   ar
    42    48    50   ar
    43    94    93    1
    44    94    88    1
    45   156   157    1
    46   156   153    1
    47    93    92    1
    48   155   154    2
    49   154   153    1
    50    49    51   ar
    51   158   157    1
    52   158   159    1
    53    70    71    1
    54    70    73    1
    55    71    72    2
    56    50    52   ar
    57    79    88   am
    58    79    80    2
    59    73    74    1
    60   153   152    1
    61    88    89    1
    62    92    89    1
    63    51    52   ar
    64    74    76    1
    65    74    75    1
    66    89    90    1
    67   152   143   am
    68   102   100    1
    69    32    30   ar
    70    32    33   ar
    71   149   151   ar
    72   149   147   ar
    73   151   150   ar
    74    30    29   ar
    75    90    95   am
    76    90    91    2
    77   144   143    2
    78   100    99    1
    79    95    96    1
    80   143   142    1
    81    27    26    2
    82    33    31   ar
    83   147   146   ar
    84    99    96    1
    85    99   101    1
    86   150   148   ar
    87    29    31   ar
    88    29    28    1
    89    96    97    1
    90    98    97    2
    91    25    26    1
    92    25    28    1
    93    25    24    1
    94   146   148   ar
    95   146   145    1
    96    26    34   am
    97   121   119    1
    98   142   145    1
    99   142   141    1
   100    37    36    2
   101    97   103   am
   102   140   138    1
   103    36    35    1
   104   119   120    1
   105   119   116    1
   106    34    35    1
   107    35    38    1
   108   138   139    1
   109   138   135    1
   110   103   104    1
   111    41    40   ar
   112   115   116    1
   113   115   105   am
   114   116   117    1
   115   105   104    1
   116   105   106    2
   117   104   107    1
   118    42    40   ar
   119    12    11    2
   120    40    39    1
   121   135   134    1
   122   135   136    1
   123    38    39    1
   124    16    14    1
   125   118   117    2
   126   117   122   am
   127   134   124   am
   128    20    19    2
   129   122   123    1
   130   137   136    2
   131    11    10    1
   132    11    17   am
   133   124   125    2
   134   124   123    1
   135   107   108    1
   136    10    13    1
   137    10     9    1
   138    13    14    1
   139    14    15    1
   140    19    18    1
   141   123   126    1
   142    18    17    1
   143    18    21    1
   144   108   109   ar
   145   108   110   ar
   146   109   111   ar
   147   110   112   ar
   148    22    21    1
   149   126   127    1
   150    21    23    1
   151   111   113   ar
   152     7     6    1
   153   112   113   ar
   154   113   114    1
   155   127   129   ar
   156   127   128   ar
   157     1     2    1
   158     6     5    1
   159     6     8    1
   160   129   131   ar
   161   128   130   ar
   162     5     2    1
   163     2     3    1
   164     3     4    2
   165   130   132   ar
   166   131   132   ar
   167   132   133    1
