@<TRIPOS>MOLECULE
tmp/5bp5A00.pdb
 87 81 0 0 0
SMALL
GASTEIGER

@<TRIPOS>ATOM
      1  N         33.8700   95.5900  166.3910 N.3   213  ASN213     -0.1240
      2  CA        33.9690   95.2400  167.8170 C.3   213  ASN213      0.1653
      3  C         35.3650   94.8050  168.2710 C.2   213  ASN213      0.2266
      4  O         35.5230   94.2840  169.3750 O.2   213  ASN213     -0.2867
      5  CB        33.0060   94.0990  168.1470 C.3   213  ASN213      0.1155
      6  CG        31.5680   94.4250  167.8120 C.2   213  ASN213      0.2627
      7  OD1       31.0880   95.5200  168.0700 O.2   213  ASN213     -0.2716
      8  ND2       30.8740   93.4630  167.2450 N.am  213  ASN213     -0.0877
      9  N         33.5850   91.2760  175.9030 N.3   255  ASP255     -0.1239
     10  CA        32.8320   90.1070  175.4750 C.3   255  ASP255      0.1674
     11  C         33.7640   89.0190  174.9260 C.2   255  ASP255      0.2266
     12  O         34.5720   89.2640  174.0210 O.2   255  ASP255     -0.2867
     13  CB        31.8000   90.5440  174.4260 C.3   255  ASP255      0.1410
     14  CG        31.0180   89.3920  173.8370 C.2   255  ASP255      0.3668
     15  OD1       29.7860   89.3080  174.0850 O.co2 255  ASP255     -0.2456
     16  OD2       31.6270   88.6010  173.0850 O.co2 255  ASP255     -0.2456
     17  N         34.2250   86.0280  172.6630 N.3   257  TYR257     -0.1227
     18  CA        33.6020   85.7280  171.3860 C.3   257  TYR257      0.1736
     19  C         32.9010   84.3720  171.3990 C.2   257  TYR257      0.2596
     20  O         33.5370   83.3270  171.5790 O.2   257  TYR257     -0.2718
     21  CB        34.6390   85.7740  170.2610 C.3   257  TYR257      0.0548
     22  CG        34.0460   85.6000  168.8880 C.ar  257  TYR257     -0.0200
     23  CD1       33.5680   86.6930  168.1720 C.ar  257  TYR257     -0.0009
     24  CD2       33.9470   84.3360  168.3080 C.ar  257  TYR257     -0.0009
     25  CE1       33.0100   86.5310  166.9130 C.ar  257  TYR257      0.0417
     26  CE2       33.3990   84.1640  167.0510 C.ar  257  TYR257      0.0417
     27  CZ        32.9290   85.2620  166.3590 C.ar  257  TYR257      0.1957
     28  OH        32.3850   85.1000  165.1100 O.3   257  TYR257     -0.2866
     29  N         31.5830   84.4180  171.2280 N.am  258  GLY258     -0.1957
     30  CA        30.7600   83.2210  171.1240 C.3   258  GLY258      0.1869
     31  C         30.6330   82.3860  172.3900 C.2   258  GLY258      0.2309
     32  O         30.0760   81.2880  172.3490 O.2   258  GLY258     -0.2863
     33  N         33.1360   81.0170  173.5390 N.3   260  GLN260     -0.1245
     34  CA        34.0940   79.9530  173.2530 C.3   260  GLN260      0.1566
     35  C         35.2580   80.1180  174.2040 C.2   260  GLN260      0.2260
     36  O         35.7280   81.2290  174.4320 O.2   260  GLN260     -0.2867
     37  CB        34.6110   79.9990  171.8080 C.3   260  GLN260      0.0367
     38  CG        33.5490   80.0350  170.7130 C.3   260  GLN260      0.0905
     39  CD        32.6680   78.8070  170.6820 C.2   260  GLN260      0.2608
     40  OE1       32.9730   77.7920  171.3040 O.2   260  GLN260     -0.2717
     41  NE2       31.5670   78.8900  169.9470 N.am  260  GLN260     -0.0878
     42  N         36.5160   90.8180  172.5100 N.3   268  GLN268     -0.1245
     43  CA        35.9620   91.9440  171.7720 C.3   268  GLN268      0.1566
     44  C         35.0780   92.8060  172.6630 C.2   268  GLN268      0.2260
     45  O         34.9870   92.5870  173.8700 O.2   268  GLN268     -0.2867
     46  CB        35.1720   91.4360  170.5770 C.3   268  GLN268      0.0367
     47  CG        33.9810   90.5740  170.9410 C.3   268  GLN268      0.0905
     48  CD        33.1720   90.1620  169.7360 C.2   268  GLN268      0.2608
     49  OE1       33.5810   90.3680  168.5940 O.2   268  GLN268     -0.2717
     50  NE2       32.0090   89.5670  169.9870 N.am  268  GLN268     -0.0878
     51  N         30.9040   94.1190  172.6510 N.3   270  PHE270     -0.1241
     52  CA        29.6160   93.6940  172.0710 C.3   270  PHE270      0.1605
     53  C         28.4670   94.3130  172.8670 C.2   270  PHE270      0.2264
     54  O         28.6170   94.6060  174.0470 O.2   270  PHE270     -0.2867
     55  CB        29.5040   92.1520  172.0510 C.3   270  PHE270      0.0534
     56  CG        28.3510   91.6170  171.2190 C.ar  270  PHE270     -0.0203
     57  CD1       28.5090   91.3630  169.8580 C.ar  270  PHE270     -0.0042
     58  CD2       27.1140   91.3430  171.8050 C.ar  270  PHE270     -0.0042
     59  CE1       27.4550   90.8640  169.0960 C.ar  270  PHE270     -0.0003
     60  CE2       26.0540   90.8440  171.0500 C.ar  270  PHE270     -0.0003
     61  CZ        26.2250   90.6030  169.6930 C.ar  270  PHE270     -0.0000
     62  N         24.4170   92.5160  177.1860 N.3   273  HIS273     -0.1241
     63  CA        23.2670   91.6780  177.5680 C.3   273  HIS273      0.1621
     64  C         23.4180   91.0030  178.9450 C.2   273  HIS273      0.2264
     65  O         22.4670   90.4180  179.4580 O.2   273  HIS273     -0.2867
     66  CB        22.9720   90.6230  176.4890 C.3   273  HIS273      0.0745
     67  CG        24.1800   89.8790  176.0000 C.ar  273  HIS273      0.0817
     68  ND1       25.1620   89.4040  176.8440 N.ar  273  HIS273     -0.2268
     69  CD2       24.5520   89.5120  174.7510 C.ar  273  HIS273      0.1154
     70  CE1       26.0880   88.7800  176.1390 C.ar  273  HIS273      0.1986
     71  NE2       25.7450   88.8360  174.8640 N.ar  273  HIS273     -0.2212
     72  N         25.0140   88.2750  179.8500 N.3   275  ASP275     -0.1239
     73  CA        25.1930   86.8270  179.8680 C.3   275  ASP275      0.1674
     74  C         26.5850   86.5220  180.4140 C.2   275  ASP275      0.2266
     75  O         27.3870   87.4360  180.6510 O.2   275  ASP275     -0.2867
     76  CB        25.0480   86.2300  178.4630 C.3   275  ASP275      0.1410
     77  CG        23.6710   86.4580  177.8620 C.2   275  ASP275      0.3668
     78  OD1       22.6900   86.5240  178.6280 O.co2 275  ASP275     -0.2456
     79  OD2       23.5700   86.5580  176.6160 O.co2 275  ASP275     -0.2456
     80  N         29.2870   85.2810  179.1730 N.3   277  ASN277     -0.1240
     81  CA        30.4600   85.6420  178.3620 C.3   277  ASN277      0.1653
     82  C         30.7480   87.1510  178.3420 C.2   277  ASN277      0.2266
     83  O         31.5870   87.6150  177.5750 O.2   277  ASN277     -0.2867
     84  CB        30.3400   85.0960  176.9330 C.3   277  ASN277      0.1155
     85  CG        29.3140   85.8390  176.1000 C.2   277  ASN277      0.2627
     86  OD1       28.1990   86.0670  176.5410 O.2   277  ASN277     -0.2716
     87  ND2       29.6920   86.2150  174.8890 N.am  277  ASN277     -0.0877
@<TRIPOS>BOND
     1    28    27    1
     2    27    25   ar
     3    27    26   ar
     4     1     2    1
     5    25    23   ar
     6    26    24   ar
     7     8     6   am
     8     6     7    2
     9     6     5    1
    10     2     5    1
    11     2     3    1
    12    23    22   ar
    13     3     4    2
    14    24    22   ar
    15    49    48    2
    16    22    21    1
    17    59    61   ar
    18    59    57   ar
    19    61    60   ar
    20    48    50   am
    21    48    47    1
    22    57    56   ar
    23    41    39   am
    24    21    18    1
    25    46    47    1
    26    46    43    1
    27    39    38    1
    28    39    40    2
    29    38    37    1
    30    60    58   ar
    31    30    29    1
    32    30    31    1
    33    56    58   ar
    34    56    55    1
    35    29    19   am
    36    18    19    1
    37    18    17    1
    38    19    20    2
    39    43    42    1
    40    43    44    1
    41    37    34    1
    42    55    52    1
    43    52    51    1
    44    52    53    1
    45    32    31    2
    46    44    45    2
    47    53    54    2
    48    16    14   ar
    49    34    33    1
    50    34    35    1
    51    14    15   ar
    52    14    13    1
    53    12    11    2
    54    35    36    2
    55    13    10    1
    56    69    71   ar
    57    69    67   ar
    58    71    70   ar
    59    87    85   am
    60    11    10    1
    61    10     9    1
    62    67    66    1
    63    67    68   ar
    64    85    86    2
    65    85    84    1
    66    70    68   ar
    67    66    63    1
    68    79    77   ar
    69    84    81    1
    70    62    63    1
    71    63    64    1
    72    83    82    2
    73    77    76    1
    74    77    78   ar
    75    82    81    1
    76    81    80    1
    77    76    73    1
    78    64    65    2
    79    72    73    1
    80    73    74    1
    81    74    75    2
