@<TRIPOS>MOLECULE
tmp/5bp7A00.pdb
 205 196 0 0 0
SMALL
GASTEIGER

@<TRIPOS>ATOM
      1  N         33.7710    7.1950   57.0930 N.3     3  ILE3       -0.1245
      2  CA        32.3300    7.3730   57.2430 C.3     3  ILE3        0.1561
      3  C         32.0180    8.2430   58.4880 C.2     3  ILE3        0.2260
      4  O         32.8760    8.4080   59.3550 O.2     3  ILE3       -0.2867
      5  CB        31.5900    6.0130   57.2870 C.3     3  ILE3        0.0252
      6  CG1       31.9810    5.1750   58.5190 C.3     3  ILE3        0.0019
      7  CG2       31.8260    5.2560   55.9830 C.3     3  ILE3        0.0019
      8  CD1       31.2410    3.8460   58.6170 C.3     3  ILE3        0.0001
      9  N         27.6460    0.4230   64.5150 N.3    11  GLU11      -0.1245
     10  CA        27.9200   -0.8280   63.8070 C.3    11  GLU11       0.1567
     11  C         29.3040   -1.4540   64.0420 C.2    11  GLU11       0.2260
     12  O         29.6780   -2.3930   63.3300 O.2    11  GLU11      -0.2867
     13  CB        27.6330   -0.6650   62.3090 C.3    11  GLU11       0.0388
     14  CG        26.1810   -0.2990   62.0360 C.3    11  GLU11       0.1160
     15  CD        25.8230   -0.2980   60.5610 C.2    11  GLU11       0.3649
     16  OE1       24.8870    0.4380   60.1720 O.co2  11  GLU11      -0.2457
     17  OE2       26.4740   -1.0370   59.7990 O.co2  11  GLU11      -0.2457
     18  N         29.4450   -7.9480   62.0020 N.3    15  ARG15      -0.1231
     19  CA        30.1490   -8.5970   60.9050 C.3    15  ARG15       0.1694
     20  C         29.5170   -8.2490   59.5600 C.2    15  ARG15       0.2592
     21  O         30.2120   -8.0810   58.5740 O.2    15  ARG15      -0.2718
     22  CB        30.1550  -10.1130   61.0690 C.3    15  ARG15       0.0321
     23  CG        31.0830  -10.5850   62.1650 C.3    15  ARG15       0.0489
     24  CD        30.9290  -12.0820   62.3520 C.3    15  ARG15       0.2205
     25  NE        31.8900  -12.5580   63.3350 N.pl3  15  ARG15      -0.0865
     26  CZ        31.8830  -13.7620   63.8890 C.cat  15  ARG15       0.5346
     27  NH1       30.9470  -14.6630   63.5880 N.pl3  15  ARG15       0.1354
     28  NH2       32.8270  -14.0790   64.7480 N.pl3  15  ARG15       0.1354
     29  N         28.1850   -8.1990   59.5380 N.am   16  ILE16      -0.1966
     30  CA        27.4130   -7.9670   58.3280 C.3    16  ILE16       0.1727
     31  C         26.6580   -6.6700   58.5480 C.2    16  ILE16       0.2616
     32  O         25.8570   -6.5580   59.4740 O.2    16  ILE16      -0.2715
     33  CB        26.4220   -9.1370   58.0370 C.3    16  ILE16       0.0290
     34  CG1       27.1930  -10.4500   57.8280 C.3    16  ILE16       0.0022
     35  CG2       25.5870   -8.8350   56.7950 C.3    16  ILE16       0.0023
     36  CD1       26.3310  -11.7060   57.8710 C.3    16  ILE16       0.0001
     37  N         26.8900   -5.7060   57.6680 N.am   17  HIS17      -0.1959
     38  CA        26.2660   -4.3780   57.7700 C.3    17  HIS17       0.1787
     39  C         25.0300   -4.2640   56.8700 C.2    17  HIS17       0.2620
     40  O         24.8880   -3.3290   56.0800 O.2    17  HIS17      -0.2715
     41  CB        27.3010   -3.3140   57.4110 C.3    17  HIS17       0.0785
     42  CG        28.5160   -3.3530   58.2670 C.ar   17  HIS17       0.0821
     43  ND1       28.6300   -2.6180   59.4230 N.ar   17  HIS17      -0.2267
     44  CD2       29.6630   -4.0580   58.1550 C.ar   17  HIS17       0.1154
     45  CE1       29.8040   -2.8530   59.9810 C.ar   17  HIS17       0.1986
     46  NE2       30.4520   -3.7250   59.2300 N.ar   17  HIS17      -0.2212
     47  N         24.1380   -5.2260   57.0140 N.am   18  ASN18      -0.1972
     48  CA        22.9740   -5.3630   56.1660 C.3    18  ASN18       0.1688
     49  C         21.9820   -6.2720   56.8560 C.2    18  ASN18       0.2292
     50  O         22.3900   -7.0720   57.7140 O.2    18  ASN18      -0.2864
     51  CB        23.3500   -6.0310   54.8340 C.3    18  ASN18       0.1181
     52  CG        23.7530   -5.0350   53.7930 C.2    18  ASN18       0.2629
     53  OD1       23.1040   -4.0100   53.6280 O.2    18  ASN18      -0.2716
     54  ND2       24.8030   -5.3410   53.0500 N.am   18  ASN18      -0.0877
     55  N         20.7590   -9.1330   56.3440 N.3    20  ILE20      -0.1245
     56  CA        20.7460  -10.5670   56.1150 C.3    20  ILE20       0.1561
     57  C         21.5830  -11.2940   57.1420 C.2    20  ILE20       0.2260
     58  O         22.6050  -10.8000   57.5930 O.2    20  ILE20      -0.2867
     59  CB        21.1980  -10.9630   54.7130 C.3    20  ILE20       0.0252
     60  CG1       22.5130  -10.3090   54.3670 C.3    20  ILE20       0.0019
     61  CG2       20.1220  -10.5950   53.6960 C.3    20  ILE20       0.0019
     62  CD1       23.2450  -11.1150   53.3280 C.3    20  ILE20       0.0001
     63  N         34.3320   -6.5910   45.4890 N.3    42  ASP42      -0.1239
     64  CA        33.2500   -6.1380   46.3740 C.3    42  ASP42       0.1674
     65  C         33.4290   -4.6570   46.6940 C.2    42  ASP42       0.2266
     66  O         34.3650   -4.2820   47.3790 O.2    42  ASP42      -0.2867
     67  CB        33.2360   -6.9850   47.6570 C.3    42  ASP42       0.1410
     68  CG        31.9820   -6.7690   48.5140 C.2    42  ASP42       0.3668
     69  OD1       30.9570   -6.2140   48.0140 O.co2  42  ASP42      -0.2456
     70  OD2       31.9980   -7.1720   49.7120 O.co2  42  ASP42      -0.2456
     71  N         32.2370   -1.3730   48.5920 N.3    44  GLY44      -0.1210
     72  CA        31.5620   -1.1390   49.8660 C.3    44  GLY44       0.1956
     73  C         31.4980   -2.4380   50.6480 C.2    44  GLY44       0.2613
     74  O         30.4120   -2.8650   51.0700 O.2    44  GLY44      -0.2717
     75  N         32.6630   -3.0340   50.8750 N.am   45  SER45      -0.1938
     76  CA        32.7820   -4.4000   51.4070 C.3    45  SER45       0.2055
     77  C         32.6040   -4.5350   52.9310 C.2    45  SER45       0.2644
     78  O         32.5840   -5.6440   53.4500 O.2    45  SER45      -0.2714
     79  CB        34.1150   -5.0130   51.0000 C.3    45  SER45       0.2130
     80  OG        35.1950   -4.1410   51.3290 O.3    45  SER45      -0.2179
     81  N         32.4400   -3.4200   53.6350 N.am   46  GLY46      -0.1939
     82  CA        32.0990   -3.4470   55.0600 C.3    46  GLY46       0.2014
     83  C         33.2320   -3.9910   55.8970 C.2    46  GLY46       0.2639
     84  O         34.3850   -3.5600   55.7320 O.2    46  GLY46      -0.2714
     85  N         32.9060   -4.9420   56.7750 N.am   47  SER47      -0.1949
     86  CA        33.8820   -5.6400   57.5830 C.3    47  SER47       0.1924
     87  C         34.3090   -6.9530   56.9160 C.2    47  SER47       0.2314
     88  O         34.8050   -7.8660   57.5720 O.2    47  SER47      -0.2863
     89  CB        33.3420   -5.8650   58.9890 C.3    47  SER47       0.2116
     90  OG        33.1030   -4.6110   59.6290 O.3    47  SER47      -0.2180
     91  N         32.9060   -9.6230   55.6070 N.3    49  GLU49      -0.1245
     92  CA        32.3670  -10.9550   55.9410 C.3    49  GLU49       0.1567
     93  C         32.0800  -11.8340   54.7090 C.2    49  GLU49       0.2260
     94  O         32.3650  -13.0400   54.7150 O.2    49  GLU49      -0.2867
     95  CB        31.1120  -10.8440   56.7790 C.3    49  GLU49       0.0388
     96  CG        30.6870  -12.1680   57.4270 C.3    49  GLU49       0.1160
     97  CD        31.6170  -12.6660   58.5260 C.2    49  GLU49       0.3649
     98  OE1       32.6230  -12.0160   58.8620 O.co2  49  GLU49      -0.2457
     99  OE2       31.3280  -13.7290   59.0900 O.co2  49  GLU49      -0.2457
    100  N         36.7020   -3.0690   48.7510 N.3    64  ILE64      -0.1231
    101  CA        37.0150   -1.6570   48.9620 C.3    64  ILE64       0.1692
    102  C         35.9560   -1.0580   49.8440 C.2    64  ILE64       0.2592
    103  O         34.7590   -1.1740   49.5530 O.2    64  ILE64      -0.2718
    104  CB        37.1080   -0.8680   47.6550 C.3    64  ILE64       0.0266
    105  CG1       38.2850   -1.4050   46.8420 C.3    64  ILE64       0.0019
    106  CG2       37.3650    0.6160   47.9180 C.3    64  ILE64       0.0020
    107  CD1       37.9090   -1.7310   45.4290 C.3    64  ILE64       0.0001
    108  N         36.4110   -0.3820   50.8980 N.am   65  ASP65      -0.1974
    109  CA        35.5090    0.2410   51.8500 C.3    65  ASP65       0.1709
    110  C         36.0700    1.5290   52.4400 C.2    65  ASP65       0.2293
    111  O         37.2440    1.6210   52.7500 O.2    65  ASP65      -0.2864
    112  CB        35.1110   -0.7220   52.9630 C.3    65  ASP65       0.1436
    113  CG        33.8130   -0.2920   53.6490 C.2    65  ASP65       0.3671
    114  OD1       33.8570    0.5470   54.5840 O.co2  65  ASP65      -0.2456
    115  OD2       32.7290   -0.7860   53.2390 O.co2  65  ASP65      -0.2456
    116  N         35.3590    2.9840   55.2870 N.3    66  SER66      -0.1217
    117  CA        35.5350    2.9970   56.7510 C.3    66  SER66       0.1889
    118  C         36.9030    2.4870   57.1300 C.2    66  SER66       0.2288
    119  O         37.2770    1.3820   56.7600 O.2    66  SER66      -0.2866
    120  CB        34.4870    2.1210   57.4530 C.3    66  SER66       0.2089
    121  OG        34.7680    1.9780   58.8320 O.3    66  SER66      -0.2183
    122  N         36.0900   -0.5280   59.7130 N.3    69  PHE69      -0.1241
    123  CA        35.5860   -1.7660   59.0870 C.3    69  PHE69       0.1605
    124  C         36.6560   -2.4610   58.2140 C.2    69  PHE69       0.2264
    125  O         36.6990   -3.6870   58.1420 O.2    69  PHE69      -0.2867
    126  CB        34.2990   -1.5310   58.2810 C.3    69  PHE69       0.0534
    127  CG        33.1620   -0.8900   59.0640 C.ar   69  PHE69      -0.0203
    128  CD1       33.0790   -0.9610   60.4630 C.ar   69  PHE69      -0.0042
    129  CD2       32.1290   -0.2410   58.3700 C.ar   69  PHE69      -0.0042
    130  CE1       32.0190   -0.3750   61.1360 C.ar   69  PHE69      -0.0003
    131  CE2       31.0600    0.3410   59.0520 C.ar   69  PHE69      -0.0003
    132  CZ        31.0140    0.2760   60.4390 C.ar   69  PHE69      -0.0000
    133  N         39.3180    2.8470   51.0830 N.3    91  GLY91      -0.1210
    134  CA        39.1430    3.8130   50.0040 C.3    91  GLY91       0.1956
    135  C         37.7100    4.0800   49.5860 C.2    91  GLY91       0.2612
    136  O         36.7750    3.3980   50.0020 O.2    91  GLY91      -0.2717
    137  N         37.5550    5.1370   48.7880 N.am   92  ASP92      -0.1959
    138  CA        36.2950    5.4730   48.1460 C.3    92  ASP92       0.1840
    139  C         36.1430    4.6400   46.8850 C.2    92  ASP92       0.2622
    140  O         36.9880    4.6950   45.9990 O.2    92  ASP92      -0.2715
    141  CB        36.2990    6.9590   47.7750 C.3    92  ASP92       0.1450
    142  CG        34.9290    7.4830   47.3750 C.2    92  ASP92       0.3671
    143  OD1       34.0460    6.7370   46.9020 O.co2  92  ASP92      -0.2456
    144  OD2       34.7410    8.7030   47.5060 O.co2  92  ASP92      -0.2456
    145  N         35.0500    3.9130   46.7730 N.am   93  ALA93      -0.1963
    146  CA        34.8340    3.0190   45.6290 C.3    93  ALA93       0.1728
    147  C         34.1690    3.7250   44.4300 C.2    93  ALA93       0.2616
    148  O         33.8730    3.0640   43.4300 O.2    93  ALA93      -0.2715
    149  CB        34.0150    1.8130   46.0740 C.3    93  ALA93       0.0334
    150  N         33.8690    5.0210   44.5630 N.am   94  SER94      -0.1950
    151  CA        33.2170    5.7880   43.5070 C.3    94  SER94       0.1924
    152  C         34.0680    5.7760   42.2710 C.2    94  SER94       0.2314
    153  O         35.2330    6.0930   42.3360 O.2    94  SER94      -0.2863
    154  CB        32.9970    7.2380   43.9360 C.3    94  SER94       0.2116
    155  OG        32.0520    7.2740   44.9890 O.3    94  SER94      -0.2180
    156  N         26.8720   -4.6150   47.5760 N.3   108  VAL108     -0.1231
    157  CA        25.8320   -5.1860   48.4320 C.3   108  VAL108      0.1692
    158  C         25.4640   -4.1650   49.5000 C.2   108  VAL108      0.2593
    159  O         26.0740   -4.0930   50.5630 O.2   108  VAL108     -0.2718
    160  CB        26.3120   -6.5170   49.0540 C.3   108  VAL108      0.0266
    161  CG1       25.2520   -7.1590   49.9300 C.3   108  VAL108      0.0020
    162  CG2       26.6530   -7.4850   47.9480 C.3   108  VAL108      0.0020
    163  N         24.4590   -3.3630   49.1920 N.am  109  GLY109     -0.1942
    164  CA        23.9240   -2.3800   50.1300 C.3   109  GLY109      0.2014
    165  C         24.6250   -1.0300   50.1270 C.2   109  GLY109      0.2638
    166  O         24.4950   -0.2770   51.0880 O.2   109  GLY109     -0.2714
    167  N         25.3140   -0.6830   49.0440 N.am  110  ALA110     -0.1977
    168  CA        25.9040    0.6430   48.9290 C.3   110  ALA110      0.1597
    169  C         25.7350    1.2240   47.5190 C.2   110  ALA110      0.2287
    170  O         26.6890    1.7320   46.9510 O.2   110  ALA110     -0.2864
    171  CB        27.3700    0.5770   49.3260 C.3   110  ALA110      0.0319
    172  N         24.4290    3.8940   46.3370 N.3   112  TRP112     -0.1227
    173  CA        24.7740    5.2910   46.1630 C.3   112  TRP112      0.1737
    174  C         26.1550    5.4810   45.5470 C.2   112  TRP112      0.2595
    175  O         26.3890    6.4740   44.8820 O.2   112  TRP112     -0.2718
    176  CB        24.6860    6.0640   47.4840 C.3   112  TRP112      0.0564
    177  CG        25.5410    5.5200   48.5680 C.ar  112  TRP112      0.0003
    178  CD1       26.8670    5.7930   48.7890 C.ar  112  TRP112      0.0946
    179  CD2       25.1460    4.5870   49.5900 C.ar  112  TRP112      0.0152
    180  NE1       27.3140    5.0970   49.8970 N.ar  112  TRP112     -0.2442
    181  CE2       26.2770    4.3500   50.4030 C.ar  112  TRP112      0.0810
    182  CE3       23.9410    3.9380   49.9010 C.ar  112  TRP112      0.0012
    183  CZ2       26.2320    3.4920   51.5310 C.ar  112  TRP112      0.0191
    184  CZ3       23.8930    3.0890   51.0250 C.ar  112  TRP112      0.0001
    185  CH2       25.0320    2.8740   51.8200 C.ar  112  TRP112      0.0015
    186  N         27.0570    4.5200   45.7470 N.am  113  ILE113     -0.1980
    187  CA        28.4010    4.5420   45.1550 C.3   113  ILE113      0.1595
    188  C         28.3610    4.8400   43.6390 C.2   113  ILE113      0.2287
    189  O         29.1990    5.5920   43.1310 O.2   113  ILE113     -0.2864
    190  CB        29.1570    3.2150   45.4600 C.3   113  ILE113      0.0276
    191  CG1       29.6000    3.2010   46.9240 C.3   113  ILE113      0.0022
    192  CG2       30.3950    3.0240   44.5810 C.3   113  ILE113      0.0022
    193  CD1       30.0410    1.8360   47.4280 C.3   113  ILE113      0.0001
    194  N         20.2560   -6.9380   62.0290 N.3   191  TYR191     -0.1241
    195  CA        20.9170   -5.7250   61.6200 C.3   191  TYR191      0.1605
    196  C         20.5980   -4.5220   62.5340 C.2   191  TYR191      0.2264
    197  O         21.5130   -3.8250   62.9870 O.2   191  TYR191     -0.2867
    198  CB        20.5590   -5.4110   60.1740 C.3   191  TYR191      0.0534
    199  CG        21.1120   -4.0980   59.7310 C.ar  191  TYR191     -0.0201
    200  CD1       22.4790   -3.8710   59.7460 C.ar  191  TYR191     -0.0009
    201  CD2       20.2730   -3.0570   59.3600 C.ar  191  TYR191     -0.0009
    202  CE1       22.9940   -2.6500   59.3860 C.ar  191  TYR191      0.0417
    203  CE2       20.7920   -1.8280   58.9770 C.ar  191  TYR191      0.0417
    204  CZ        22.1560   -1.6460   58.9980 C.ar  191  TYR191      0.1957
    205  OH        22.6800   -0.4500   58.6600 O.3   191  TYR191     -0.2866
@<TRIPOS>BOND
     1   152   153    2
     2   152   151    1
     3   189   188    2
     4   148   147    2
     5   151   154    1
     6   151   150    1
     7   188   187    1
     8   154   155    1
     9   147   150   am
    10   147   146    1
    11   192   190    1
    12   175   174    2
    13   187   190    1
    14   187   186    1
    15   107   105    1
    16   190   191    1
    17    63    64    1
    18   174   186   am
    19   174   173    1
    20   146   149    1
    21   146   145    1
    22   140   139    2
    23   173   172    1
    24   173   176    1
    25    64    65    1
    26    64    67    1
    27    65    66    2
    28   145   139   am
    29   105   104    1
    30   139   138    1
    31   143   142   ar
    32   191   193    1
    33   170   169    2
    34   142   144   ar
    35   142   141    1
    36   176   177    1
    37   169   168    1
    38   156   157    1
    39   104   106    1
    40   104   101    1
    41    67    68    1
    42   141   138    1
    43   162   160    1
    44    69    68   ar
    45   138   137    1
    46   157   160    1
    47   157   158    1
    48    68    70   ar
    49   177   178   ar
    50   177   179   ar
    51    71    72    1
    52   100   101    1
    53   137   135   am
    54   178   180   ar
    55   168   167    1
    56   168   171    1
    57   101   102    1
    58   167   165   am
    59   160   161    1
    60   163   158   am
    61   163   164    1
    62   158   159    2
    63   103   102    2
    64   135   136    2
    65   135   134    1
    66   179   182   ar
    67   179   181   ar
    68   102   108   am
    69    72    73    1
    70   180   181   ar
    71   182   184   ar
    72   134   133    1
    73   165   164    1
    74   165   166    2
    75   181   183   ar
    76    73    75   am
    77    73    74    2
    78    75    76    1
    79   108   109    1
    80    79    80    1
    81    79    76    1
    82   184   185   ar
    83    76    77    1
    84   183   185   ar
    85   109   110    1
    86   109   112    1
    87   110   111    2
    88    77    78    2
    89    77    81   am
    90   112   113    1
    91    54    52   am
    92   115   113   ar
    93    62    60    1
    94    53    52    2
    95    81    82    1
    96   113   114   ar
    97    61    59    1
    98    52    51    1
    99    60    59    1
   100    93    94    2
   101    93    92    1
   102    59    56    1
   103    51    48    1
   104    82    83    1
   105   116   117    1
   106    91    92    1
   107    84    83    2
   108    83    85   am
   109    92    95    1
   110     7     5    1
   111    40    39    2
   112    56    55    1
   113    56    57    1
   114    48    49    1
   115    48    47    1
   116   117   118    1
   117   117   120    1
   118   119   118    2
   119    85    86    1
   120    95    96    1
   121    35    33    1
   122    49    50    2
   123    39    47   am
   124    39    38    1
   125    87    88    2
   126    87    86    1
   127     1     2    1
   128    57    58    2
   129     2     5    1
   130     2     3    1
   131     5     6    1
   132    41    38    1
   133    41    42    1
   134    96    97    1
   135   120   121    1
   136    86    89    1
   137    37    38    1
   138    37    31   am
   139    34    36    1
   140    34    33    1
   141    33    30    1
   142   125   124    2
   143    44    42   ar
   144    44    46   ar
   145   124   123    1
   146    42    43   ar
   147   126   127    1
   148   126   123    1
   149    30    31    1
   150    30    29    1
   151   129   131   ar
   152   129   127   ar
   153     3     4    2
   154     6     8    1
   155    97    98   ar
   156    97    99   ar
   157    31    32    2
   158    21    20    2
   159   205   204    1
   160   203   204   ar
   161   203   201   ar
   162    89    90    1
   163   204   202   ar
   164   131   132   ar
   165   127   128   ar
   166   123   122    1
   167    46    45   ar
   168   201   199   ar
   169   202   200   ar
   170    43    45   ar
   171    29    20   am
   172    20    19    1
   173   199   200   ar
   174   199   198    1
   175    17    15   ar
   176    16    15   ar
   177   198   195    1
   178   132   130   ar
   179   128   130   ar
   180    15    14    1
   181    19    22    1
   182    19    18    1
   183    22    23    1
   184   195   194    1
   185   195   196    1
   186    14    13    1
   187    23    24    1
   188    13    10    1
   189    24    25    1
   190   196   197    2
   191    12    11    2
   192    25    26    2
   193    27    26    1
   194    10    11    1
   195    10     9    1
   196    26    28    1
