@<TRIPOS>MOLECULE
tmp/5bp9A02.pdb
 185 177 0 0 0
SMALL
GASTEIGER

@<TRIPOS>ATOM
      1  N         20.2550   34.2310   29.0790 N.3     6  LEU6       -0.1245
      2  CA        21.4050   35.1470   29.1830 C.3     6  LEU6        0.1561
      3  C         21.7940   35.3330   30.6490 C.2     6  LEU6        0.2260
      4  O         20.9570   35.6060   31.4690 O.2     6  LEU6       -0.2867
      5  CB        21.0980   36.5220   28.5930 C.3     6  LEU6        0.0270
      6  CG        20.5590   36.5570   27.1780 C.3     6  LEU6        0.0019
      7  CD1       20.3030   37.9920   26.7600 C.3     6  LEU6        0.0001
      8  CD2       21.5040   35.8870   26.1980 C.3     6  LEU6        0.0001
      9  N         17.9560   48.6300   29.6150 N.3    16  ILE16      -0.1245
     10  CA        16.5550   48.7300   30.0250 C.3    16  ILE16       0.1561
     11  C         16.4700   48.9740   31.5290 C.2    16  ILE16       0.2260
     12  O         15.6880   49.8420   31.9660 O.2    16  ILE16      -0.2867
     13  CB        15.7620   47.4450   29.5870 C.3    16  ILE16       0.0252
     14  CG1       15.5430   47.4830   28.0700 C.3    16  ILE16       0.0019
     15  CG2       14.4120   47.2910   30.3210 C.3    16  ILE16       0.0019
     16  CD1       15.0820   46.1680   27.4560 C.3    16  ILE16       0.0001
     17  N         12.8350   51.6390   23.2620 N.3    45  LEU45      -0.1245
     18  CA        12.4830   50.3260   23.8350 C.3    45  LEU45       0.1561
     19  C         11.3480   50.3990   24.8500 C.2    45  LEU45       0.2260
     20  O         10.7700   49.3610   25.1810 O.2    45  LEU45      -0.2867
     21  CB        13.7180   49.6870   24.4900 C.3    45  LEU45       0.0270
     22  CG        14.8830   49.3720   23.5440 C.3    45  LEU45       0.0019
     23  CD1       16.0990   48.8660   24.3050 C.3    45  LEU45       0.0001
     24  CD2       14.4700   48.3700   22.4630 C.3    45  LEU45       0.0001
     25  N          8.5850   52.5070   24.2520 N.3    47  ARG47      -0.1245
     26  CA         7.4570   53.1290   23.5240 C.3    47  ARG47       0.1563
     27  C          6.0730   52.6180   23.9870 C.2    47  ARG47       0.2260
     28  O          5.8690   51.4030   24.1330 O.2    47  ARG47      -0.2867
     29  CB         7.6060   52.9030   22.0130 C.3    47  ARG47       0.0307
     30  CG         7.4700   51.4430   21.5800 C.3    47  ARG47       0.0489
     31  CD         8.0990   51.2320   20.2170 C.3    47  ARG47       0.2205
     32  NE         8.1390   49.8320   19.7750 N.pl3  47  ARG47      -0.0865
     33  CZ         8.9730   48.8900   20.2330 C.cat  47  ARG47       0.5346
     34  NH1        9.8620   49.1420   21.2040 N.pl3  47  ARG47       0.1354
     35  NH2        8.9180   47.6560   19.7210 N.pl3  47  ARG47       0.1354
     36  N          3.4850   37.0740   24.2840 N.3    65  ASP65      -0.1225
     37  CA         4.4030   38.1190   23.8090 C.3    65  ASP65       0.1805
     38  C          5.8400   37.5690   23.8670 C.2    65  ASP65       0.2598
     39  O          6.4520   37.5080   24.9430 O.2    65  ASP65      -0.2718
     40  CB         4.2090   39.3750   24.6810 C.3    65  ASP65       0.1424
     41  CG         5.0240   40.5440   24.2470 C.2    65  ASP65       0.3668
     42  OD1        5.7320   40.4740   23.2290 O.co2  65  ASP65      -0.2456
     43  OD2        4.9490   41.5670   24.9740 O.co2  65  ASP65      -0.2456
     44  N          6.3430   37.1490   22.6990 N.am   66  VAL66      -0.1966
     45  CA         7.6580   36.4810   22.6010 C.3    66  VAL66       0.1727
     46  C          8.7630   37.5320   22.5060 C.2    66  VAL66       0.2617
     47  O          8.7280   38.4220   21.6330 O.2    66  VAL66      -0.2715
     48  CB         7.7370   35.5790   21.3570 C.3    66  VAL66       0.0290
     49  CG1        9.0860   34.8940   21.2800 C.3    66  VAL66       0.0023
     50  CG2        6.6070   34.5650   21.3210 C.3    66  VAL66       0.0023
     51  N          9.7610   37.4130   23.3830 N.am   67  GLY67      -0.1940
     52  CA        10.9060   38.3300   23.3990 C.3    67  GLY67       0.2014
     53  C         10.4270   39.7120   23.7810 C.2    67  GLY67       0.2639
     54  O         10.6460   40.6960   23.0780 O.2    67  GLY67      -0.2714
     55  N          9.7250   39.7750   24.9100 N.am   68  ALA68      -0.1963
     56  CA         8.9360   40.9510   25.2700 C.3    68  ALA68       0.1728
     57  C          9.7300   42.2010   25.7130 C.2    68  ALA68       0.2617
     58  O          9.1810   43.3130   25.8100 O.2    68  ALA68      -0.2715
     59  CB         7.9090   40.5300   26.2920 C.3    68  ALA68       0.0334
     60  N         11.0160   42.0140   26.0130 N.am   69  GLY69      -0.1940
     61  CA        11.9090   43.1390   26.2620 C.3    69  GLY69       0.2014
     62  C         11.5080   43.9570   27.4610 C.2    69  GLY69       0.2639
     63  O         11.4140   43.4130   28.5550 O.2    69  GLY69      -0.2714
     64  N         11.2510   45.2580   27.2570 N.am   70  SER70      -0.1949
     65  CA        10.8310   46.1150   28.3790 C.3    70  SER70       0.1924
     66  C          9.3940   45.9030   28.8070 C.2    70  SER70       0.2314
     67  O          8.9870   46.4860   29.7970 O.2    70  SER70      -0.2863
     68  CB        10.9980   47.5990   28.0260 C.3    70  SER70       0.2116
     69  OG        10.0120   47.9480   27.0680 O.3    70  SER70      -0.2180
     70  N          6.6970   46.6870   26.7850 N.3    72  CYS72      -0.1221
     71  CA         5.8510   47.6720   26.1450 C.3    72  CYS72       0.1808
     72  C          4.5890   47.0730   25.5200 C.2    72  CYS72       0.2601
     73  O          3.4920   47.6120   25.7300 O.2    72  CYS72      -0.2717
     74  CB         6.6590   48.4930   25.1070 C.3    72  CYS72       0.0970
     75  SG         7.4110   47.5910   23.7060 S.3    72  CYS72      -0.0800
     76  N          4.7360   45.9830   24.7550 N.am   73  HIS73      -0.1975
     77  CA         3.5930   45.3770   24.1120 C.3    73  HIS73       0.1656
     78  C          2.6840   44.7620   25.1630 C.2    73  HIS73       0.2291
     79  O          1.4640   44.9580   25.1070 O.2    73  HIS73      -0.2864
     80  CB         3.9930   44.3600   23.0510 C.3    73  HIS73       0.0771
     81  CG         4.7610   44.9610   21.9190 C.ar   73  HIS73       0.0820
     82  ND1        5.9340   44.4210   21.4360 N.ar   73  HIS73      -0.2267
     83  CD2        4.5290   46.0720   21.1900 C.ar   73  HIS73       0.1154
     84  CE1        6.3810   45.1750   20.4520 C.ar   73  HIS73       0.1986
     85  NE2        5.5470   46.1850   20.2890 N.ar   73  HIS73      -0.2212
     86  N          7.4660   36.4810   27.6500 N.3    87  ILE87      -0.1231
     87  CA         8.6840   35.7070   27.9060 C.3    87  ILE87       0.1692
     88  C          9.8940   36.4240   27.3080 C.2    87  ILE87       0.2592
     89  O          9.7830   37.1400   26.2920 O.2    87  ILE87      -0.2718
     90  CB         8.5960   34.2600   27.3830 C.3    87  ILE87       0.0266
     91  CG1        8.5050   34.1750   25.8500 C.3    87  ILE87       0.0019
     92  CG2        7.4780   33.4870   28.0830 C.3    87  ILE87       0.0020
     93  CD1        8.7510   32.7770   25.3410 C.3    87  ILE87       0.0001
     94  N         11.0410   36.2480   27.9480 N.am   88  ASP88      -0.1960
     95  CA        12.3050   36.7460   27.4220 C.3    88  ASP88       0.1840
     96  C         13.4270   35.9660   28.0730 C.2    88  ASP88       0.2622
     97  O         13.2990   35.5120   29.2060 O.2    88  ASP88      -0.2715
     98  CB        12.4670   38.2710   27.7070 C.3    88  ASP88       0.1450
     99  CG        13.3660   38.9550   26.7090 C.2    88  ASP88       0.3671
    100  OD1       14.5930   38.6790   26.7560 O.co2  88  ASP88      -0.2456
    101  OD2       12.8420   39.7550   25.8740 O.co2  88  ASP88      -0.2456
    102  N         14.5430   35.8420   27.3610 N.am   89  ILE89      -0.1963
    103  CA        15.7340   35.1830   27.9240 C.3    89  ILE89       0.1727
    104  C         16.6080   36.1190   28.7700 C.2    89  ILE89       0.2616
    105  O         17.5140   35.6460   29.4440 O.2    89  ILE89      -0.2715
    106  CB        16.5990   34.5230   26.8340 C.3    89  ILE89       0.0290
    107  CG1       17.0600   35.5500   25.7900 C.3    89  ILE89       0.0022
    108  CG2       15.8350   33.3520   26.2010 C.3    89  ILE89       0.0023
    109  CD1       18.0520   35.0150   24.7660 C.3    89  ILE89       0.0001
    110  N         16.3390   37.4260   28.7140 N.am   90  SER90      -0.1950
    111  CA        17.1160   38.4510   29.4260 C.3    90  SER90       0.1924
    112  C         16.6240   38.5650   30.8760 C.2    90  SER90       0.2314
    113  O         15.4700   38.9530   31.0870 O.2    90  SER90      -0.2863
    114  CB        16.9690   39.8060   28.7470 C.3    90  SER90       0.2116
    115  OG        17.3800   40.8590   29.6070 O.3    90  SER90      -0.2180
    116  N         15.6310   42.2650   31.7170 N.3    93  SER93      -0.1217
    117  CA        14.4020   42.6530   31.0430 C.3    93  SER93       0.1889
    118  C         13.1900   42.1280   31.7940 C.2    93  SER93       0.2288
    119  O         12.2290   42.8660   32.0000 O.2    93  SER93      -0.2866
    120  CB        14.3950   42.1740   29.6010 C.3    93  SER93       0.2089
    121  OG        15.4600   42.7570   28.8550 O.3    93  SER93      -0.2183
    122  N         12.2630   32.7030   30.1580 N.3   107  VAL107     -0.1231
    123  CA        12.3030   31.4120   29.5150 C.3   107  VAL107      0.1692
    124  C         12.5250   31.6040   28.0130 C.2   107  VAL107      0.2592
    125  O         12.1200   32.5990   27.4100 O.2   107  VAL107     -0.2718
    126  CB        11.0470   30.5790   29.8610 C.3   107  VAL107      0.0266
    127  CG1        9.8000   31.2470   29.2960 C.3   107  VAL107      0.0020
    128  CG2       11.1980   29.1210   29.4010 C.3   107  VAL107      0.0020
    129  N         13.2660   30.6470   27.4670 N.am  108  ASN108     -0.1960
    130  CA        13.5620   30.5890   26.0350 C.3   108  ASN108      0.1819
    131  C         12.3610   29.9580   25.3250 C.2   108  ASN108      0.2621
    132  O         11.9140   28.8850   25.7240 O.2   108  ASN108     -0.2715
    133  CB        14.8180   29.7420   25.8080 C.3   108  ASN108      0.1195
    134  CG        15.3720   29.8500   24.3980 C.2   108  ASN108      0.2630
    135  OD1       14.6410   29.7290   23.4170 O.2   108  ASN108     -0.2716
    136  ND2       16.6790   30.0430   24.2920 N.am  108  ASN108     -0.0877
    137  N         11.8540   30.6090   24.2640 N.am  109  LEU109     -0.1963
    138  CA        10.7560   30.0820   23.4720 C.3   109  LEU109      0.1728
    139  C         10.9200   28.6010   23.1190 C.2   109  LEU109      0.2616
    140  O          9.9400   27.8500   23.1150 O.2   109  LEU109     -0.2715
    141  CB        10.6400   30.9110   22.1690 C.3   109  LEU109      0.0311
    142  CG         9.5960   30.4600   21.1390 C.3   109  LEU109      0.0022
    143  CD1        8.2020   30.6650   21.6900 C.3   109  LEU109      0.0001
    144  CD2        9.7730   31.2040   19.8290 C.3   109  LEU109      0.0001
    145  N         12.1640   28.2020   22.8090 N.am  110  PHE110     -0.1974
    146  CA        12.4500   26.8660   22.3080 C.3   110  PHE110      0.1639
    147  C         12.6420   25.7970   23.3940 C.2   110  PHE110      0.2290
    148  O         12.7970   24.6060   23.0720 O.2   110  PHE110     -0.2864
    149  CB        13.6510   26.9090   21.3760 C.3   110  PHE110      0.0560
    150  CG        13.4320   27.7800   20.1850 C.ar  110  PHE110     -0.0200
    151  CD1       12.5080   27.4110   19.2110 C.ar  110  PHE110     -0.0042
    152  CD2       14.1020   28.9770   20.0510 C.ar  110  PHE110     -0.0042
    153  CE1       12.2820   28.2300   18.1290 C.ar  110  PHE110     -0.0003
    154  CE2       13.8820   29.7900   18.9620 C.ar  110  PHE110     -0.0003
    155  CZ        12.9850   29.4160   17.9950 C.ar  110  PHE110     -0.0000
    156  N          7.1290   40.3620   17.4160 N.3   123  LEU123     -0.1245
    157  CA         7.1980   41.7320   16.8840 C.3   123  LEU123      0.1561
    158  C          8.5800   42.3660   17.0560 C.2   123  LEU123      0.2260
    159  O          9.3450   41.9490   17.9040 O.2   123  LEU123     -0.2867
    160  CB         6.1330   42.5830   17.5520 C.3   123  LEU123      0.0270
    161  CG         4.6900   42.1030   17.3600 C.3   123  LEU123      0.0019
    162  CD1        3.7500   43.0170   18.1480 C.3   123  LEU123      0.0001
    163  CD2        4.2800   42.0290   15.9040 C.3   123  LEU123      0.0001
    164  N         14.3720   35.8550   16.2800 N.3   128  ILE128     -0.1245
    165  CA        14.5540   34.7830   17.2610 C.3   128  ILE128      0.1561
    166  C         14.8330   33.4230   16.6150 C.2   128  ILE128      0.2260
    167  O         15.5010   32.5610   17.1910 O.2   128  ILE128     -0.2867
    168  CB        13.3270   34.7740   18.2110 C.3   128  ILE128      0.0252
    169  CG1       13.5090   35.9120   19.2320 C.3   128  ILE128      0.0019
    170  CG2       13.1860   33.4860   19.0150 C.3   128  ILE128      0.0019
    171  CD1       12.3220   36.1690   20.1290 C.3   128  ILE128      0.0001
    172  N         20.4100   36.5770   13.9040 N.3   188  TRP188     -0.1241
    173  CA        19.1690   37.3480   13.8850 C.3   188  TRP188      0.1605
    174  C         18.6330   37.2820   12.4570 C.2   188  TRP188      0.2264
    175  O         19.2040   37.8550   11.5550 O.2   188  TRP188     -0.2867
    176  CB        19.3870   38.7950   14.3690 C.3   188  TRP188      0.0550
    177  CG        18.1640   39.5000   14.8930 C.ar  188  TRP188      0.0003
    178  CD1       17.6070   40.6680   14.4280 C.ar  188  TRP188      0.0946
    179  CD2       17.4030   39.1240   16.0420 C.ar  188  TRP188      0.0152
    180  NE1       16.5260   41.0090   15.2010 N.ar  188  TRP188     -0.2442
    181  CE2       16.3730   40.0840   16.1970 C.ar  188  TRP188      0.0810
    182  CE3       17.4910   38.0800   16.9520 C.ar  188  TRP188      0.0012
    183  CZ2       15.4360   40.0150   17.2360 C.ar  188  TRP188      0.0191
    184  CZ3       16.5610   37.9920   17.9670 C.ar  188  TRP188      0.0001
    185  CH2       15.5360   38.9540   18.1030 C.ar  188  TRP188      0.0015
@<TRIPOS>BOND
     1   175   174    2
     2   174   173    1
     3   173   172    1
     4   173   176    1
     5   176   177    1
     6   178   177   ar
     7   178   180   ar
     8   177   179   ar
     9   180   181   ar
    10   163   161    1
    11   179   181   ar
    12   179   182   ar
    13   181   183   ar
    14   164   165    1
    15   166   167    2
    16   166   165    1
    17   157   158    1
    18   157   156    1
    19   157   160    1
    20   182   184   ar
    21   158   159    2
    22   183   185   ar
    23   165   168    1
    24   161   160    1
    25   161   162    1
    26   184   185   ar
    27   155   153   ar
    28   155   154   ar
    29   153   151   ar
    30   168   170    1
    31   168   169    1
    32   154   152   ar
    33   151   150   ar
    34   169   171    1
    35    35    33    1
    36    32    31    1
    37    32    33    2
    38   144   142    1
    39   152   150   ar
    40   150   149    1
    41    31    30    1
    42    33    34    1
    43    85    84   ar
    44    85    83   ar
    45    84    82   ar
    46   142   143    1
    47   142   141    1
    48    83    81   ar
    49    49    48    1
    50    50    48    1
    51    48    45    1
    52   149   146    1
    53    82    81   ar
    54    30    29    1
    55    47    46    2
    56    81    80    1
    57    29    26    1
    58   141   138    1
    59   146   145    1
    60   146   147    1
    61    24    22    1
    62    46    45    1
    63    46    51   am
    64    45    44    1
    65    44    38   am
    66   145   139   am
    67    80    77    1
    68   148   147    2
    69    54    53    2
    70   140   139    2
    71   139   138    1
    72    42    41   ar
    73    17    18    1
    74    51    52    1
    75    52    53    1
    76   135   134    2
    77   138   137    1
    78    26    27    1
    79    26    25    1
    80    22    23    1
    81    22    21    1
    82    75    74    1
    83    53    55   am
    84    37    38    1
    85    37    36    1
    86    37    40    1
    87    18    21    1
    88    18    19    1
    89    38    39    2
    90    27    28    2
    91    77    76    1
    92    77    78    1
    93    41    40    1
    94    41    43   ar
    95   137   131   am
    96   136   134   am
    97   134   133    1
    98    76    72   am
    99   109   107    1
   100    19    20    2
   101    55    56    1
   102    79    78    2
   103    74    71    1
   104    56    57    1
   105    56    59    1
   106   131   132    2
   107   131   130    1
   108    93    91    1
   109    72    73    2
   110    72    71    1
   111    57    58    2
   112    57    60   am
   113   107   106    1
   114   133   130    1
   115    91    90    1
   116   101    99   ar
   117    60    61    1
   118   130   129    1
   119    71    70    1
   120     8     6    1
   121   108   106    1
   122    61    62    1
   123    89    88    2
   124    99   100   ar
   125    99    98    1
   126     7     6    1
   127   106   103    1
   128    69    68    1
   129     6     5    1
   130    64    62   am
   131    64    65    1
   132    88    87    1
   133    88    94   am
   134   102   103    1
   135   102    96   am
   136    90    87    1
   137    90    92    1
   138   125   124    2
   139    95    98    1
   140    95    94    1
   141    95    96    1
   142    16    14    1
   143    62    63    2
   144   129   124   am
   145    86    87    1
   146   103   104    1
   147   124   123    1
   148    68    65    1
   149    14    13    1
   150    96    97    2
   151    65    66    1
   152     5     2    1
   153   110   104   am
   154   110   111    1
   155   114   111    1
   156   114   115    1
   157   104   105    2
   158    66    67    2
   159   121   120    1
   160     1     2    1
   161     2     3    1
   162   127   126    1
   163   128   126    1
   164   111   112    1
   165   123   126    1
   166   123   122    1
   167    13    10    1
   168    13    15    1
   169   120   117    1
   170     9    10    1
   171    10    11    1
   172     3     4    2
   173   112   113    2
   174   117   116    1
   175   117   118    1
   176    11    12    2
   177   118   119    2
