@<TRIPOS>MOLECULE
tmp/5bp9A00.pdb
 104 100 0 0 0
SMALL
GASTEIGER

@<TRIPOS>ATOM
      1  N         20.2550   34.2310   29.0790 N.3     6  LEU6       -0.1245
      2  CA        21.4050   35.1470   29.1830 C.3     6  LEU6        0.1561
      3  C         21.7940   35.3330   30.6490 C.2     6  LEU6        0.2260
      4  O         20.9570   35.6060   31.4690 O.2     6  LEU6       -0.2867
      5  CB        21.0980   36.5220   28.5930 C.3     6  LEU6        0.0270
      6  CG        20.5590   36.5570   27.1780 C.3     6  LEU6        0.0019
      7  CD1       20.3030   37.9920   26.7600 C.3     6  LEU6        0.0001
      8  CD2       21.5040   35.8870   26.1980 C.3     6  LEU6        0.0001
      9  N         25.4940   48.2560   18.9790 N.3    30  VAL30      -0.1245
     10  CA        25.2410   47.0310   18.2060 C.3    30  VAL30       0.1561
     11  C         26.3030   46.8750   17.1380 C.2    30  VAL30       0.2260
     12  O         26.5050   47.7840   16.3240 O.2    30  VAL30      -0.2867
     13  CB        23.8790   47.0560   17.4830 C.3    30  VAL30       0.0252
     14  CG1       23.5530   45.6960   16.8820 C.3    30  VAL30       0.0019
     15  CG2       22.7670   47.4450   18.4260 C.3    30  VAL30       0.0019
     16  N         26.5100   50.5310   15.2090 N.3    38  ASP38      -0.1225
     17  CA        25.3750   51.4300   15.3530 C.3    38  ASP38       0.1805
     18  C         24.9150   51.4200   16.8040 C.2    38  ASP38       0.2598
     19  O         25.5620   50.8160   17.6530 O.2    38  ASP38      -0.2718
     20  CB        24.2170   50.9980   14.4360 C.3    38  ASP38       0.1424
     21  CG        23.3740   52.1870   13.9400 C.2    38  ASP38       0.3668
     22  OD1       23.2760   53.2370   14.6400 O.co2  38  ASP38      -0.2456
     23  OD2       22.7970   52.0670   12.8480 O.co2  38  ASP38      -0.2456
     24  N         23.7990   52.1010   17.0600 N.am   39  GLU39      -0.1965
     25  CA        23.1320   52.1200   18.3580 C.3    39  GLU39       0.1733
     26  C         21.6440   51.7610   18.2330 C.2    39  GLU39       0.2616
     27  O         21.0230   51.9730   17.1770 O.2    39  GLU39      -0.2715
     28  CB        23.2700   53.5010   18.9840 C.3    39  GLU39       0.0429
     29  CG        24.7100   53.8840   19.3050 C.3    39  GLU39       0.1163
     30  CD        24.8600   55.2830   19.8940 C.2    39  GLU39       0.3649
     31  OE1       23.8210   55.9600   20.1110 O.co2  39  GLU39      -0.2457
     32  OE2       26.0400   55.6910   20.1450 O.co2  39  GLU39      -0.2457
     33  N         21.1020   51.2220   19.3280 N.am   40  ILE40      -0.1977
     34  CA        19.6860   50.9800   19.4960 C.3    40  ILE40       0.1596
     35  C         19.1950   52.0120   20.5120 C.2    40  ILE40       0.2287
     36  O         19.5710   51.9430   21.6720 O.2    40  ILE40      -0.2864
     37  CB        19.3940   49.5540   20.0150 C.3    40  ILE40       0.0276
     38  CG1       19.7320   48.5190   18.9480 C.3    40  ILE40       0.0022
     39  CG2       17.9250   49.4300   20.3920 C.3    40  ILE40       0.0022
     40  CD1       19.8210   47.0980   19.4790 C.3    40  ILE40       0.0001
     41  N         14.5430   35.8420   27.3610 N.3    89  ILE89      -0.1245
     42  CA        15.7340   35.1830   27.9240 C.3    89  ILE89       0.1561
     43  C         16.6080   36.1190   28.7700 C.2    89  ILE89       0.2260
     44  O         17.5140   35.6460   29.4440 O.2    89  ILE89      -0.2867
     45  CB        16.5990   34.5230   26.8340 C.3    89  ILE89       0.0252
     46  CG1       17.0600   35.5500   25.7900 C.3    89  ILE89       0.0019
     47  CG2       15.8350   33.3520   26.2010 C.3    89  ILE89       0.0019
     48  CD1       18.0520   35.0150   24.7660 C.3    89  ILE89       0.0001
     49  N         24.5700   39.6950   15.0300 N.3   175  PHE175     -0.1241
     50  CA        24.7560   40.8860   15.8430 C.3   175  PHE175      0.1605
     51  C         25.4390   40.5350   17.1680 C.2   175  PHE175      0.2264
     52  O         25.4780   39.3950   17.5810 O.2   175  PHE175     -0.2867
     53  CB        23.4080   41.5370   16.1460 C.3   175  PHE175      0.0534
     54  CG        22.7360   42.1720   14.9620 C.ar  175  PHE175     -0.0203
     55  CD1       23.2810   43.2990   14.3640 C.ar  175  PHE175     -0.0042
     56  CD2       21.5200   41.7210   14.5140 C.ar  175  PHE175     -0.0042
     57  CE1       22.6510   43.9370   13.3290 C.ar  175  PHE175     -0.0003
     58  CE2       20.8820   42.3520   13.4690 C.ar  175  PHE175     -0.0003
     59  CZ        21.4450   43.4540   12.8700 C.ar  175  PHE175     -0.0000
     60  N         27.0600   38.0380   24.1240 N.3   184  ASP184     -0.1239
     61  CA        27.5460   37.0700   23.1680 C.3   184  ASP184      0.1674
     62  C         26.9570   37.3650   21.7920 C.2   184  ASP184      0.2266
     63  O         25.8070   37.8500   21.7010 O.2   184  ASP184     -0.2867
     64  CB        27.1510   35.6550   23.5710 C.3   184  ASP184      0.1410
     65  CG        27.9020   35.1260   24.7680 C.2   184  ASP184      0.3668
     66  OD1       28.9330   35.6790   25.1610 O.co2 184  ASP184     -0.2456
     67  OD2       27.4270   34.1100   25.2980 O.co2 184  ASP184     -0.2456
     68  N         24.9710   36.6970   18.3780 N.3   186  PHE186     -0.1241
     69  CA        23.7810   35.9180   18.0900 C.3   186  PHE186      0.1605
     70  C         23.3530   36.0570   16.6460 C.2   186  PHE186      0.2264
     71  O         23.5820   37.0880   16.0180 O.2   186  PHE186     -0.2867
     72  CB        22.6070   36.2840   19.0170 C.3   186  PHE186      0.0534
     73  CG        22.2050   37.7350   18.9670 C.ar  186  PHE186     -0.0203
     74  CD1       22.8510   38.6760   19.7690 C.ar  186  PHE186     -0.0042
     75  CD2       21.1780   38.1810   18.1230 C.ar  186  PHE186     -0.0042
     76  CE1       22.4800   40.0140   19.7440 C.ar  186  PHE186     -0.0003
     77  CE2       20.7830   39.5130   18.1060 C.ar  186  PHE186     -0.0003
     78  CZ        21.4450   40.4470   18.9010 C.ar  186  PHE186     -0.0000
     79  N         20.4100   36.5770   13.9040 N.3   188  TRP188     -0.1241
     80  CA        19.1690   37.3480   13.8850 C.3   188  TRP188      0.1605
     81  C         18.6330   37.2820   12.4570 C.2   188  TRP188      0.2264
     82  O         19.2040   37.8550   11.5550 O.2   188  TRP188     -0.2867
     83  CB        19.3870   38.7950   14.3690 C.3   188  TRP188      0.0550
     84  CG        18.1640   39.5000   14.8930 C.ar  188  TRP188      0.0003
     85  CD1       17.6070   40.6680   14.4280 C.ar  188  TRP188      0.0946
     86  CD2       17.4030   39.1240   16.0420 C.ar  188  TRP188      0.0152
     87  NE1       16.5260   41.0090   15.2010 N.ar  188  TRP188     -0.2442
     88  CE2       16.3730   40.0840   16.1970 C.ar  188  TRP188      0.0810
     89  CE3       17.4910   38.0800   16.9520 C.ar  188  TRP188      0.0012
     90  CZ2       15.4360   40.0150   17.2360 C.ar  188  TRP188      0.0191
     91  CZ3       16.5610   37.9920   17.9670 C.ar  188  TRP188      0.0001
     92  CH2       15.5360   38.9540   18.1030 C.ar  188  TRP188      0.0015
     93  N         16.2650   38.0440    9.3890 N.3   190  TYR190     -0.1241
     94  CA        15.2700   38.8310    8.6460 C.3   190  TYR190      0.1605
     95  C         14.8080   37.9620    7.4910 C.2   190  TYR190      0.2264
     96  O         15.6020   37.2320    6.9280 O.2   190  TYR190     -0.2867
     97  CB        15.8820   40.1340    8.1050 C.3   190  TYR190      0.0534
     98  CG        16.3410   41.0770    9.1820 C.ar  190  TYR190     -0.0201
     99  CD1       17.5440   40.8560    9.8470 C.ar  190  TYR190     -0.0009
    100  CD2       15.5860   42.1700    9.5380 C.ar  190  TYR190     -0.0009
    101  CE1       17.9660   41.6940   10.8610 C.ar  190  TYR190      0.0417
    102  CE2       16.0040   43.0280   10.5520 C.ar  190  TYR190      0.0417
    103  CZ        17.1950   42.7850   11.2130 C.ar  190  TYR190      0.1957
    104  OH        17.6210   43.6270   12.2330 O.3   190  TYR190     -0.2866
@<TRIPOS>BOND
     1    96    95    2
     2    95    94    1
     3    97    94    1
     4    97    98    1
     5    94    93    1
     6    98   100   ar
     7    98    99   ar
     8   100   102   ar
     9    99   101   ar
    10   102   103   ar
    11   101   103   ar
    12   103   104    1
    13    82    81    2
    14    81    80    1
    15    23    21   ar
    16    59    57   ar
    17    59    58   ar
    18    57    55   ar
    19    58    56   ar
    20    80    79    1
    21    80    83    1
    22    21    20    1
    23    21    22   ar
    24    55    54   ar
    25    83    84    1
    26    85    84   ar
    27    85    87   ar
    28    20    17    1
    29    56    54   ar
    30    84    86   ar
    31    54    53    1
    32    49    50    1
    33    87    88   ar
    34    16    17    1
    35    17    18    1
    36    50    53    1
    37    50    51    1
    38    71    70    2
    39    86    88   ar
    40    86    89   ar
    41    88    90   ar
    42    12    11    2
    43    70    69    1
    44    18    24   am
    45    18    19    2
    46    14    13    1
    47    89    91   ar
    48    24    25    1
    49    11    10    1
    50    51    52    2
    51    27    26    2
    52    90    92   ar
    53    13    10    1
    54    13    15    1
    55    91    92   ar
    56    69    68    1
    57    69    72    1
    58    77    75   ar
    59    77    78   ar
    60    75    73   ar
    61    10     9    1
    62    26    25    1
    63    26    33   am
    64    25    28    1
    65    78    76   ar
    66    38    40    1
    67    38    37    1
    68    73    72    1
    69    73    74   ar
    70    28    29    1
    71    29    30    1
    72    33    34    1
    73    34    37    1
    74    34    35    1
    75    76    74   ar
    76    30    31   ar
    77    30    32   ar
    78    37    39    1
    79    35    36    2
    80    63    62    2
    81    62    61    1
    82    61    64    1
    83    61    60    1
    84    64    65    1
    85    48    46    1
    86    65    66   ar
    87    65    67   ar
    88    46    45    1
    89     8     6    1
    90    47    45    1
    91     7     6    1
    92    45    42    1
    93     6     5    1
    94    41    42    1
    95    42    43    1
    96     5     2    1
    97    43    44    2
    98     1     2    1
    99     2     3    1
   100     3     4    2
