@<TRIPOS>MOLECULE
tmp/5bp9A01.pdb
 98 97 0 0 0
SMALL
GASTEIGER

@<TRIPOS>ATOM
      1  N         28.2610   42.0070    9.2560 N.3    34  GLN34      -0.1231
      2  CA        27.7450   42.5050    7.9630 C.3    34  GLN34       0.1698
      3  C         27.5850   44.0330    7.8920 C.2    34  GLN34       0.2592
      4  O         27.5970   44.6090    6.8120 O.2    34  GLN34      -0.2718
      5  CB        26.3780   41.8800    7.6540 C.3    34  GLN34       0.0381
      6  CG        26.3720   40.3610    7.4610 C.3    34  GLN34       0.0905
      7  CD        26.1280   39.5520    8.7510 C.2    34  GLN34       0.2608
      8  OE1       25.6810   40.0710    9.7870 O.2    34  GLN34      -0.2717
      9  NE2       26.4180   38.2700    8.6800 N.am   34  GLN34      -0.0878
     10  N         27.3960   44.6730    9.0440 N.am   35  PHE35      -0.1962
     11  CA        27.0620   46.1010    9.1210 C.3    35  PHE35       0.1771
     12  C         28.0150   46.8390   10.0610 C.2    35  PHE35       0.2619
     13  O         28.5780   46.2340   10.9700 O.2    35  PHE35      -0.2715
     14  CB        25.6220   46.2530    9.6150 C.3    35  PHE35       0.0574
     15  CG        24.6100   45.6420    8.7040 C.ar   35  PHE35      -0.0200
     16  CD1       24.3640   46.1980    7.4490 C.ar   35  PHE35      -0.0042
     17  CD2       23.9230   44.4840    9.0730 C.ar   35  PHE35      -0.0042
     18  CE1       23.4340   45.6210    6.5820 C.ar   35  PHE35      -0.0003
     19  CE2       22.9900   43.9090    8.2140 C.ar   35  PHE35      -0.0003
     20  CZ        22.7500   44.4740    6.9640 C.ar   35  PHE35      -0.0000
     21  N         28.2000   48.1400    9.8280 N.am   36  ASP36      -0.1971
     22  CA        29.0500   48.9630   10.6980 C.3    36  ASP36       0.1709
     23  C         28.3710   49.1470   12.0510 C.2    36  ASP36       0.2293
     24  O         27.1470   48.9930   12.1640 O.2    36  ASP36      -0.2864
     25  CB        29.3090   50.3510   10.1100 C.3    36  ASP36       0.1436
     26  CG        29.9740   50.3010    8.7670 C.2    36  ASP36       0.3671
     27  OD1       30.7860   49.3790    8.5340 O.co2  36  ASP36      -0.2456
     28  OD2       29.6720   51.1910    7.9500 O.co2  36  ASP36      -0.2456
     29  N         26.5100   50.5310   15.2090 N.3    38  ASP38      -0.1239
     30  CA        25.3750   51.4300   15.3530 C.3    38  ASP38       0.1674
     31  C         24.9150   51.4200   16.8040 C.2    38  ASP38       0.2266
     32  O         25.5620   50.8160   17.6530 O.2    38  ASP38      -0.2867
     33  CB        24.2170   50.9980   14.4360 C.3    38  ASP38       0.1410
     34  CG        23.3740   52.1870   13.9400 C.2    38  ASP38       0.3668
     35  OD1       23.2760   53.2370   14.6400 O.co2  38  ASP38      -0.2456
     36  OD2       22.7970   52.0670   12.8480 O.co2  38  ASP38      -0.2456
     37  N         15.5430   42.3730    3.3110 N.3   156  LEU156     -0.1245
     38  CA        16.7960   43.1440    3.2860 C.3   156  LEU156      0.1561
     39  C         17.5430   43.1170    1.9670 C.2   156  LEU156      0.2260
     40  O         18.6520   43.6190    1.9130 O.2   156  LEU156     -0.2867
     41  CB        17.7670   42.6720    4.3960 C.3   156  LEU156      0.0270
     42  CG        17.2640   42.8060    5.8390 C.3   156  LEU156      0.0019
     43  CD1       18.4430   42.5500    6.7750 C.3   156  LEU156      0.0001
     44  CD2       16.5910   44.1550    6.1170 C.3   156  LEU156      0.0001
     45  N         17.5790   44.8450   -0.6700 N.3   158  TYR158     -0.1227
     46  CA        18.0600   46.1630   -1.1210 C.3   158  TYR158      0.1736
     47  C         19.4430   46.5440   -0.5500 C.2   158  TYR158      0.2595
     48  O         20.2070   47.2930   -1.1970 O.2   158  TYR158     -0.2718
     49  CB        16.9960   47.2460   -0.8220 C.3   158  TYR158      0.0548
     50  CG        16.9060   47.6550    0.6420 C.ar  158  TYR158     -0.0200
     51  CD1       16.1700   46.9100    1.5590 C.ar  158  TYR158     -0.0009
     52  CD2       17.5710   48.7870    1.1080 C.ar  158  TYR158     -0.0009
     53  CE1       16.0980   47.2810    2.8990 C.ar  158  TYR158      0.0417
     54  CE2       17.5090   49.1590    2.4400 C.ar  158  TYR158      0.0417
     55  CZ        16.7710   48.4040    3.3290 C.ar  158  TYR158      0.1957
     56  OH        16.7100   48.7920    4.6450 O.3   158  TYR158     -0.2866
     57  N         19.7560   46.0600    0.6600 N.am  159  LEU159     -0.1966
     58  CA        21.0610   46.3250    1.3000 C.3   159  LEU159      0.1728
     59  C         22.2400   45.5720    0.6700 C.2   159  LEU159      0.2616
     60  O         23.3930   45.9970    0.7910 O.2   159  LEU159     -0.2715
     61  CB        20.9970   45.9920    2.7950 C.3   159  LEU159      0.0311
     62  CG        20.0350   46.8630    3.6130 C.3   159  LEU159      0.0022
     63  CD1       19.9630   46.3080    5.0170 C.3   159  LEU159      0.0001
     64  CD2       20.4730   48.3310    3.6410 C.3   159  LEU159      0.0001
     65  N         21.9450   44.4700   -0.0040 N.am  160  PHE160     -0.1974
     66  CA        22.9430   43.5900   -0.5730 C.3   160  PHE160      0.1639
     67  C         23.1410   43.7470   -2.0610 C.2   160  PHE160      0.2290
     68  O         23.8140   42.9230   -2.6830 O.2   160  PHE160     -0.2864
     69  CB        22.5980   42.1510   -0.1930 C.3   160  PHE160      0.0560
     70  CG        22.7560   41.9070    1.2720 C.ar  160  PHE160     -0.0200
     71  CD1       24.0080   41.6460    1.8050 C.ar  160  PHE160     -0.0042
     72  CD2       21.6830   42.0160    2.1190 C.ar  160  PHE160     -0.0042
     73  CE1       24.1700   41.4590    3.1630 C.ar  160  PHE160     -0.0003
     74  CE2       21.8280   41.8300    3.4840 C.ar  160  PHE160     -0.0003
     75  CZ        23.0710   41.5490    4.0080 C.ar  160  PHE160     -0.0000
     76  N         24.5700   39.6950   15.0300 N.3   175  PHE175     -0.1241
     77  CA        24.7560   40.8860   15.8430 C.3   175  PHE175      0.1605
     78  C         25.4390   40.5350   17.1680 C.2   175  PHE175      0.2264
     79  O         25.4780   39.3950   17.5810 O.2   175  PHE175     -0.2867
     80  CB        23.4080   41.5370   16.1460 C.3   175  PHE175      0.0534
     81  CG        22.7360   42.1720   14.9620 C.ar  175  PHE175     -0.0203
     82  CD1       23.2810   43.2990   14.3640 C.ar  175  PHE175     -0.0042
     83  CD2       21.5200   41.7210   14.5140 C.ar  175  PHE175     -0.0042
     84  CE1       22.6510   43.9370   13.3290 C.ar  175  PHE175     -0.0003
     85  CE2       20.8820   42.3520   13.4690 C.ar  175  PHE175     -0.0003
     86  CZ        21.4450   43.4540   12.8700 C.ar  175  PHE175     -0.0000
     87  N         16.2650   38.0440    9.3890 N.3   190  TYR190     -0.1241
     88  CA        15.2700   38.8310    8.6460 C.3   190  TYR190      0.1605
     89  C         14.8080   37.9620    7.4910 C.2   190  TYR190      0.2264
     90  O         15.6020   37.2320    6.9280 O.2   190  TYR190     -0.2867
     91  CB        15.8820   40.1340    8.1050 C.3   190  TYR190      0.0534
     92  CG        16.3410   41.0770    9.1820 C.ar  190  TYR190     -0.0201
     93  CD1       17.5440   40.8560    9.8470 C.ar  190  TYR190     -0.0009
     94  CD2       15.5860   42.1700    9.5380 C.ar  190  TYR190     -0.0009
     95  CE1       17.9660   41.6940   10.8610 C.ar  190  TYR190      0.0417
     96  CE2       16.0040   43.0280   10.5520 C.ar  190  TYR190      0.0417
     97  CZ        17.1950   42.7850   11.2130 C.ar  190  TYR190      0.1957
     98  OH        17.6210   43.6270   12.2330 O.3   190  TYR190     -0.2866
@<TRIPOS>BOND
     1    68    67    2
     2    67    66    1
     3    48    47    2
     4    46    49    1
     5    46    45    1
     6    46    47    1
     7    49    50    1
     8    66    69    1
     9    66    65    1
    10    47    57   am
    11    69    70    1
    12    65    59   am
    13    50    52   ar
    14    50    51   ar
    15    57    58    1
    16    59    60    2
    17    59    58    1
    18    52    54   ar
    19    70    71   ar
    20    70    72   ar
    21    58    61    1
    22    51    53   ar
    23    71    73   ar
    24    40    39    2
    25    39    38    1
    26    72    74   ar
    27    54    55   ar
    28    61    62    1
    29    53    55   ar
    30    73    75   ar
    31    38    37    1
    32    38    41    1
    33    55    56    1
    34    74    75   ar
    35    62    64    1
    36    62    63    1
    37    41    42    1
    38    42    44    1
    39    42    43    1
    40    18    20   ar
    41    18    16   ar
    42     4     3    2
    43    90    89    2
    44    20    19   ar
    45    16    15   ar
    46     6     5    1
    47     6     7    1
    48    89    88    1
    49     5     2    1
    50     3     2    1
    51     3    10   am
    52    28    26   ar
    53     2     1    1
    54    91    88    1
    55    91    92    1
    56    19    17   ar
    57    27    26   ar
    58    88    87    1
    59     9     7   am
    60    15    17   ar
    61    15    14    1
    62     7     8    2
    63    26    25    1
    64    10    11    1
    65    11    14    1
    66    11    12    1
    67    92    94   ar
    68    92    93   ar
    69    94    96   ar
    70    21    12   am
    71    21    22    1
    72    93    95   ar
    73    12    13    2
    74    25    22    1
    75    96    97   ar
    76    22    23    1
    77    95    97   ar
    78    97    98    1
    79    23    24    2
    80    36    34   ar
    81    86    84   ar
    82    86    85   ar
    83    84    82   ar
    84    85    83   ar
    85    34    33    1
    86    34    35   ar
    87    82    81   ar
    88    33    30    1
    89    83    81   ar
    90    81    80    1
    91    76    77    1
    92    29    30    1
    93    30    31    1
    94    77    80    1
    95    77    78    1
    96    31    32    2
    97    78    79    2
