@<TRIPOS>MOLECULE
tmp/5bpaB00.pdb
 220 220 0 0 0
SMALL
GASTEIGER

@<TRIPOS>ATOM
      1  N         34.7280    5.7390   65.2730 N.3    37  LYS37      -0.1245
      2  CA        35.0110    4.6870   64.2930 C.3    37  LYS37       0.1561
      3  C         33.9200    4.5560   63.2330 C.2    37  LYS37       0.2260
      4  O         34.2120    4.3470   62.0530 O.2    37  LYS37      -0.2867
      5  CB        35.2710    3.3360   64.9890 C.3    37  LYS37       0.0271
      6  CG        35.6950    2.2450   64.0080 C.3    37  LYS37       0.0035
      7  CD        36.2720    1.0090   64.6910 C.3    37  LYS37       0.0206
      8  CE        36.8220    0.0230   63.6430 C.3    37  LYS37       0.1093
      9  NZ        37.5960   -1.1000   64.2480 N.3    37  LYS37      -0.1314
     10  N         15.9070   -1.0470   66.5950 N.3    82  LEU82      -0.1231
     11  CA        17.1460   -0.8510   67.3490 C.3    82  LEU82       0.1693
     12  C         17.6010    0.6060   67.3430 C.2    82  LEU82       0.2591
     13  O         18.2200    1.0850   68.2960 O.2    82  LEU82      -0.2718
     14  CB        18.2820   -1.6900   66.7610 C.3    82  LEU82       0.0284
     15  CG        18.1140   -3.1990   66.6320 C.3    82  LEU82       0.0019
     16  CD1       19.4350   -3.8090   66.1720 C.3    82  LEU82       0.0001
     17  CD2       17.6910   -3.7820   67.9630 C.3    82  LEU82       0.0001
     18  N         17.3210    1.2810   66.2370 N.am   83  ALA83      -0.1980
     19  CA        17.8260    2.6300   66.0160 C.3    83  ALA83       0.1597
     20  C         17.2030    3.1910   64.7490 C.2    83  ALA83       0.2287
     21  O         16.6840    2.4460   63.9180 O.2    83  ALA83      -0.2864
     22  CB        19.3520    2.6020   65.8990 C.3    83  ALA83       0.0319
     23  N         30.5270   -2.9170   73.3090 N.3   106  SER106     -0.1217
     24  CA        31.7340   -2.7080   72.5310 C.3   106  SER106      0.1889
     25  C         32.1980   -4.0400   71.9400 C.2   106  SER106      0.2288
     26  O         33.0820   -4.0690   71.0920 O.2   106  SER106     -0.2866
     27  CB        32.8260   -2.0850   73.4000 C.3   106  SER106      0.2089
     28  OG        32.9580   -2.7900   74.6200 O.3   106  SER106     -0.2183
     29  N         26.4770   -4.5490   68.8440 N.3   112  ASN112     -0.1240
     30  CA        27.6980   -3.7740   68.7700 C.3   112  ASN112      0.1653
     31  C         27.3430   -2.3510   68.3230 C.2   112  ASN112      0.2266
     32  O         26.7930   -2.1520   67.2440 O.2   112  ASN112     -0.2867
     33  CB        28.6830   -4.4380   67.8040 C.3   112  ASN112      0.1155
     34  CG        30.0140   -3.7160   67.7410 C.2   112  ASN112      0.2627
     35  OD1       30.1680   -2.7560   66.9910 O.2   112  ASN112     -0.2716
     36  ND2       30.9780   -4.1710   68.5300 N.am  112  ASN112     -0.0877
     37  N         29.2040    0.2960   67.5490 N.3   114  PHE114     -0.1227
     38  CA        29.9530    0.7270   66.3750 C.3   114  PHE114      0.1736
     39  C         29.2570    0.2800   65.0920 C.2   114  PHE114      0.2595
     40  O         29.0290    1.0750   64.1890 O.2   114  PHE114     -0.2718
     41  CB        31.3870    0.1940   66.4190 C.3   114  PHE114      0.0547
     42  CG        32.0050    0.0640   65.0630 C.ar  114  PHE114     -0.0202
     43  CD1       32.2590    1.1930   64.2990 C.ar  114  PHE114     -0.0042
     44  CD2       32.3040   -1.1860   64.5340 C.ar  114  PHE114     -0.0042
     45  CE1       32.8040    1.0840   63.0280 C.ar  114  PHE114     -0.0003
     46  CE2       32.8550   -1.3040   63.2650 C.ar  114  PHE114     -0.0003
     47  CZ        33.1060   -0.1630   62.5110 C.ar  114  PHE114     -0.0000
     48  N         28.9040   -1.0000   65.0000 N.am  115  LEU115     -0.1966
     49  CA        28.2840   -1.5030   63.7820 C.3   115  LEU115      0.1728
     50  C         26.9350   -0.8670   63.4920 C.2   115  LEU115      0.2616
     51  O         26.6160   -0.5330   62.3500 O.2   115  LEU115     -0.2715
     52  CB        28.0970   -3.0210   63.8690 C.3   115  LEU115      0.0311
     53  CG        29.3790   -3.8480   63.8160 C.3   115  LEU115      0.0022
     54  CD1       29.0390   -5.3320   64.0530 C.3   115  LEU115      0.0001
     55  CD2       30.0720   -3.6420   62.4690 C.3   115  LEU115      0.0001
     56  N         26.1020   -0.7430   64.5160 N.am  116  VAL116     -0.1977
     57  CA        24.7810   -0.2090   64.2750 C.3   116  VAL116      0.1596
     58  C         24.8820    1.2880   63.9250 C.2   116  VAL116      0.2287
     59  O         24.1570    1.7760   63.0730 O.2   116  VAL116     -0.2864
     60  CB        23.8470   -0.4560   65.4720 C.3   116  VAL116      0.0276
     61  CG1       22.5230    0.2630   65.2700 C.3   116  VAL116      0.0022
     62  CG2       23.6120   -1.9650   65.6310 C.3   116  VAL116      0.0022
     63  N         25.9700    1.7190   60.3280 N.3   119  HIS119     -0.1226
     64  CA        24.7980    1.5300   59.4910 C.3   119  HIS119      0.1752
     65  C         23.8770    2.7540   59.5180 C.2   119  HIS119      0.2595
     66  O         23.4130    3.2210   58.4710 O.2   119  HIS119     -0.2718
     67  CB        24.0240    0.2800   59.9390 C.3   119  HIS119      0.0759
     68  CG        22.7280    0.0880   59.2170 C.ar  119  HIS119      0.0818
     69  ND1       22.5890   -0.7690   58.1440 N.ar  119  HIS119     -0.2268
     70  CD2       21.5100    0.6420   59.4160 C.ar  119  HIS119      0.1154
     71  CE1       21.3420   -0.7280   57.7120 C.ar  119  HIS119      0.1986
     72  NE2       20.6690    0.1220   58.4660 N.ar  119  HIS119     -0.2212
     73  N         23.6150    3.2770   60.7130 N.am  120  GLU120     -0.1979
     74  CA        22.7050    4.4260   60.8270 C.3   120  GLU120      0.1602
     75  C         23.3030    5.6770   60.1760 C.2   120  GLU120      0.2287
     76  O         22.6000    6.4130   59.4850 O.2   120  GLU120     -0.2864
     77  CB        22.3290    4.7110   62.2870 C.3   120  GLU120      0.0415
     78  CG        21.5180    3.5900   62.9520 C.3   120  GLU120      0.1163
     79  CD        20.2420    3.2570   62.2000 C.2   120  GLU120      0.3649
     80  OE1       19.6340    4.1740   61.6080 O.co2 120  GLU120     -0.2457
     81  OE2       19.8430    2.0660   62.1950 O.co2 120  GLU120     -0.2457
     82  N         22.9340   -8.7280   50.2800 N.3   133  PRO133     -0.2102
     83  CA        22.9710   -9.3390   51.6120 C.3   133  PRO133      0.1504
     84  C         24.3080   -9.1290   52.3070 C.2   133  PRO133      0.2576
     85  O         24.4020   -9.2910   53.5250 O.2   133  PRO133     -0.2718
     86  CB        22.7690  -10.8370   51.3220 C.3   133  PRO133      0.0282
     87  CG        22.1820  -10.9010   49.9620 C.3   133  PRO133      0.0208
     88  CD        22.7410   -9.7290   49.2170 C.3   133  PRO133      0.0893
     89  N         25.3350   -8.7840   51.5400 N.am  134  GLY134     -0.1943
     90  CA        26.6540   -8.5720   52.1060 C.3   134  GLY134      0.2014
     91  C         26.9510   -7.1280   52.4920 C.2   134  GLY134      0.2639
     92  O         27.9840   -6.8470   53.0930 O.2   134  GLY134     -0.2714
     93  N         26.0410   -6.2200   52.1610 N.am  135  ALA135     -0.1963
     94  CA        26.2640   -4.7910   52.3800 C.3   135  ALA135      0.1728
     95  C         26.0480   -4.3770   53.8370 C.2   135  ALA135      0.2616
     96  O         25.2610   -4.9940   54.5570 O.2   135  ALA135     -0.2715
     97  CB        25.3640   -3.9780   51.4610 C.3   135  ALA135      0.0334
     98  N         26.7500   -3.3280   54.2660 N.am  136  LEU136     -0.1977
     99  CA        26.5230   -2.7450   55.5860 C.3   136  LEU136      0.1596
    100  C         25.1010   -2.1810   55.6690 C.2   136  LEU136      0.2287
    101  O         24.4810   -2.1670   56.7440 O.2   136  LEU136     -0.2864
    102  CB        27.5560   -1.6410   55.8720 C.3   136  LEU136      0.0297
    103  CG        27.3260   -0.7910   57.1310 C.3   136  LEU136      0.0022
    104  CD1       27.2680   -1.6720   58.3710 C.3   136  LEU136      0.0001
    105  CD2       28.4120    0.2820   57.2920 C.3   136  LEU136      0.0001
    106  N         22.4980   -3.4370   54.2840 N.3   138  PHE138     -0.1228
    107  CA        21.5110   -4.5090   54.3530 C.3   138  PHE138      0.1721
    108  C         20.8910   -4.4920   55.7560 C.2   138  PHE138      0.2437
    109  O         21.6090   -4.4580   56.7520 O.2   138  PHE138     -0.2733
    110  CB        22.1770   -5.8590   54.0730 C.3   138  PHE138      0.0547
    111  CG        21.2070   -6.9750   53.8390 C.ar  138  PHE138     -0.0202
    112  CD1       20.4610   -7.0260   52.6730 C.ar  138  PHE138     -0.0042
    113  CD2       21.0530   -7.9800   54.7780 C.ar  138  PHE138     -0.0042
    114  CE1       19.5640   -8.0620   52.4520 C.ar  138  PHE138     -0.0003
    115  CE2       20.1630   -9.0200   54.5630 C.ar  138  PHE138     -0.0003
    116  CZ        19.4170   -9.0560   53.4000 C.ar  138  PHE138     -0.0000
    117  N         19.5550   -4.5080   55.8310 N.am  139  PRO139     -0.2718
    118  CA        18.8200   -4.2340   57.0740 C.3   139  PRO139      0.1535
    119  C         18.7920   -5.3780   58.0900 C.2   139  PRO139      0.2598
    120  O         17.7930   -5.5210   58.7880 O.2   139  PRO139     -0.2715
    121  CB        17.3840   -3.9730   56.5880 C.3   139  PRO139      0.0310
    122  CG        17.4360   -3.9470   55.0980 C.3   139  PRO139      0.0237
    123  CD        18.6490   -4.6990   54.6890 C.3   139  PRO139      0.0939
    124  N         19.8500   -6.1730   58.1830 N.am  140  ILE140     -0.1964
    125  CA        19.9060   -7.2060   59.2040 C.3   140  ILE140      0.1727
    126  C         21.2180   -7.1220   59.9550 C.2   140  ILE140      0.2616
    127  O         22.2890   -7.1250   59.3490 O.2   140  ILE140     -0.2715
    128  CB        19.7470   -8.6190   58.6000 C.3   140  ILE140      0.0290
    129  CG1       18.4010   -8.7380   57.8850 C.3   140  ILE140      0.0022
    130  CG2       19.9050   -9.6810   59.6830 C.3   140  ILE140      0.0023
    131  CD1       18.1050  -10.1290   57.3640 C.3   140  ILE140      0.0001
    132  N         21.1410   -7.0260   61.2770 N.am  141  TYR141     -0.1960
    133  CA        22.3460   -6.9420   62.0830 C.3   141  TYR141      0.1771
    134  C         23.1370   -8.2480   62.0040 C.2   141  TYR141      0.2620
    135  O         22.5620   -9.3300   62.0850 O.2   141  TYR141     -0.2715
    136  CB        21.9960   -6.6170   63.5420 C.3   141  TYR141      0.0574
    137  CG        23.1650   -6.6870   64.5000 C.ar  141  TYR141     -0.0198
    138  CD1       24.0230   -5.6100   64.6650 C.ar  141  TYR141     -0.0009
    139  CD2       23.4050   -7.8230   65.2560 C.ar  141  TYR141     -0.0009
    140  CE1       25.0750   -5.6660   65.5380 C.ar  141  TYR141      0.0417
    141  CE2       24.4650   -7.8920   66.1290 C.ar  141  TYR141      0.0417
    142  CZ        25.3010   -6.8090   66.2680 C.ar  141  TYR141      0.1957
    143  OH        26.3560   -6.8600   67.1360 O.3   141  TYR141     -0.2866
    144  N         24.4480   -8.1350   61.8230 N.am  142  THR142     -0.1937
    145  CA        25.3480   -9.2790   61.9190 C.3   142  THR142      0.2028
    146  C         26.6040   -8.8770   62.6610 C.2   142  THR142      0.2642
    147  O         26.9160   -7.6970   62.7870 O.2   142  THR142     -0.2714
    148  CB        25.8030   -9.8050   60.5400 C.3   142  THR142      0.1808
    149  OG1       24.7650   -9.6210   59.5760 O.3   142  THR142     -0.2208
    150  CG2       26.1650  -11.2900   60.6350 C.3   142  THR142      0.0379
    151  N         27.3340   -9.8750   63.1410 N.am  143  TYR143     -0.1959
    152  CA        28.6010   -9.6630   63.8110 C.3   143  TYR143      0.1771
    153  C         29.4850  -10.8250   63.4080 C.2   143  TYR143      0.2620
    154  O         29.1560  -11.9710   63.7000 O.2   143  TYR143     -0.2715
    155  CB        28.3860   -9.6700   65.3200 C.3   143  TYR143      0.0574
    156  CG        29.6210   -9.4160   66.1450 C.ar  143  TYR143     -0.0198
    157  CD1       30.0080   -8.1220   66.4700 C.ar  143  TYR143     -0.0009
    158  CD2       30.3820  -10.4640   66.6370 C.ar  143  TYR143     -0.0009
    159  CE1       31.1240   -7.8830   67.2420 C.ar  143  TYR143      0.0417
    160  CE2       31.5020  -10.2310   67.4110 C.ar  143  TYR143      0.0417
    161  CZ        31.8690   -8.9370   67.7080 C.ar  143  TYR143      0.1957
    162  OH        32.9830   -8.7040   68.4810 O.3   143  TYR143     -0.2866
    163  N         30.5920  -10.5460   62.7290 N.am  144  THR144     -0.1951
    164  CA        31.4090  -11.6240   62.1560 C.3   144  THR144      0.1897
    165  C         32.4600  -12.1710   63.1070 C.2   144  THR144      0.2313
    166  O         33.0780  -13.1960   62.8230 O.2   144  THR144     -0.2863
    167  CB        32.1570  -11.1430   60.9080 C.3   144  THR144      0.1794
    168  OG1       33.0540  -10.1000   61.2960 O.3   144  THR144     -0.2208
    169  CG2       31.1860  -10.6310   59.8730 C.3   144  THR144      0.0378
    170  N         35.2800  -10.8620   63.5900 N.3   146  LYS146     -0.1231
    171  CA        36.5960  -10.4400   63.1050 C.3   146  LYS146      0.1693
    172  C         36.9880   -9.1150   63.7470 C.2   146  LYS146      0.2593
    173  O         36.1190   -8.3350   64.1180 O.2   146  LYS146     -0.2718
    174  CB        36.5880  -10.3260   61.5790 C.3   146  LYS146      0.0285
    175  CG        36.3910  -11.6670   60.8770 C.3   146  LYS146      0.0035
    176  CD        37.2500  -12.7430   61.5320 C.3   146  LYS146      0.0206
    177  CE        36.8010  -14.1480   61.1420 C.3   146  LYS146      0.1093
    178  NZ        36.8370  -14.3600   59.6680 N.3   146  LYS146     -0.1314
    179  N         38.2890   -8.8660   63.8770 N.am  147  SER147     -0.1938
    180  CA        38.7760   -7.6780   64.5770 C.3   147  SER147      0.2055
    181  C         38.8400   -6.4410   63.6880 C.2   147  SER147      0.2643
    182  O         38.8440   -5.3190   64.1830 O.2   147  SER147     -0.2714
    183  CB        40.1620   -7.9290   65.1820 C.3   147  SER147      0.2130
    184  OG        40.0700   -8.6090   66.4200 O.3   147  SER147     -0.2179
    185  N         38.9000   -6.6520   62.3810 N.am  148  HIS148     -0.1959
    186  CA        39.0460   -5.5470   61.4470 C.3   148  HIS148      0.1787
    187  C         37.7810   -5.3220   60.6510 C.2   148  HIS148      0.2620
    188  O         37.2230   -6.2620   60.0940 O.2   148  HIS148     -0.2715
    189  CB        40.2250   -5.8150   60.5140 C.3   148  HIS148      0.0785
    190  CG        41.5340   -5.8810   61.2300 C.ar  148  HIS148      0.0821
    191  ND1       42.0310   -7.0490   61.7670 N.ar  148  HIS148     -0.2267
    192  CD2       42.4350   -4.9160   61.5280 C.ar  148  HIS148      0.1154
    193  CE1       43.1870   -6.8010   62.3560 C.ar  148  HIS148      0.1986
    194  NE2       43.4550   -5.5140   62.2230 N.ar  148  HIS148     -0.2212
    195  N         37.3170   -4.0760   60.5980 N.am  149  PHE149     -0.1960
    196  CA        36.1320   -3.7930   59.8100 C.3   149  PHE149      0.1771
    197  C         36.4960   -3.4310   58.3800 C.2   149  PHE149      0.2619
    198  O         37.4210   -2.6530   58.1490 O.2   149  PHE149     -0.2715
    199  CB        35.3180   -2.6530   60.4290 C.3   149  PHE149      0.0574
    200  CG        34.0740   -2.3440   59.6700 C.ar  149  PHE149     -0.0200
    201  CD1       32.8810   -2.9930   59.9690 C.ar  149  PHE149     -0.0042
    202  CD2       34.0910   -1.4220   58.6340 C.ar  149  PHE149     -0.0042
    203  CE1       31.7270   -2.7240   59.2410 C.ar  149  PHE149     -0.0003
    204  CE2       32.9510   -1.1540   57.9060 C.ar  149  PHE149     -0.0003
    205  CZ        31.7610   -1.7980   58.2090 C.ar  149  PHE149     -0.0000
    206  N         35.7580   -3.9830   57.4230 N.am  150  MET150     -0.1977
    207  CA        35.9270   -3.6100   56.0210 C.3   150  MET150      0.1605
    208  C         34.6000   -3.2380   55.3830 C.2   150  MET150      0.2287
    209  O         33.6850   -4.0540   55.3140 O.2   150  MET150     -0.2864
    210  CB        36.5810   -4.7510   55.2390 C.3   150  MET150      0.0413
    211  CG        37.8670   -5.2420   55.8770 C.3   150  MET150      0.0598
    212  SD        38.9050   -6.1960   54.7570 S.3   150  MET150     -0.1393
    213  CE        40.3180   -6.4970   55.8150 C.3   150  MET150      0.0692
    214  N         31.9040   -3.0290   52.8730 N.3   152  PRO152     -0.2116
    215  CA        31.6220   -3.8310   51.6760 C.3   152  PRO152      0.1372
    216  C         31.5470   -2.9770   50.4190 C.2   152  PRO152      0.2244
    217  O         31.1650   -1.8070   50.4740 O.2   152  PRO152     -0.2868
    218  CB        30.2580   -4.4510   51.9830 C.3   152  PRO152      0.0268
    219  CG        30.2300   -4.5450   53.4880 C.3   152  PRO152      0.0207
    220  CD        30.9280   -3.2820   53.9490 C.3   152  PRO152      0.0892
@<TRIPOS>BOND
     1    88    87    1
     2    88    82    1
     3    87    86    1
     4    82    83    1
     5   216   217    2
     6   216   215    1
     7    86    83    1
     8    97    94    1
     9    89    90    1
    10    89    84   am
    11    83    84    1
    12   215   218    1
    13   215   214    1
    14   218   219    1
    15    90    91    1
    16    93    94    1
    17    93    91   am
    18    84    85    2
    19    94    95    1
    20   114   112   ar
    21   114   116   ar
    22    91    92    2
    23   112   111   ar
    24   214   220    1
    25   116   115   ar
    26   219   220    1
    27    95    98   am
    28    95    96    2
    29   111   110    1
    30   111   113   ar
    31   110   107    1
    32    98    99    1
    33   106   107    1
    34   107   108    1
    35   115   113   ar
    36   123   122    1
    37   123   117    1
    38   212   213    1
    39   212   211    1
    40   122   121    1
    41   210   211    1
    42   210   207    1
    43   209   208    2
    44   208   207    1
    45    99   100    1
    46    99   102    1
    47   100   101    2
    48   108   117   am
    49   108   109    2
    50   117   118    1
    51   102   103    1
    52   207   206    1
    53   121   118    1
    54   118   119    1
    55   103   105    1
    56   103   104    1
    57   131   129    1
    58   206   197   am
    59    71    69   ar
    60    71    72   ar
    61   129   128    1
    62   204   205   ar
    63   204   202   ar
    64   119   124   am
    65   119   120    2
    66    69    68   ar
    67   198   197    2
    68   124   125    1
    69   205   203   ar
    70   197   196    1
    71    72    70   ar
    72    66    65    2
    73   128   125    1
    74   128   130    1
    75   202   200   ar
    76   125   126    1
    77    68    70   ar
    78    68    67    1
    79   203   201   ar
    80   127   126    2
    81    76    75    2
    82    64    65    1
    83    64    67    1
    84    64    63    1
    85    65    73   am
    86   149   148    1
    87   178   177    1
    88   200   201   ar
    89   200   199    1
    90   196   199    1
    91   196   195    1
    92   169   167    1
    93   126   132   am
    94   188   187    2
    95    75    74    1
    96   189   190    1
    97   189   186    1
    98   148   150    1
    99   148   145    1
   100   195   187   am
   101   187   186    1
   102    73    74    1
   103    74    77    1
   104   175   176    1
   105   175   174    1
   106   167   168    1
   107   167   164    1
   108   177   176    1
   109   190   192   ar
   110   190   191   ar
   111   132   133    1
   112   186   185    1
   113   192   194   ar
   114   174   171    1
   115    80    79   ar
   116   191   193   ar
   117   144   145    1
   118   144   134   am
   119   145   146    1
   120   134   133    1
   121   134   135    2
   122     4     3    2
   123   133   136    1
   124   164   163    1
   125   164   165    1
   126    81    79   ar
   127    79    78    1
   128   194   193   ar
   129    77    78    1
   130    51    50    2
   131   185   181   am
   132    55    53    1
   133    47    45   ar
   134    47    46   ar
   135   146   147    2
   136   146   151   am
   137   163   153   am
   138   166   165    2
   139    45    43   ar
   140    59    58    2
   141   171   170    1
   142   171   172    1
   143   151   152    1
   144     3     2    1
   145    46    44   ar
   146   153   154    2
   147   153   152    1
   148    50    49    1
   149    50    56   am
   150   136   137    1
   151     8     9    1
   152     8     7    1
   153   181   182    2
   154   181   180    1
   155   172   179   am
   156   172   173    2
   157    49    52    1
   158    49    48    1
   159   152   155    1
   160    53    52    1
   161    53    54    1
   162   179   180    1
   163    21    20    2
   164    58    57    1
   165     6     7    1
   166     6     5    1
   167    40    39    2
   168    57    56    1
   169    57    60    1
   170     2     5    1
   171     2     1    1
   172    43    42   ar
   173   137   138   ar
   174   137   139   ar
   175    44    42   ar
   176   180   183    1
   177   138   140   ar
   178    20    19    1
   179    48    39   am
   180    42    41    1
   181    39    38    1
   182   183   184    1
   183   139   141   ar
   184    61    60    1
   185   155   156    1
   186    60    62    1
   187   140   142   ar
   188    22    19    1
   189    19    18    1
   190   141   142   ar
   191   156   157   ar
   192   156   158   ar
   193    16    15    1
   194    18    12   am
   195   142   143    1
   196    38    41    1
   197    38    37    1
   198   157   159   ar
   199    10    11    1
   200    15    14    1
   201    15    17    1
   202   158   160   ar
   203    14    11    1
   204    35    34    2
   205   159   161   ar
   206    32    31    2
   207    12    11    1
   208    12    13    2
   209   160   161   ar
   210   161   162    1
   211    34    33    1
   212    34    36   am
   213    33    30    1
   214    31    30    1
   215    30    29    1
   216    26    25    2
   217    25    24    1
   218    24    23    1
   219    24    27    1
   220    27    28    1
