@<TRIPOS>MOLECULE
tmp/5bpeA00.pdb
 187 182 0 0 0
SMALL
GASTEIGER

@<TRIPOS>ATOM
      1  N         18.8400   12.0350   11.9840 N.3    24  GLU24      -0.1231
      2  CA        19.1880   10.7820   11.3320 C.3    24  GLU24       0.1699
      3  C         18.8590    9.5920   12.2260 C.2    24  GLU24       0.2592
      4  O         19.2200    9.5750   13.4000 O.2    24  GLU24      -0.2718
      5  CB        20.6670   10.7770   10.9440 C.3    24  GLU24       0.0402
      6  CG        21.0580    9.6670    9.9640 C.3    24  GLU24       0.1161
      7  CD        22.4310    9.8840    9.3450 C.2    24  GLU24       0.3649
      8  OE1       22.7320    9.2510    8.3080 O.co2  24  GLU24      -0.2457
      9  OE2       23.2040   10.6940    9.8990 O.co2  24  GLU24      -0.2457
     10  N         18.1640    8.6080   11.6560 N.am   25  PHE25      -0.1976
     11  CA        17.7240    7.4290   12.3910 C.3    25  PHE25       0.1639
     12  C         18.0520    6.1280   11.6980 C.2    25  PHE25       0.2290
     13  O         18.3150    6.0960   10.5040 O.2    25  PHE25      -0.2864
     14  CB        16.2260    7.4730   12.6110 C.3    25  PHE25       0.0560
     15  CG        15.7780    8.6440   13.4030 C.ar   25  PHE25      -0.0200
     16  CD1       15.7380    8.5810   14.7840 C.ar   25  PHE25      -0.0042
     17  CD2       15.4050    9.8160   12.7750 C.ar   25  PHE25      -0.0042
     18  CE1       15.3330    9.6710   15.5230 C.ar   25  PHE25      -0.0003
     19  CE2       15.0050   10.9000   13.5070 C.ar   25  PHE25      -0.0003
     20  CZ        14.9620   10.8260   14.8850 C.ar   25  PHE25      -0.0000
     21  N          8.7620    6.9080   16.8180 N.3    39  ARG39      -0.1231
     22  CA         7.7020    7.8690   16.5620 C.3    39  ARG39       0.1694
     23  C          8.2480    9.2810   16.4250 C.2    39  ARG39       0.2592
     24  O          7.8150   10.0430   15.5530 O.2    39  ARG39      -0.2718
     25  CB         6.6660    7.8320   17.6810 C.3    39  ARG39       0.0321
     26  CG         5.6330    8.9610   17.6250 C.3    39  ARG39       0.0489
     27  CD         5.0910    9.2810   19.0130 C.3    39  ARG39       0.2205
     28  NE         5.1810   10.7080   19.3060 N.pl3  39  ARG39      -0.0865
     29  CZ         6.2770   11.3090   19.7550 C.cat  39  ARG39       0.5346
     30  NH1        7.3780   10.6050   19.9580 N.pl3  39  ARG39       0.1354
     31  NH2        6.2750   12.6140   20.0010 N.pl3  39  ARG39       0.1354
     32  N          9.2280    9.6110   17.2670 N.am   40  HIS40      -0.1976
     33  CA         9.7530   10.9780   17.3610 C.3    40  HIS40       0.1656
     34  C         10.6090   11.3950   16.1740 C.2    40  HIS40       0.2291
     35  O         11.2130   12.4590   16.1990 O.2    40  HIS40      -0.2864
     36  CB        10.5630   11.1510   18.6470 C.3    40  HIS40       0.0771
     37  CG        11.8520   10.3770   18.6760 C.ar   40  HIS40       0.0820
     38  ND1       11.9710    9.1730   19.3210 N.ar   40  HIS40      -0.2267
     39  CD2       13.0720   10.6640   18.1610 C.ar   40  HIS40       0.1154
     40  CE1       13.2220    8.7300   19.1940 C.ar   40  HIS40       0.1986
     41  NE2       13.8980    9.6120   18.4960 N.ar   40  HIS40      -0.2212
     42  N          9.1910   11.6190   13.3090 N.3    42  LYS42      -0.1245
     43  CA         8.1630   12.3890   12.6100 C.3    42  LYS42       0.1561
     44  C          8.3770   12.5090   11.1040 C.2    42  LYS42       0.2260
     45  O          8.5150   13.6170   10.5710 O.2    42  LYS42      -0.2867
     46  CB         8.0510   13.7880   13.2350 C.3    42  LYS42       0.0271
     47  CG         7.0170   13.8690   14.3650 C.3    42  LYS42       0.0035
     48  CD         7.4830   14.7370   15.5290 C.3    42  LYS42       0.0206
     49  CE         8.8860   14.3600   16.0090 C.3    42  LYS42       0.1093
     50  NZ         9.1240   14.5680   17.4780 N.3    42  LYS42      -0.1314
     51  N          5.5820    4.8960   20.9780 N.3    71  GLU71      -0.1245
     52  CA         6.7900    5.4630   20.3700 C.3    71  GLU71       0.1567
     53  C          7.1860    4.7680   19.0680 C.2    71  GLU71       0.2260
     54  O          8.3140    4.9130   18.5880 O.2    71  GLU71      -0.2867
     55  CB         7.9530    5.4220   21.3550 C.3    71  GLU71       0.0388
     56  CG         9.0790    6.3720   21.0420 C.3    71  GLU71       0.1160
     57  CD         8.6240    7.8040   20.9200 C.2    71  GLU71       0.3649
     58  OE1        7.6890    8.1970   21.6450 O.co2  71  GLU71      -0.2457
     59  OE2        9.2070    8.5340   20.0900 O.co2  71  GLU71      -0.2457
     60  N          7.4340    4.5690   31.1450 N.3   125  LEU125     -0.1231
     61  CA         8.3820    5.6750   31.1050 C.3   125  LEU125      0.1693
     62  C          7.7040    6.9710   30.6410 C.2   125  LEU125      0.2592
     63  O          6.9200    6.9800   29.6850 O.2   125  LEU125     -0.2718
     64  CB         9.5390    5.3500   30.1670 C.3   125  LEU125      0.0284
     65  CG        10.9490    5.8600   30.4660 C.3   125  LEU125      0.0019
     66  CD1       11.7510    5.9040   29.1830 C.3   125  LEU125      0.0001
     67  CD2       10.9820    7.2070   31.1640 C.3   125  LEU125      0.0001
     68  N          8.0040    8.0610   31.3360 N.am  126  ASN126     -0.1960
     69  CA         7.6310    9.3940   30.8930 C.3   126  ASN126      0.1819
     70  C          8.7980    9.9670   30.1000 C.2   126  ASN126      0.2621
     71  O          9.7810   10.4190   30.6800 O.2   126  ASN126     -0.2715
     72  CB         7.2790   10.2840   32.0980 C.3   126  ASN126      0.1195
     73  CG         6.6130   11.6030   31.7000 C.2   126  ASN126      0.2630
     74  OD1        6.8950   12.1740   30.6440 O.2   126  ASN126     -0.2716
     75  ND2        5.7290   12.0960   32.5630 N.am  126  ASN126     -0.0877
     76  N          8.7040    9.9270   28.7770 N.am  127  LEU127     -0.1963
     77  CA         9.7800   10.4220   27.9260 C.3   127  LEU127      0.1728
     78  C          9.5400   11.8410   27.4600 C.2   127  LEU127      0.2616
     79  O          8.8230   12.0550   26.4790 O.2   127  LEU127     -0.2715
     80  CB         9.9450    9.5370   26.7030 C.3   127  LEU127      0.0311
     81  CG        10.7440    8.2600   26.8700 C.3   127  LEU127      0.0022
     82  CD1       10.0400    7.1410   26.1670 C.3   127  LEU127      0.0001
     83  CD2       12.1270    8.4360   26.3010 C.3   127  LEU127      0.0001
     84  N         10.1700   12.7990   28.1330 N.am  128  SER128     -0.1950
     85  CA         9.9940   14.2120   27.8180 C.3   128  SER128      0.1924
     86  C          8.5150   14.5670   27.6410 C.2   128  SER128      0.2314
     87  O          8.0870   15.0260   26.5760 O.2   128  SER128     -0.2863
     88  CB        10.8040   14.5930   26.5660 C.3   128  SER128      0.2116
     89  OG        10.7550   13.5980   25.5570 O.3   128  SER128     -0.2180
     90  N          5.8870   12.9380   27.0210 N.3   130  LYS130     -0.1245
     91  CA         5.1970   11.8120   26.4020 C.3   130  LYS130      0.1561
     92  C          5.3190   10.5360   27.2400 C.2   130  LYS130      0.2260
     93  O          6.3930    9.9390   27.3190 O.2   130  LYS130     -0.2867
     94  CB         5.7470   11.5750   24.9930 C.3   130  LYS130      0.0271
     95  CG         5.1960   12.5090   23.9210 C.3   130  LYS130      0.0035
     96  CD         3.9640   11.9010   23.2420 C.3   130  LYS130      0.0206
     97  CE         3.4780   12.7330   22.0430 C.3   130  LYS130      0.1093
     98  NZ         2.7200   13.9720   22.4210 N.3   130  LYS130     -0.1314
     99  N         23.7660    5.2320   25.8620 N.3   142  THR142     -0.1203
    100  CA        23.4660    5.5330   24.4610 C.3   142  THR142      0.1994
    101  C         23.5100    7.0250   24.1660 C.2   142  THR142      0.2618
    102  O         23.6200    7.8510   25.0700 O.2   142  THR142     -0.2717
    103  CB        22.0790    4.9980   24.0370 C.3   142  THR142      0.1784
    104  OG1       21.1290    5.2780   25.0680 O.3   142  THR142     -0.2211
    105  CG2       22.1270    3.4940   23.7660 C.3   142  THR142      0.0376
    106  N         23.1000    7.5540   23.0540 N.am  143  LYS143     -0.1965
    107  CA        23.0330    8.9560   22.6810 C.3   143  LYS143      0.1728
    108  C         22.2250    9.1540   21.4040 C.2   143  LYS143      0.2616
    109  O         21.6730    8.2120   20.8270 O.2   143  LYS143     -0.2715
    110  CB        24.4470    9.5270   22.4940 C.3   143  LYS143      0.0311
    111  CG        25.2700    9.6420   23.7770 C.3   143  LYS143      0.0038
    112  CD        26.7500    9.8440   23.4790 C.3   143  LYS143      0.0206
    113  CE        27.3860    8.6010   22.8530 C.3   143  LYS143      0.1093
    114  NZ        27.4960    7.4580   23.8050 N.3   143  LYS143     -0.1314
    115  N         22.1210   10.4040   20.9960 N.am  144  ALA144     -0.1963
    116  CA        21.7520   10.7150   19.6360 C.3   144  ALA144      0.1728
    117  C         23.0180   10.5470   18.8080 C.2   144  ALA144      0.2617
    118  O         24.1210   10.8110   19.3010 O.2   144  ALA144     -0.2715
    119  CB        21.2100   12.1330   19.5310 C.3   144  ALA144      0.0334
    120  N         22.8820   10.0850   17.5700 N.am  145  GLY145     -0.1940
    121  CA        21.6140    9.6430   17.0370 C.3   145  GLY145      0.2014
    122  C         21.6730    8.1530   16.8080 C.2   145  GLY145      0.2639
    123  O         22.0650    7.6850   15.7370 O.2   145  GLY145     -0.2714
    124  N         21.2990    7.4080   17.8400 N.am  146  GLN146     -0.1963
    125  CA        21.2990    5.9560   17.7920 C.3   146  GLN146      0.1733
    126  C         19.8830    5.4190   17.7820 C.2   146  GLN146      0.2616
    127  O         19.6540    4.2080   17.7180 O.2   146  GLN146     -0.2715
    128  CB        22.0560    5.3860   18.9730 C.3   146  GLN146      0.0408
    129  CG        23.5420    5.5540   18.8900 C.3   146  GLN146      0.0908
    130  CD        24.1590    5.3930   20.2500 C.2   146  GLN146      0.2608
    131  OE1       23.4780    5.5770   21.2570 O.2   146  GLN146     -0.2717
    132  NE2       25.4410    5.0390   20.3020 N.am  146  GLN146     -0.0878
    133  N         18.9250    6.3250   17.8820 N.am  147  CYS147     -0.1968
    134  CA        17.5720    5.9690   17.5290 C.3   147  CYS147      0.1712
    135  C         17.5770    5.8410   16.0230 C.2   147  CYS147      0.2296
    136  O         18.2600    6.5990   15.3360 O.2   147  CYS147     -0.2864
    137  CB        16.5670    7.0170   17.9890 C.3   147  CYS147      0.0983
    138  SG        16.4240    7.1920   19.7650 S.3   147  CYS147     -0.0798
    139  N         15.2430    1.2020   19.4780 N.3   161  HIS161     -0.1226
    140  CA        15.7820    2.1540   20.4430 C.3   161  HIS161      0.1752
    141  C         15.2230    3.5470   20.2560 C.2   161  HIS161      0.2596
    142  O         15.4410    4.1700   19.2220 O.2   161  HIS161     -0.2718
    143  CB        17.3090    2.2040   20.3560 C.3   161  HIS161      0.0759
    144  CG        17.9260    3.2320   21.2490 C.ar  161  HIS161      0.0818
    145  ND1       18.2570    2.9750   22.5660 N.ar  161  HIS161     -0.2268
    146  CD2       18.2490    4.5280   21.0300 C.ar  161  HIS161      0.1154
    147  CE1       18.7700    4.0640   23.1090 C.ar  161  HIS161      0.1986
    148  NE2       18.7720    5.0240   22.1990 N.ar  161  HIS161     -0.2212
    149  N         14.5420    4.0580   21.2800 N.am  162  ILE162     -0.1966
    150  CA        13.8130    5.3070   21.1250 C.3   162  ILE162      0.1727
    151  C         14.2190    6.4150   22.0860 C.2   162  ILE162      0.2617
    152  O         13.9040    7.5820   21.8530 O.2   162  ILE162     -0.2715
    153  CB        12.3110    5.0680   21.2700 C.3   162  ILE162      0.0290
    154  CG1       12.0250    4.2360   22.5160 C.3   162  ILE162      0.0022
    155  CG2       11.7810    4.3420   20.0490 C.3   162  ILE162      0.0023
    156  CD1       11.3140    5.0100   23.5680 C.3   162  ILE162      0.0001
    157  N         14.9300    6.0720   23.1500 N.am  163  GLY163     -0.1940
    158  CA        15.2900    7.0830   24.1210 C.3   163  GLY163      0.2014
    159  C         16.4140    6.6430   25.0220 C.2   163  GLY163      0.2639
    160  O         16.8720    5.5120   24.9440 O.2   163  GLY163     -0.2714
    161  N         16.8650    7.5540   25.8700 N.am  164  GLY164     -0.1939
    162  CA        17.9430    7.2700   26.7950 C.3   164  GLY164      0.2014
    163  C         18.0830    8.4370   27.7470 C.2   164  GLY164      0.2639
    164  O         17.7190    9.5670   27.4070 O.2   164  GLY164     -0.2714
    165  N         18.5890    8.1830   28.9470 N.am  165  ASN165     -0.1958
    166  CA        18.7140    9.2650   29.9040 C.3   165  ASN165      0.1819
    167  C         20.1700    9.5230   30.2590 C.2   165  ASN165      0.2621
    168  O         20.4670   10.1220   31.2810 O.2   165  ASN165     -0.2715
    169  CB        17.8780    8.9810   31.1570 C.3   165  ASN165      0.1195
    170  CG        18.2140    7.6690   31.7940 C.2   165  ASN165      0.2630
    171  OD1       19.3710    7.2650   31.8300 O.2   165  ASN165     -0.2716
    172  ND2       17.2000    6.9820   32.3000 N.am  165  ASN165     -0.0877
    173  N         21.0740    9.0830   29.3930 N.am  166  GLY166     -0.1954
    174  CA        22.4840    9.3850   29.5540 C.3   166  GLY166      0.1869
    175  C         23.2100    8.2950   30.3090 C.2   166  GLY166      0.2309
    176  O         24.4330    8.2930   30.3670 O.2   166  GLY166     -0.2863
    177  N         16.5450    3.0900   26.2760 N.3   170  PHE170     -0.1241
    178  CA        15.2510    2.4100   26.2160 C.3   170  PHE170      0.1605
    179  C         14.7720    2.1080   24.8040 C.2   170  PHE170      0.2264
    180  O         14.9720    2.9020   23.8880 O.2   170  PHE170     -0.2867
    181  CB        14.1850    3.2490   26.9160 C.3   170  PHE170      0.0534
    182  CG        14.4690    3.5170   28.3690 C.ar  170  PHE170     -0.0203
    183  CD1       15.1710    4.6430   28.7520 C.ar  170  PHE170     -0.0042
    184  CD2       14.0010    2.6610   29.3510 C.ar  170  PHE170     -0.0042
    185  CE1       15.4190    4.8900   30.0730 C.ar  170  PHE170     -0.0003
    186  CE2       14.2450    2.9130   30.6700 C.ar  170  PHE170     -0.0003
    187  CZ        14.9560    4.0180   31.0300 C.ar  170  PHE170     -0.0000
@<TRIPOS>BOND
     1     8     7   ar
     2     7     9   ar
     3     7     6    1
     4     6     5    1
     5    13    12    2
     6    45    44    2
     7     5     2    1
     8    44    43    1
     9     2     1    1
    10     2     3    1
    11    10     3   am
    12    10    11    1
    13    12    11    1
    14     3     4    2
    15    11    14    1
    16    43    46    1
    17    43    42    1
    18    14    15    1
    19    17    15   ar
    20    17    19   ar
    21    46    47    1
    22    15    16   ar
    23    19    20   ar
    24    47    48    1
    25    16    18   ar
    26    20    18   ar
    27   136   135    2
    28    48    49    1
    29    24    23    2
    30   123   122    2
    31    49    50    1
    32   135   134    1
    33    34    35    2
    34    34    33    1
    35    23    22    1
    36    23    32   am
    37    22    21    1
    38    22    25    1
    39   122   121    1
    40   122   124   am
    41   121   120    1
    42    32    33    1
    43    33    36    1
    44   134   133    1
    45   134   137    1
    46   120   117   am
    47    26    25    1
    48    26    27    1
    49   127   126    2
    50   126   125    1
    51   126   133   am
    52   125   124    1
    53   125   128    1
    54   137   138    1
    55    39    41   ar
    56    39    37   ar
    57    41    40   ar
    58    54    53    2
    59    36    37    1
    60    37    38   ar
    61   117   118    2
    62   117   116    1
    63   129   128    1
    64   129   130    1
    65    27    28    1
    66    53    52    1
    67    40    38   ar
    68   142   141    2
    69    28    29    2
    70   139   140    1
    71   119   116    1
    72   116   115    1
    73    29    30    1
    74    29    31    1
    75   155   153    1
    76    59    57   ar
    77   130   132   am
    78   130   131    2
    79   141   140    1
    80   141   149   am
    81   143   140    1
    82   143   144    1
    83    52    51    1
    84    52    55    1
    85   109   108    2
    86    57    56    1
    87    57    58   ar
    88   115   108   am
    89   146   144   ar
    90   146   148   ar
    91    56    55    1
    92   150   153    1
    93   150   149    1
    94   150   151    1
    95   144   145   ar
    96   153   154    1
    97   108   107    1
    98   152   151    2
    99    97    98    1
   100    97    96    1
   101   151   157   am
   102   148   147   ar
   103   110   107    1
   104   110   111    1
   105   154   156    1
   106   145   147   ar
   107   107   106    1
   108   113   112    1
   109   113   114    1
   110   106   101   am
   111   157   158    1
   112    96    95    1
   113   112   111    1
   114   105   103    1
   115   180   179    2
   116    95    94    1
   117   103   100    1
   118   103   104    1
   119   158   159    1
   120   101   100    1
   121   101   102    2
   122   100    99    1
   123   179   178    1
   124   160   159    2
   125    94    91    1
   126   159   161   am
   127    89    88    1
   128   161   162    1
   129    82    81    1
   130   178   177    1
   131   178   181    1
   132    83    81    1
   133    91    90    1
   134    91    92    1
   135    79    78    2
   136    88    85    1
   137    87    86    2
   138    80    81    1
   139    80    77    1
   140   162   163    1
   141   181   182    1
   142    92    93    2
   143   164   163    2
   144    78    77    1
   145    78    84   am
   146    86    85    1
   147   163   165   am
   148    85    84    1
   149    77    76    1
   150   182   183   ar
   151   182   184   ar
   152   183   185   ar
   153    76    70   am
   154   165   166    1
   155    66    65    1
   156   184   186   ar
   157   173   174    1
   158   173   167   am
   159   174   175    1
   160    63    62    2
   161   166   167    1
   162   166   169    1
   163   185   187   ar
   164    70    71    2
   165    70    69    1
   166    64    65    1
   167    64    61    1
   168   167   168    2
   169   175   176    2
   170    65    67    1
   171    62    61    1
   172    62    68   am
   173    74    73    2
   174   186   187   ar
   175    69    68    1
   176    69    72    1
   177    61    60    1
   178   169   170    1
   179    73    72    1
   180    73    75   am
   181   170   171    2
   182   170   172   am
