@<TRIPOS>MOLECULE
tmp/5bpfD00.pdb
 175 167 0 0 0
SMALL
GASTEIGER

@<TRIPOS>ATOM
      1  N        -24.5690   12.7170  -27.3060 N.3    97  LYS97      -0.1245
      2  CA       -25.8200   13.2610  -26.7970 C.3    97  LYS97       0.1561
      3  C        -26.9630   12.4240  -27.2960 C.2    97  LYS97       0.2260
      4  O        -27.9470   12.2380  -26.5870 O.2    97  LYS97      -0.2867
      5  CB       -26.0070   14.7220  -27.1970 C.3    97  LYS97       0.0271
      6  CG       -24.8760   15.6450  -26.7400 C.3    97  LYS97       0.0035
      7  CD       -25.0400   17.0620  -27.3310 C.3    97  LYS97       0.0206
      8  CE       -23.7090   17.7710  -27.6060 C.3    97  LYS97       0.1093
      9  NZ       -22.8570   17.8040  -26.3820 N.3    97  LYS97      -0.1314
     10  N        -36.3810   16.3260  -23.6390 N.3   112  SER112     -0.1217
     11  CA       -37.1750   17.0740  -24.5910 C.3   112  SER112      0.1889
     12  C        -37.5490   16.1990  -25.7910 C.2   112  SER112      0.2288
     13  O        -36.6920   15.5000  -26.3390 O.2   112  SER112     -0.2866
     14  CB       -36.3710   18.2690  -25.0950 C.3   112  SER112      0.2089
     15  OG       -35.1810   17.7760  -25.6460 O.3   112  SER112     -0.2183
     16  N        -34.1480   23.6700  -31.3240 N.3   142  ILE142     -0.1245
     17  CA       -32.6980   23.6420  -31.1970 C.3   142  ILE142      0.1561
     18  C        -32.1700   22.5450  -32.0960 C.2   142  ILE142      0.2260
     19  O        -32.6480   21.4040  -32.0660 O.2   142  ILE142     -0.2867
     20  CB       -32.2870   23.2830  -29.7830 C.3   142  ILE142      0.0252
     21  CG1      -32.8660   24.3110  -28.8380 C.3   142  ILE142      0.0019
     22  CG2      -30.7750   23.3270  -29.6420 C.3   142  ILE142      0.0019
     23  CD1      -32.2750   25.7050  -29.0440 C.3   142  ILE142      0.0001
     24  N        -28.6310   20.6230  -33.1780 N.3   144  LYS144     -0.1245
     25  CA       -27.2780   20.4090  -32.6450 C.3   144  LYS144      0.1561
     26  C        -26.6060   19.1040  -33.1150 C.2   144  LYS144      0.2260
     27  O        -27.2580   18.0610  -33.2730 O.2   144  LYS144     -0.2867
     28  CB       -27.3040   20.4650  -31.1080 C.3   144  LYS144      0.0271
     29  CG       -27.9440   19.2780  -30.4190 C.3   144  LYS144      0.0035
     30  CD       -27.7580   19.3370  -28.9130 C.3   144  LYS144      0.0206
     31  CE       -28.5730   20.4700  -28.2930 C.3   144  LYS144      0.1093
     32  NZ       -29.0790   20.1770  -26.9130 N.3   144  LYS144     -0.1314
     33  N        -22.3230   15.0280  -31.0500 N.3   147  HIS147     -0.1241
     34  CA       -21.1630   15.1350  -30.2150 C.3   147  HIS147      0.1621
     35  C        -20.8140   16.5860  -29.9740 C.2   147  HIS147      0.2264
     36  O        -20.9050   17.3870  -30.8690 O.2   147  HIS147     -0.2867
     37  CB       -20.0070   14.4190  -30.8550 C.3   147  HIS147      0.0745
     38  CG       -20.2810   12.9900  -31.1290 C.ar  147  HIS147      0.0817
     39  ND1      -19.7890   11.9790  -30.3510 N.ar  147  HIS147     -0.2268
     40  CD2      -21.0230   12.4010  -32.0840 C.ar  147  HIS147      0.1154
     41  CE1      -20.2070   10.8280  -30.8190 C.ar  147  HIS147      0.1986
     42  NE2      -20.9610   11.0570  -31.8690 N.ar  147  HIS147     -0.2212
     43  N        -17.8390   22.6220  -29.1900 N.3   148  SER148     -0.1217
     44  CA       -19.1920   22.9090  -28.7100 C.3   148  SER148      0.1889
     45  C        -19.8980   23.9820  -29.5630 C.2   148  SER148      0.2288
     46  O        -20.2390   25.0670  -29.0780 O.2   148  SER148     -0.2866
     47  CB       -19.1370   23.3290  -27.2420 C.3   148  SER148      0.2089
     48  OG       -20.4380   23.3820  -26.6970 O.3   148  SER148     -0.2183
     49  N        -24.5190   24.6000  -33.3610 N.3   151  MET151     -0.1245
     50  CA       -25.7940   24.5510  -32.7070 C.3   151  MET151      0.1570
     51  C        -26.5870   25.7570  -33.1930 C.2   151  MET151      0.2261
     52  O        -26.1070   26.8960  -33.1360 O.2   151  MET151     -0.2867
     53  CB       -25.5520   24.6540  -31.2030 C.3   151  MET151      0.0387
     54  CG       -26.7130   24.2110  -30.3350 C.3   151  MET151      0.0595
     55  SD       -26.2000   23.8940  -28.6280 S.3   151  MET151     -0.1393
     56  CE       -24.6680   22.9610  -28.8460 C.3   151  MET151      0.0692
     57  N        -34.4520   19.3490  -31.4130 N.3   177  GLU177     -0.1231
     58  CA       -35.0710   19.2230  -30.0890 C.3   177  GLU177      0.1699
     59  C        -36.1170   20.3240  -29.9080 C.2   177  GLU177      0.2592
     60  O        -35.8960   21.4410  -30.2980 O.2   177  GLU177     -0.2718
     61  CB       -34.0070   19.4370  -28.9980 C.3   177  GLU177      0.0402
     62  CG       -33.1110   18.2640  -28.6490 C.3   177  GLU177      0.1161
     63  CD       -31.9490   18.6840  -27.7520 C.2   177  GLU177      0.3649
     64  OE1      -32.1410   19.5880  -26.9210 O.co2 177  GLU177     -0.2457
     65  OE2      -30.8230   18.1470  -27.9020 O.co2 177  GLU177     -0.2457
     66  N        -37.2320   20.0010  -29.2920 N.am  178  LYS178     -0.1966
     67  CA       -38.1750   21.0240  -28.9370 C.3   178  LYS178      0.1728
     68  C        -37.4790   21.9930  -27.9710 C.2   178  LYS178      0.2616
     69  O        -36.8520   21.5890  -26.9980 O.2   178  LYS178     -0.2715
     70  CB       -39.4580   20.4020  -28.3940 C.3   178  LYS178      0.0311
     71  CG       -40.3240   21.2940  -27.5390 C.3   178  LYS178      0.0038
     72  CD       -41.7550   20.7540  -27.4690 C.3   178  LYS178      0.0206
     73  CE       -42.4750   21.2560  -26.2180 C.3   178  LYS178      0.1093
     74  NZ       -43.8360   20.6610  -26.0440 N.3   178  LYS178     -0.1314
     75  N        -37.5380   23.2740  -28.3150 N.am  179  TRP179     -0.1960
     76  CA       -37.0450   24.3420  -27.4700 C.3   179  TRP179      0.1771
     77  C        -37.6740   24.3210  -26.0940 C.2   179  TRP179      0.2619
     78  O        -38.8600   24.0520  -25.9320 O.2   179  TRP179     -0.2715
     79  CB       -37.3250   25.6840  -28.1380 C.3   179  TRP179      0.0590
     80  CG       -37.0760   26.8360  -27.2730 C.ar  179  TRP179      0.0006
     81  CD1      -38.0180   27.5550  -26.5720 C.ar  179  TRP179      0.0946
     82  CD2      -35.8150   27.4530  -27.0050 C.ar  179  TRP179      0.0152
     83  NE1      -37.4050   28.5780  -25.8830 N.ar  179  TRP179     -0.2442
     84  CE2      -36.0530   28.5240  -26.1140 C.ar  179  TRP179      0.0810
     85  CE3      -34.5120   27.2030  -27.4220 C.ar  179  TRP179      0.0012
     86  CZ2      -35.0320   29.3350  -25.6380 C.ar  179  TRP179      0.0191
     87  CZ3      -33.4850   27.9840  -26.9230 C.ar  179  TRP179      0.0001
     88  CH2      -33.7480   29.0450  -26.0570 C.ar  179  TRP179      0.0015
     89  N        -36.8620   24.5740  -25.0890 N.am  180  LEU180     -0.1977
     90  CA       -37.3370   24.5740  -23.7000 C.3   180  LEU180      0.1596
     91  C        -37.1460   25.9910  -23.1590 C.2   180  LEU180      0.2287
     92  O        -36.0570   26.5610  -23.3160 O.2   180  LEU180     -0.2864
     93  CB       -36.5040   23.6090  -22.8450 C.3   180  LEU180      0.0297
     94  CG       -36.5540   22.1270  -23.2200 C.3   180  LEU180      0.0022
     95  CD1      -35.5790   21.3690  -22.3410 C.3   180  LEU180      0.0001
     96  CD2      -37.9670   21.5720  -23.0730 C.3   180  LEU180      0.0001
     97  N        -32.3620   27.2050  -16.5320 N.3   184  GLU184     -0.1245
     98  CA       -31.3600   26.1670  -16.6270 C.3   184  GLU184      0.1567
     99  C        -30.6190   25.9970  -15.3120 C.2   184  GLU184      0.2260
    100  O        -30.2470   26.9900  -14.6620 O.2   184  GLU184     -0.2867
    101  CB       -30.3440   26.5460  -17.6970 C.3   184  GLU184      0.0388
    102  CG       -29.1940   25.5510  -17.8580 C.3   184  GLU184      0.1160
    103  CD       -28.6020   25.5250  -19.2640 C.2   184  GLU184      0.3649
    104  OE1      -27.8590   24.5600  -19.5550 O.co2 184  GLU184     -0.2457
    105  OE2      -28.8750   26.4590  -20.0750 O.co2 184  GLU184     -0.2457
    106  N        -27.5700   32.5210  -18.8560 N.3   202  PRO202     -0.2116
    107  CA       -26.5330   32.8360  -19.8330 C.3   202  PRO202      0.1372
    108  C        -26.6600   34.2890  -20.3110 C.2   202  PRO202      0.2244
    109  O        -27.6840   34.9270  -20.0370 O.2   202  PRO202     -0.2868
    110  CB       -26.7890   31.8430  -20.9820 C.3   202  PRO202      0.0268
    111  CG       -27.9980   31.0410  -20.5840 C.3   202  PRO202      0.0207
    112  CD       -28.6660   31.7430  -19.4440 C.3   202  PRO202      0.0892
    113  N        -29.2860   33.3440  -25.1850 N.3   205  VAL205     -0.1231
    114  CA       -29.7200   32.1030  -25.9020 C.3   205  VAL205      0.1692
    115  C        -29.1130   30.7180  -25.4650 C.2   205  VAL205      0.2592
    116  O        -29.8880   29.7990  -25.1040 O.2   205  VAL205     -0.2718
    117  CB       -29.8080   32.2910  -27.4740 C.3   205  VAL205      0.0266
    118  CG1      -28.6990   33.1880  -28.0580 C.3   205  VAL205      0.0020
    119  CG2      -29.8850   30.9480  -28.2050 C.3   205  VAL205      0.0020
    120  N        -27.7770   30.5670  -25.5160 N.am  206  PHE206     -0.1962
    121  CA       -27.0690   29.3120  -25.1250 C.3   206  PHE206      0.1771
    122  C        -26.0570   29.5220  -23.9990 C.2   206  PHE206      0.2619
    123  O        -25.4480   30.5920  -23.8520 O.2   206  PHE206     -0.2715
    124  CB       -26.2840   28.6600  -26.2930 C.3   206  PHE206      0.0574
    125  CG       -27.1140   28.3490  -27.5060 C.ar  206  PHE206     -0.0200
    126  CD1      -28.1810   27.4600  -27.4280 C.ar  206  PHE206     -0.0042
    127  CD2      -26.8180   28.9440  -28.7400 C.ar  206  PHE206     -0.0042
    128  CE1      -28.9560   27.1780  -28.5460 C.ar  206  PHE206     -0.0003
    129  CE2      -27.5910   28.6630  -29.8650 C.ar  206  PHE206     -0.0003
    130  CZ       -28.6600   27.7740  -29.7660 C.ar  206  PHE206     -0.0000
    131  N        -25.8650   28.4540  -23.2370 N.am  207  TYR207     -0.1974
    132  CA       -24.8660   28.4090  -22.2000 C.3   207  TYR207      0.1639
    133  C        -23.6430   27.6460  -22.7040 C.2   207  TYR207      0.2290
    134  O        -23.5420   27.3340  -23.8920 O.2   207  TYR207     -0.2864
    135  CB       -25.4370   27.7460  -20.9460 C.3   207  TYR207      0.0560
    136  CG       -24.3920   27.6260  -19.8640 C.ar  207  TYR207     -0.0198
    137  CD1      -23.9080   28.7610  -19.2110 C.ar  207  TYR207     -0.0009
    138  CD2      -23.8440   26.3840  -19.5280 C.ar  207  TYR207     -0.0009
    139  CE1      -22.9310   28.6600  -18.2280 C.ar  207  TYR207      0.0417
    140  CE2      -22.8590   26.2730  -18.5670 C.ar  207  TYR207      0.0417
    141  CZ       -22.4080   27.4050  -17.9210 C.ar  207  TYR207      0.1957
    142  OH       -21.4420   27.2760  -16.9660 O.3   207  TYR207     -0.2866
    143  N        -26.7780   18.4990  -16.1400 N.3   247  ASP247     -0.1239
    144  CA       -27.3260   19.7480  -16.6140 C.3   247  ASP247      0.1674
    145  C        -28.7910   19.4860  -16.9500 C.2   247  ASP247      0.2266
    146  O        -29.1370   18.4950  -17.6280 O.2   247  ASP247     -0.2867
    147  CB       -26.5660   20.2880  -17.8260 C.3   247  ASP247      0.1410
    148  CG       -25.1140   20.7230  -17.4970 C.2   247  ASP247      0.3668
    149  OD1      -24.7540   20.8820  -16.3070 O.co2 247  ASP247     -0.2456
    150  OD2      -24.3240   20.9350  -18.4520 O.co2 247  ASP247     -0.2456
    151  N        -32.8820   21.3970  -17.5880 N.3   249  MET249     -0.1245
    152  CA       -33.6810   22.5760  -17.8880 C.3   249  MET249      0.1570
    153  C        -35.1380   22.3400  -17.5990 C.2   249  MET249      0.2261
    154  O        -35.6590   21.2470  -17.7640 O.2   249  MET249     -0.2867
    155  CB       -33.5710   22.9480  -19.3650 C.3   249  MET249      0.0387
    156  CG       -32.3760   23.8180  -19.7000 C.3   249  MET249      0.0595
    157  SD       -32.4020   24.3970  -21.4120 S.3   249  MET249     -0.1393
    158  CE       -33.3710   25.8920  -21.3000 C.3   249  MET249      0.0692
    159  N        -30.3460   17.1750  -19.8950 N.3   259  LEU259     -0.1231
    160  CA       -29.6230   17.6290  -21.0850 C.3   259  LEU259      0.1693
    161  C        -28.3710   16.7820  -21.3270 C.2   259  LEU259      0.2591
    162  O        -28.2660   16.1840  -22.3380 O.2   259  LEU259     -0.2718
    163  CB       -29.1840   19.1030  -20.9420 C.3   259  LEU259      0.0284
    164  CG       -30.0950   20.1920  -21.5110 C.3   259  LEU259      0.0019
    165  CD1      -31.5590   19.8790  -21.3150 C.3   259  LEU259      0.0001
    166  CD2      -29.7360   21.5030  -20.8370 C.3   259  LEU259      0.0001
    167  N        -27.4340   16.8010  -20.3890 N.am  260  GLU260     -0.1979
    168  CA       -26.1440   16.1250  -20.4900 C.3   260  GLU260      0.1602
    169  C        -25.5270   15.9510  -19.0950 C.2   260  GLU260      0.2287
    170  O        -25.9740   16.5520  -18.1130 O.2   260  GLU260     -0.2864
    171  CB       -25.1830   16.8800  -21.4170 C.3   260  GLU260      0.0415
    172  CG       -24.6140   18.1900  -20.8630 C.3   260  GLU260      0.1163
    173  CD       -23.6100   18.8550  -21.8180 C.2   260  GLU260      0.3649
    174  OE1      -23.8620   18.8850  -23.0360 O.co2 260  GLU260     -0.2457
    175  OE2      -22.5580   19.3470  -21.3610 O.co2 260  GLU260     -0.2457
@<TRIPOS>BOND
     1    49    50    1
     2    27    26    2
     3    51    52    2
     4    51    50    1
     5    24    25    1
     6    26    25    1
     7    50    53    1
     8    25    28    1
     9    18    19    2
    10    18    17    1
    11    40    42   ar
    12    40    38   ar
    13    42    41   ar
    14    57    58    1
    15    16    17    1
    16    53    54    1
    17    17    20    1
    18    38    37    1
    19    38    39   ar
    20    28    29    1
    21    33    34    1
    22    36    35    2
    23    37    34    1
    24    41    39   ar
    25    29    30    1
    26    54    55    1
    27    60    59    2
    28    34    35    1
    29    58    59    1
    30    58    61    1
    31    59    66   am
    32   129   130   ar
    33   129   127   ar
    34    20    22    1
    35    20    21    1
    36   130   128   ar
    37    45    46    2
    38    45    44    1
    39    66    67    1
    40    43    44    1
    41    23    21    1
    42    61    62    1
    43    67    70    1
    44    67    68    1
    45    30    31    1
    46    56    55    1
    47   127   125   ar
    48    44    47    1
    49    62    63    1
    50   128   126   ar
    51    70    71    1
    52    75    68   am
    53    75    76    1
    54    31    32    1
    55   119   117    1
    56    79    76    1
    57    79    80    1
    58   118   117    1
    59    68    69    2
    60    65    63   ar
    61    63    64   ar
    62     8     7    1
    63     8     9    1
    64    71    72    1
    65   125   126   ar
    66   125   124    1
    67   117   114    1
    68    76    77    1
    69    72    73    1
    70    85    82   ar
    71    85    87   ar
    72     7     6    1
    73     1     2    1
    74     3     2    1
    75     3     4    2
    76    80    82   ar
    77    80    81   ar
    78    47    48    1
    79     5     2    1
    80     5     6    1
    81    82    84   ar
    82    87    88   ar
    83    81    83   ar
    84    13    12    2
    85   124   121    1
    86    73    74    1
    87    84    83   ar
    88    84    86   ar
    89    77    78    2
    90    77    89   am
    91    88    86   ar
    92   114   115    1
    93   114   113    1
    94    12    11    1
    95    15    14    1
    96   120   115   am
    97   120   121    1
    98   115   116    2
    99   121   122    1
   100    14    11    1
   101    89    90    1
   102    11    10    1
   103   122   123    2
   104   122   131   am
   105   134   133    2
   106    90    91    1
   107    90    93    1
   108    92    91    2
   109   131   132    1
   110    94    96    1
   111    94    93    1
   112    94    95    1
   113   174   173   ar
   114   133   132    1
   115   162   161    2
   116   132   135    1
   117   173   175   ar
   118   173   172    1
   119   164   165    1
   120   164   163    1
   121   164   166    1
   122   171   172    1
   123   171   168    1
   124   157   158    1
   125   157   156    1
   126   161   160    1
   127   161   167   am
   128   160   163    1
   129   160   159    1
   130   110   111    1
   131   110   107    1
   132   135   136    1
   133   111   112    1
   134   168   167    1
   135   168   169    1
   136   108   109    2
   137   108   107    1
   138   105   103   ar
   139   136   138   ar
   140   136   137   ar
   141   107   106    1
   142   156   155    1
   143   104   103   ar
   144   138   140   ar
   145   112   106    1
   146   155   152    1
   147   103   102    1
   148   137   139   ar
   149   169   170    2
   150   140   141   ar
   151   150   148   ar
   152   139   141   ar
   153   141   142    1
   154   152   153    1
   155   152   151    1
   156   102   101    1
   157   147   148    1
   158   147   144    1
   159   154   153    2
   160   101    98    1
   161   146   145    2
   162   148   149   ar
   163   145   144    1
   164    98    97    1
   165    98    99    1
   166   144   143    1
   167    99   100    2
