@<TRIPOS>MOLECULE
tmp/5bphC00.pdb
 191 181 0 0 0
SMALL
GASTEIGER

@<TRIPOS>ATOM
      1  N        -15.5830   45.3340  243.7890 N.3    97  LYS97      -0.1245
      2  CA       -15.2310   44.0750  243.3020 C.3    97  LYS97       0.1561
      3  C        -16.1640   42.9510  243.7680 C.2    97  LYS97       0.2260
      4  O        -16.3280   41.9920  243.0460 O.2    97  LYS97      -0.2867
      5  CB       -13.7590   43.7450  243.6860 C.3    97  LYS97       0.0271
      6  CG       -12.8150   44.7590  243.0580 C.3    97  LYS97       0.0035
      7  CD       -11.3630   44.5510  243.4900 C.3    97  LYS97       0.0206
      8  CE       -10.5310   45.7950  243.2470 C.3    97  LYS97       0.1093
      9  NZ       -10.7710   46.2690  241.8330 N.3    97  LYS97      -0.1314
     10  N        -12.8780   33.6680  239.9430 N.3   112  SER112     -0.1217
     11  CA       -12.0350   32.8340  240.8480 C.3   112  SER112      0.1889
     12  C        -12.9030   32.3900  242.0280 C.2   112  SER112      0.2288
     13  O        -13.6350   33.1750  242.6210 O.2   112  SER112     -0.2866
     14  CB       -10.8540   33.6350  241.3460 C.3   112  SER112      0.2089
     15  OG        -9.9400   32.7110  241.9820 O.3   112  SER112     -0.2183
     16  N         -5.3700   35.2130  247.4430 N.3   142  ILE142     -0.1245
     17  CA        -5.2230   36.6650  247.4120 C.3   142  ILE142      0.1561
     18  C         -6.2810   37.1930  248.3330 C.2   142  ILE142      0.2260
     19  O         -7.3990   36.6840  248.2730 O.2   142  ILE142     -0.2867
     20  CB        -5.5170   37.2900  245.9950 C.3   142  ILE142      0.0252
     21  CG1       -4.4380   36.7960  245.0890 C.3   142  ILE142      0.0019
     22  CG2       -5.3740   38.8030  245.9960 C.3   142  ILE142      0.0019
     23  CD1       -3.0820   37.1720  245.7210 C.3   142  ILE142      0.0001
     24  N         -8.0420   40.8580  249.4610 N.3   144  LYS144     -0.1245
     25  CA        -8.2010   42.2290  248.9600 C.3   144  LYS144      0.1561
     26  C         -9.4980   42.8960  249.5550 C.2   144  LYS144      0.2260
     27  O        -10.5020   42.2360  249.7300 O.2   144  LYS144     -0.2867
     28  CB        -8.2830   42.2350  247.3850 C.3   144  LYS144      0.0271
     29  CG        -9.4950   41.5240  246.8420 C.3   144  LYS144      0.0035
     30  CD        -9.6400   41.5390  245.3040 C.3   144  LYS144      0.0206
     31  CE        -8.5440   40.7240  244.6200 C.3   144  LYS144      0.1093
     32  NZ        -8.9900   40.3690  243.2140 N.3   144  LYS144     -0.1314
     33  N        -12.0670   49.2640  244.9370 N.3   148  GLU148     -0.1245
     34  CA       -11.0000   49.8160  244.1980 C.3   148  GLU148      0.1567
     35  C        -10.5270   51.0450  244.9750 C.2   148  GLU148      0.2260
     36  O        -11.2640   52.0200  245.0990 O.2   148  GLU148     -0.2867
     37  CB       -11.4850   50.1890  242.7900 C.3   148  GLU148      0.0388
     38  CG       -10.3500   50.5890  241.8580 C.3   148  GLU148      0.1160
     39  CD        -9.3500   49.4530  241.6850 C.2   148  GLU148      0.3649
     40  OE1       -9.7760   48.4050  241.1320 O.co2 148  GLU148     -0.2457
     41  OE2       -8.1680   49.5900  242.1290 O.co2 148  GLU148     -0.2457
     42  N         -5.4520   50.2360  244.5390 N.3   151  SER151     -0.1217
     43  CA        -4.8800   49.0010  244.9870 C.3   151  SER151      0.1889
     44  C         -3.9590   49.0320  246.2270 C.2   151  SER151      0.2288
     45  O         -2.8860   48.4230  246.2120 O.2   151  SER151     -0.2866
     46  CB        -4.2230   48.3160  243.8030 C.3   151  SER151      0.2089
     47  OG        -2.9840   48.9420  243.5370 O.3   151  SER151     -0.2183
     48  N         -3.8420   44.8240  249.4460 N.3   154  MET154     -0.1245
     49  CA        -3.8500   43.4720  248.8720 C.3   154  MET154      0.1570
     50  C         -2.6300   42.7070  249.3110 C.2   154  MET154      0.2261
     51  O         -1.6070   43.3270  249.4400 O.2   154  MET154     -0.2867
     52  CB        -3.8520   43.5450  247.3540 C.3   154  MET154      0.0387
     53  CG        -5.1990   43.9230  246.8030 C.3   154  MET154      0.0595
     54  SD        -5.4300   43.1690  245.1270 S.3   154  MET154     -0.1393
     55  CE        -4.1210   44.0680  244.3890 C.3   154  MET154      0.0692
     56  N         -9.6940   35.0920  247.6350 N.3   180  GLU180     -0.1231
     57  CA        -9.8660   34.3690  246.3990 C.3   180  GLU180      0.1699
     58  C         -8.7290   33.3590  246.1750 C.2   180  GLU180      0.2592
     59  O         -7.5780   33.6290  246.6250 O.2   180  GLU180     -0.2718
     60  CB        -9.8070   35.2910  245.1910 C.3   180  GLU180      0.0402
     61  CG       -10.4500   36.6610  245.4150 C.3   180  GLU180      0.1161
     62  CD       -10.4900   37.4930  244.1500 C.2   180  GLU180      0.3649
     63  OE1      -11.3350   38.4350  244.1010 O.co2 180  GLU180     -0.2457
     64  OE2       -9.7120   37.2040  243.2040 O.co2 180  GLU180     -0.2457
     65  N         -9.0570   32.2920  245.4930 N.am  181  LYS181     -0.1966
     66  CA        -8.0430   31.3940  244.9670 C.3   181  LYS181      0.1728
     67  C         -7.0580   32.2060  244.1300 C.2   181  LYS181      0.2616
     68  O         -7.4550   33.0270  243.2940 O.2   181  LYS181     -0.2715
     69  CB        -8.6520   30.3220  244.1440 C.3   181  LYS181      0.0311
     70  CG        -7.6300   29.3250  243.6400 C.3   181  LYS181      0.0038
     71  CD        -8.3490   28.4060  242.6520 C.3   181  LYS181      0.0206
     72  CE        -7.5020   27.2040  242.3020 C.3   181  LYS181      0.1093
     73  NZ        -6.4120   27.6370  241.4010 N.3   181  LYS181     -0.1314
     74  N         -5.7650   32.0080  244.3640 N.am  182  TRP182     -0.1960
     75  CA        -4.7280   32.6400  243.5500 C.3   182  TRP182      0.1771
     76  C         -4.6820   32.0150  242.1750 C.2   182  TRP182      0.2619
     77  O         -4.6630   30.7730  242.0240 O.2   182  TRP182     -0.2715
     78  CB        -3.3360   32.4860  244.2350 C.3   182  TRP182      0.0590
     79  CG        -2.2290   33.0190  243.3970 C.ar  182  TRP182      0.0006
     80  CD1       -1.4440   32.3190  242.5580 C.ar  182  TRP182      0.0946
     81  CD2       -1.7610   34.3340  243.3680 C.ar  182  TRP182      0.0152
     82  NE1       -0.5970   33.1730  241.8990 N.ar  182  TRP182     -0.2442
     83  CE2       -0.7630   34.4100  242.4090 C.ar  182  TRP182      0.0810
     84  CE3       -2.1530   35.4900  243.9940 C.ar  182  TRP182      0.0012
     85  CZ2       -0.0810   35.5700  242.1220 C.ar  182  TRP182      0.0191
     86  CZ3       -1.4540   36.7130  243.6660 C.ar  182  TRP182      0.0001
     87  CH2       -0.4490   36.7090  242.7590 C.ar  182  TRP182      0.0015
     88  N         -4.8260   32.8460  241.1610 N.am  183  LEU183     -0.1977
     89  CA        -4.7820   32.4810  239.7300 C.3   183  LEU183      0.1596
     90  C         -3.3590   32.6020  239.2310 C.2   183  LEU183      0.2287
     91  O         -2.7030   33.6120  239.4900 O.2   183  LEU183     -0.2864
     92  CB        -5.6410   33.4220  238.9450 C.3   183  LEU183      0.0297
     93  CG        -7.1320   33.3690  239.3840 C.3   183  LEU183      0.0022
     94  CD1       -7.8960   34.4990  238.5900 C.3   183  LEU183      0.0001
     95  CD2       -7.6970   31.9520  239.2320 C.3   183  LEU183      0.0001
     96  N         -2.0650   37.2220  232.6120 N.3   187  GLU187     -0.1245
     97  CA        -3.1130   38.2800  232.6910 C.3   187  GLU187      0.1567
     98  C         -3.2890   38.9390  231.3390 C.2   187  GLU187      0.2260
     99  O         -2.3300   39.1000  230.5530 O.2   187  GLU187     -0.2867
    100  CB        -2.6770   39.2560  233.7150 C.3   187  GLU187      0.0388
    101  CG        -3.6390   40.3830  233.9360 C.3   187  GLU187      0.1160
    102  CD        -3.5280   41.0190  235.3050 C.2   187  GLU187      0.3649
    103  OE1       -2.5600   40.7300  236.0970 O.co2 187  GLU187     -0.2457
    104  OE2       -4.4320   41.8650  235.5390 O.co2 187  GLU187     -0.2457
    105  N          3.2890   41.9760  234.7590 N.3   205  PRO205     -0.2116
    106  CA         3.9360   42.8560  235.7070 C.3   205  PRO205      0.1372
    107  C          5.1880   42.1470  236.2590 C.2   205  PRO205      0.2244
    108  O          5.3320   40.9540  236.1430 O.2   205  PRO205     -0.2868
    109  CB         2.9260   43.0220  236.8250 C.3   205  PRO205      0.0268
    110  CG         1.9160   41.9910  236.6660 C.3   205  PRO205      0.0207
    111  CD         2.0640   41.3370  235.3290 C.3   205  PRO205      0.0892
    112  N          3.8000   40.4440  241.8650 N.3   208  VAL208     -0.1231
    113  CA         2.6910   39.4910  242.0680 C.3   208  VAL208      0.1692
    114  C          1.3820   40.1110  241.5280 C.2   208  VAL208      0.2592
    115  O          0.4430   39.3840  241.1120 O.2   208  VAL208     -0.2718
    116  CB         2.6460   39.1480  243.6030 C.3   208  VAL208      0.0266
    117  CG1        1.3720   38.5100  244.0660 C.3   208  VAL208      0.0020
    118  CG2        3.8180   38.2090  243.9620 C.3   208  VAL208      0.0020
    119  N          1.3310   41.4300  241.5550 N.am  209  PHE209     -0.1962
    120  CA         0.0820   42.1820  241.2430 C.3   209  PHE209      0.1771
    121  C          0.2910   43.1220  240.0540 C.2   209  PHE209      0.2620
    122  O          1.3380   43.7490  239.9230 O.2   209  PHE209     -0.2715
    123  CB        -0.3820   43.0540  242.4270 C.3   209  PHE209      0.0574
    124  CG        -0.6890   42.2910  243.6860 C.ar  209  PHE209     -0.0200
    125  CD1       -1.5040   41.2070  243.6630 C.ar  209  PHE209     -0.0042
    126  CD2       -0.1110   42.6390  244.8840 C.ar  209  PHE209     -0.0042
    127  CE1       -1.7790   40.4800  244.8310 C.ar  209  PHE209     -0.0003
    128  CE2       -0.3760   41.9280  246.0510 C.ar  209  PHE209     -0.0003
    129  CZ        -1.2030   40.8410  246.0200 C.ar  209  PHE209     -0.0000
    130  N         -0.7320   43.2370  239.1790 N.am  210  TYR210     -0.1960
    131  CA        -0.7990   44.3740  238.2620 C.3   210  TYR210      0.1771
    132  C         -1.5230   45.5350  238.9870 C.2   210  TYR210      0.2619
    133  O         -2.7790   45.7480  238.9080 O.2   210  TYR210     -0.2715
    134  CB        -1.4260   44.0070  236.9180 C.3   210  TYR210      0.0574
    135  CG        -1.4230   45.1120  235.8740 C.ar  210  TYR210     -0.0198
    136  CD1       -0.2380   45.7790  235.5040 C.ar  210  TYR210     -0.0009
    137  CD2       -2.6290   45.4820  235.1780 C.ar  210  TYR210     -0.0009
    138  CE1       -0.2360   46.7530  234.5380 C.ar  210  TYR210      0.0417
    139  CE2       -2.6200   46.4680  234.2080 C.ar  210  TYR210      0.0417
    140  CZ        -1.4240   47.1180  233.8820 C.ar  210  TYR210      0.1957
    141  OH        -1.2460   48.1240  232.9420 O.3   210  TYR210     -0.2866
    142  N         -0.7210   46.2380  239.7960 N.am  211  ASP211     -0.1971
    143  CA        -1.2290   47.1440  240.8180 C.3   211  ASP211      0.1709
    144  C         -0.8970   48.5810  240.3800 C.2   211  ASP211      0.2293
    145  O         -0.3590   48.8110  239.2760 O.2   211  ASP211     -0.2864
    146  CB        -0.6070   46.8320  242.1900 C.3   211  ASP211      0.1436
    147  CG         0.9120   46.8100  242.1520 C.2   211  ASP211      0.3671
    148  OD1        1.5650   47.2370  241.1410 O.co2 211  ASP211     -0.2456
    149  OD2        1.4270   46.2570  243.1370 O.co2 211  ASP211     -0.2456
    150  N          1.0030   49.8890  237.0160 N.3   215  LYS215     -0.1245
    151  CA         0.2940   50.6270  235.9460 C.3   215  LYS215      0.1561
    152  C          0.8240   51.9860  235.6460 C.2   215  LYS215      0.2260
    153  O          0.9020   52.3830  234.4890 O.2   215  LYS215     -0.2867
    154  CB        -1.1680   50.7940  236.2680 C.3   215  LYS215      0.0271
    155  CG        -1.9650   49.5290  236.2140 C.3   215  LYS215      0.0035
    156  CD        -3.2580   49.7510  236.9960 C.3   215  LYS215      0.0206
    157  CE        -4.1360   48.5240  236.9680 C.3   215  LYS215      0.1093
    158  NZ        -5.2490   48.7680  237.9140 N.3   215  LYS215     -0.1314
    159  N        -10.5200   43.2180  232.2990 N.3   257  ASP257     -0.1239
    160  CA        -9.2530   42.5330  232.8100 C.3   257  ASP257      0.1674
    161  C         -9.5780   41.1330  233.1630 C.2   257  ASP257      0.2266
    162  O        -10.5730   40.8380  233.8410 O.2   257  ASP257     -0.2867
    163  CB        -8.7210   43.2850  233.9880 C.3   257  ASP257      0.1410
    164  CG        -8.3570   44.7280  233.6310 C.2   257  ASP257      0.3668
    165  OD1       -8.0630   45.0280  232.4290 O.co2 257  ASP257     -0.2456
    166  OD2       -8.5020   45.5860  234.5390 O.co2 257  ASP257     -0.2456
    167  N         -7.7590   36.9150  233.7080 N.3   259  MET259     -0.1245
    168  CA        -6.5560   36.0820  233.9390 C.3   259  MET259      0.1570
    169  C         -6.8710   34.6520  233.7070 C.2   259  MET259      0.2261
    170  O         -7.9650   34.1820  233.9940 O.2   259  MET259     -0.2867
    171  CB        -6.0960   36.1520  235.3720 C.3   259  MET259      0.0387
    172  CG        -5.4400   37.4220  235.7940 C.3   259  MET259      0.0595
    173  SD        -4.9610   37.2660  237.5210 S.3   259  MET259     -0.1393
    174  CE        -3.2760   36.4850  237.2760 C.3   259  MET259      0.0692
    175  N        -11.6390   39.5400  236.2400 N.3   269  LEU269     -0.1231
    176  CA       -11.2240   40.3410  237.3540 C.3   269  LEU269      0.1693
    177  C        -12.0250   41.6190  237.5720 C.2   269  LEU269      0.2591
    178  O        -12.6070   41.7800  238.6710 O.2   269  LEU269     -0.2718
    179  CB        -9.7680   40.7090  237.1680 C.3   269  LEU269      0.0284
    180  CG        -8.7180   39.5920  237.1680 C.3   269  LEU269      0.0019
    181  CD1       -7.4140   40.2300  236.7560 C.3   269  LEU269      0.0001
    182  CD2       -8.5400   39.0380  238.5000 C.3   269  LEU269      0.0001
    183  N        -12.0650   42.4620  236.5380 N.am  270  GLU270     -0.1979
    184  CA       -12.7370   43.7690  236.6830 C.3   270  GLU270      0.1602
    185  C        -12.9550   44.3700  235.3400 C.2   270  GLU270      0.2287
    186  O        -12.3250   43.9930  234.3310 O.2   270  GLU270     -0.2864
    187  CB       -11.9090   44.7340  237.5250 C.3   270  GLU270      0.0415
    188  CG       -10.6880   45.2350  236.7070 C.3   270  GLU270      0.1163
    189  CD        -9.4850   45.2420  237.5750 C.2   270  GLU270      0.3649
    190  OE1       -9.5040   45.9790  238.6130 O.co2 270  GLU270     -0.2457
    191  OE2       -8.5380   44.4850  237.2180 O.co2 270  GLU270     -0.2457
@<TRIPOS>BOND
     1    99    98    2
     2    98    97    1
     3   159   160    1
     4   165   164   ar
     5    96    97    1
     6    97   100    1
     7   160   161    1
     8   160   163    1
     9   141   140    1
    10   161   162    2
    11   164   163    1
    12   164   166   ar
    13   169   168    1
    14   169   170    2
    15   167   168    1
    16   100   101    1
    17   140   139   ar
    18   140   138   ar
    19   101   102    1
    20   168   171    1
    21   139   137   ar
    22   186   185    2
    23   153   152    2
    24   138   136   ar
    25   105   111    1
    26   105   106    1
    27   137   135   ar
    28   102   104   ar
    29   102   103   ar
    30   111   110    1
    31   185   184    1
    32   171   172    1
    33   136   135   ar
    34   152   151    1
    35   106   107    1
    36   106   109    1
    37   172   173    1
    38   135   134    1
    39   151   154    1
    40   151   150    1
    41   108   107    2
    42   155   154    1
    43   155   156    1
    44   175   176    1
    45   183   184    1
    46   183   177   am
    47   110   109    1
    48   184   187    1
    49   188   187    1
    50   188   189    1
    51   181   180    1
    52   134   131    1
    53   157   156    1
    54   157   158    1
    55   180   179    1
    56   180   182    1
    57   179   176    1
    58   191   189   ar
    59   174   173    1
    60   176   177    1
    61   177   178    2
    62   189   190   ar
    63   131   132    1
    64   131   130    1
    65    94    93    1
    66   133   132    2
    67    92    93    1
    68    92    89    1
    69   132   142   am
    70   130   121   am
    71    90    91    2
    72    90    89    1
    73    95    93    1
    74   145   144    2
    75    89    88    1
    76   142   143    1
    77   122   121    2
    78    10    11    1
    79   121   120    1
    80   144   143    1
    81   143   146    1
    82    11    14    1
    83    11    12    1
    84   115   114    2
    85    40    39   ar
    86   148   147   ar
    87    88    76   am
    88   120   119    1
    89   120   123    1
    90    14    15    1
    91    73    72    1
    92   114   119   am
    93   114   113    1
    94    39    38    1
    95    39    41   ar
    96     9     8    1
    97    38    37    1
    98   112   113    1
    99    82    83   ar
   100    82    80   ar
   101    77    76    2
   102    12    13    2
   103   113   116    1
   104    85    83   ar
   105    85    87   ar
   106   147   146    1
   107   147   149   ar
   108    76    75    1
   109    72    71    1
   110    83    81   ar
   111   123   124    1
   112    80    79   ar
   113    71    70    1
   114    87    86   ar
   115    37    34    1
   116     4     3    2
   117     6     7    1
   118     6     5    1
   119    64    62   ar
   120    32    31    1
   121     8     7    1
   122    68    67    2
   123     2     5    1
   124     2     3    1
   125     2     1    1
   126    81    79   ar
   127    81    84   ar
   128    79    78    1
   129    47    46    1
   130    75    78    1
   131    75    74    1
   132   116   118    1
   133   116   117    1
   134    70    69    1
   135   125   124   ar
   136   125   127   ar
   137    86    84   ar
   138   124   126   ar
   139    46    43    1
   140    63    62   ar
   141    67    74   am
   142    67    66    1
   143    69    66    1
   144    62    61    1
   145    34    33    1
   146    34    35    1
   147    55    54    1
   148    42    43    1
   149    31    30    1
   150   127   129   ar
   151   126   128   ar
   152    66    65    1
   153    35    36    2
   154    43    44    1
   155    21    23    1
   156    21    20    1
   157    54    53    1
   158    60    61    1
   159    60    57    1
   160    30    29    1
   161    65    58   am
   162    20    22    1
   163    20    17    1
   164   129   128   ar
   165    58    57    1
   166    58    59    2
   167    45    44    2
   168    57    56    1
   169    53    52    1
   170    29    28    1
   171    52    49    1
   172    28    25    1
   173    17    16    1
   174    17    18    1
   175    19    18    2
   176    49    50    1
   177    49    48    1
   178    25    24    1
   179    25    26    1
   180    50    51    2
   181    26    27    2
