@<TRIPOS>MOLECULE
tmp/5bppA00.pdb
 170 167 0 0 0
SMALL
GASTEIGER

@<TRIPOS>ATOM
      1  N         35.7070   84.7540   -8.6700 N.3   131  GLN131     -0.1245
      2  CA        35.1680   85.2170   -7.3930 C.3   131  GLN131      0.1566
      3  C         33.9760   84.3130   -6.9580 C.2   131  GLN131      0.2260
      4  O         32.8620   84.4460   -7.4630 O.2   131  GLN131     -0.2867
      5  CB        34.7990   86.7020   -7.4710 C.3   131  GLN131      0.0367
      6  CG        33.9490   87.2110   -6.3460 C.3   131  GLN131      0.0905
      7  CD        34.7230   87.1160   -5.0680 C.2   131  GLN131      0.2608
      8  OE1       35.9140   87.4910   -4.9960 O.2   131  GLN131     -0.2717
      9  NE2       34.0720   86.6360   -4.0540 N.am  131  GLN131     -0.0878
     10  N         32.6180   83.7780   -3.7100 N.3   133  GLN133     -0.1231
     11  CA        31.7190   84.1480   -2.6560 C.3   133  GLN133      0.1698
     12  C         30.5260   84.8830   -3.2510 C.2   133  GLN133      0.2592
     13  O         30.7090   85.7350   -4.0570 O.2   133  GLN133     -0.2718
     14  CB        32.4220   84.9710   -1.5670 C.3   133  GLN133      0.0381
     15  CG        31.6790   84.9880   -0.2550 C.3   133  GLN133      0.0905
     16  CD        32.4530   85.7160    0.8340 C.2   133  GLN133      0.2608
     17  OE1       33.1940   86.5670    0.5650 O.2   133  GLN133     -0.2717
     18  NE2       32.2280   85.3670    2.0620 N.am  133  GLN133     -0.0878
     19  N         29.2930   84.5630   -2.8640 N.am  134  ALA134     -0.1980
     20  CA        28.9060   83.5230   -1.9010 C.3   134  ALA134      0.1597
     21  C         28.7610   82.1550   -2.5250 C.2   134  ALA134      0.2287
     22  O         29.3850   81.1680   -2.0270 O.2   134  ALA134     -0.2864
     23  CB        27.5520   83.9050   -1.2130 C.3   134  ALA134      0.0319
     24  N         34.8740   93.7980   -5.5260 N.3   264  TYR264     -0.1227
     25  CA        34.8730   94.1210   -4.0760 C.3   264  TYR264      0.1736
     26  C         36.2040   94.7880   -3.6710 C.2   264  TYR264      0.2596
     27  O         37.1650   94.7990   -4.4380 O.2   264  TYR264     -0.2718
     28  CB        34.6500   92.8430   -3.3040 C.3   264  TYR264      0.0548
     29  CG        33.3420   92.1630   -3.6430 C.ar  264  TYR264     -0.0200
     30  CD1       32.1690   92.7070   -3.2160 C.ar  264  TYR264     -0.0009
     31  CD2       33.2920   90.9990   -4.3870 C.ar  264  TYR264     -0.0009
     32  CE1       30.9570   92.1300   -3.5060 C.ar  264  TYR264      0.0417
     33  CE2       32.0660   90.3690   -4.6450 C.ar  264  TYR264      0.0417
     34  CZ        30.9070   90.9670   -4.2080 C.ar  264  TYR264      0.1957
     35  OH        29.6810   90.4780   -4.4360 O.3   264  TYR264     -0.2866
     36  N         36.2660   95.3520   -2.4740 N.am  265  GLY265     -0.1942
     37  CA        37.4670   95.8890   -1.9970 C.3   265  GLY265      0.2014
     38  C         38.5940   94.8280   -1.8680 C.2   265  GLY265      0.2639
     39  O         39.7600   95.0760   -2.1310 O.2   265  GLY265     -0.2714
     40  N         38.2340   93.6880   -1.3500 N.am  266  GLY266     -0.1939
     41  CA        39.1780   92.6240   -1.1340 C.3   266  GLY266      0.2014
     42  C         38.3820   91.3130   -0.9650 C.2   266  GLY266      0.2639
     43  O         37.1960   91.3470   -0.7880 O.2   266  GLY266     -0.2714
     44  N         39.0380   90.1710   -1.1060 N.am  267  MET267     -0.1963
     45  CA        38.4190   88.8950   -0.9330 C.3   267  MET267      0.1736
     46  C         39.4970   88.0410   -0.2880 C.2   267  MET267      0.2616
     47  O         40.5990   87.9490   -0.7830 O.2   267  MET267     -0.2715
     48  CB        37.9670   88.3440   -2.2900 C.3   267  MET267      0.0427
     49  CG        37.4010   86.9560   -2.1790 C.3   267  MET267      0.0599
     50  SD        35.9290   87.0160   -1.1220 S.3   267  MET267     -0.1393
     51  CE        36.0050   85.3300   -0.5280 C.3   267  MET267      0.0692
     52  N         39.1810   87.5500    0.8940 N.am  268  GLU268     -0.1977
     53  CA        40.0860   86.8330    1.7910 C.3   268  GLU268      0.1602
     54  C         40.4530   85.4080    1.3880 C.2   268  GLU268      0.2287
     55  O         40.3980   84.4440    2.2240 O.2   268  GLU268     -0.2864
     56  CB        39.4230   86.7690    3.1810 C.3   268  GLU268      0.0415
     57  CG        38.1270   85.9240    3.2660 C.3   268  GLU268      0.1163
     58  CD        36.8040   86.6770    3.0790 C.2   268  GLU268      0.3649
     59  OE1       36.7280   87.7060    2.3700 O.co2 268  GLU268     -0.2457
     60  OE2       35.7680   86.1930    3.6070 O.co2 268  GLU268     -0.2457
     61  N         41.3760   94.1880    7.2260 N.3   292  HIS292     -0.1226
     62  CA        40.1700   93.4350    7.1850 C.3   292  HIS292      0.1752
     63  C         40.3930   92.0100    6.5740 C.2   292  HIS292      0.2595
     64  O         40.0160   90.9930    7.2100 O.2   292  HIS292     -0.2718
     65  CB        39.1770   94.1750    6.3440 C.3   292  HIS292      0.0759
     66  CG        37.8620   93.4830    6.1990 C.ar  292  HIS292      0.0818
     67  ND1       36.7880   93.7740    7.0250 N.ar  292  HIS292     -0.2268
     68  CD2       37.4170   92.5800    5.2900 C.ar  292  HIS292      0.1154
     69  CE1       35.7630   93.0400    6.6640 C.ar  292  HIS292      0.1986
     70  NE2       36.1110   92.3230    5.6070 N.ar  292  HIS292     -0.2212
     71  N         40.9320   91.9570    5.3530 N.am  293  GLU293     -0.1979
     72  CA        41.2150   90.6660    4.7320 C.3   293  GLU293      0.1602
     73  C         42.1310   89.7970    5.5830 C.2   293  GLU293      0.2287
     74  O         41.9310   88.6100    5.6780 O.2   293  GLU293     -0.2864
     75  CB        41.8470   90.8100    3.3260 C.3   293  GLU293      0.0415
     76  CG        40.9810   91.6370    2.3800 C.3   293  GLU293      0.1163
     77  CD        39.4950   91.3370    2.3560 C.2   293  GLU293      0.3649
     78  OE1       39.1280   90.1820    2.4710 O.co2 293  GLU293     -0.2457
     79  OE2       38.6670   92.2730    2.1660 O.co2 293  GLU293     -0.2457
     80  N         40.1900   88.0610    8.3670 N.3   296  HIS296     -0.1241
     81  CA        39.4460   86.8940    7.8670 C.3   296  HIS296      0.1621
     82  C         40.2100   85.6130    7.9580 C.2   296  HIS296      0.2264
     83  O         39.5740   84.5400    7.8900 O.2   296  HIS296     -0.2867
     84  CB        39.0260   87.0470    6.4120 C.3   296  HIS296      0.0745
     85  CG        37.7840   87.8120    6.2310 C.ar  296  HIS296      0.0817
     86  ND1       36.5920   87.4480    6.8360 N.ar  296  HIS296     -0.2268
     87  CD2       37.5210   88.9040    5.4820 C.ar  296  HIS296      0.1154
     88  CE1       35.6430   88.2760    6.4390 C.ar  296  HIS296      0.1986
     89  NE2       36.1830   89.1400    5.5800 N.ar  296  HIS296     -0.2212
     90  N         24.7190   81.2590    4.8020 N.3   308  TRP308     -0.1241
     91  CA        24.8150   82.6820    4.4990 C.3   308  TRP308      0.1605
     92  C         23.8160   83.5470    5.2760 C.2   308  TRP308      0.2264
     93  O         24.0100   84.7450    5.3860 O.2   308  TRP308     -0.2867
     94  CB        24.7090   82.8900    2.9870 C.3   308  TRP308      0.0550
     95  CG        25.7950   82.2080    2.2690 C.ar  308  TRP308      0.0003
     96  CD1       25.6780   81.1220    1.4570 C.ar  308  TRP308      0.0946
     97  CD2       27.1720   82.5050    2.3440 C.ar  308  TRP308      0.0152
     98  NE1       26.9370   80.7310    1.0220 N.ar  308  TRP308     -0.2442
     99  CE2       27.8570   81.5840    1.5220 C.ar  308  TRP308      0.0810
    100  CE3       27.9020   83.4600    3.0290 C.ar  308  TRP308      0.0012
    101  CZ2       29.2690   81.5560    1.4030 C.ar  308  TRP308      0.0191
    102  CZ3       29.2730   83.4520    2.9140 C.ar  308  TRP308      0.0001
    103  CH2       29.9560   82.5120    2.0720 C.ar  308  TRP308      0.0015
    104  N         26.0500   85.2750    7.8200 N.3   311  PHE311     -0.1241
    105  CA        27.1330   86.0770    7.2450 C.3   311  PHE311      0.1605
    106  C         27.7430   87.1200    8.2060 C.2   311  PHE311      0.2264
    107  O         28.9930   87.3140    8.2570 O.2   311  PHE311     -0.2867
    108  CB        26.6090   86.7070    5.9590 C.3   311  PHE311      0.0534
    109  CG        27.6710   87.4490    5.1500 C.ar  311  PHE311     -0.0203
    110  CD1       28.8130   86.7970    4.6850 C.ar  311  PHE311     -0.0042
    111  CD2       27.4620   88.7770    4.7570 C.ar  311  PHE311     -0.0042
    112  CE1       29.7570   87.4710    3.8730 C.ar  311  PHE311     -0.0003
    113  CE2       28.4240   89.4740    3.9880 C.ar  311  PHE311     -0.0003
    114  CZ        29.5540   88.8320    3.5620 C.ar  311  PHE311     -0.0000
    115  N         31.4650   88.7500    8.8710 N.3   315  GLU315     -0.1245
    116  CA        31.8700   90.1330    8.6460 C.3   315  GLU315      0.1567
    117  C         32.0110   90.9890    9.9120 C.2   315  GLU315      0.2260
    118  O         32.9300   91.7860   10.0520 O.2   315  GLU315     -0.2867
    119  CB        30.9930   90.8160    7.5720 C.3   315  GLU315      0.0388
    120  CG        31.1090   90.0620    6.2570 C.3   315  GLU315      0.1160
    121  CD        32.5420   90.0250    5.6490 C.2   315  GLU315      0.3649
    122  OE1       33.4280   90.8300    5.9640 O.co2 315  GLU315     -0.2457
    123  OE2       32.8160   89.1610    4.8480 O.co2 315  GLU315     -0.2457
    124  N         17.5920   83.8290    3.9490 N.3   366  LEU366     -0.1245
    125  CA        17.8730   83.9110    2.5010 C.3   366  LEU366      0.1561
    126  C         17.0530   83.0000    1.5980 C.2   366  LEU366      0.2260
    127  O         17.3630   82.9000    0.4400 O.2   366  LEU366     -0.2867
    128  CB        19.3370   83.7020    2.2230 C.3   366  LEU366      0.0270
    129  CG        20.1370   84.8940    2.7420 C.3   366  LEU366      0.0019
    130  CD1       21.5950   84.5700    2.6420 C.3   366  LEU366      0.0001
    131  CD2       19.7780   86.1870    2.0160 C.3   366  LEU366      0.0001
    132  N         21.8780   85.8670   -2.5910 N.3   371  PRO371     -0.2102
    133  CA        22.8010   86.5260   -1.6890 C.3   371  PRO371      0.1504
    134  C         23.4570   87.7940   -2.2350 C.2   371  PRO371      0.2575
    135  O         23.7060   88.7020   -1.4470 O.2   371  PRO371     -0.2718
    136  CB        23.8850   85.4590   -1.4550 C.3   371  PRO371      0.0282
    137  CG        23.1500   84.1770   -1.6580 C.3   371  PRO371      0.0208
    138  CD        22.2690   84.4590   -2.8200 C.3   371  PRO371      0.0893
    139  N         23.7170   87.8450   -3.5480 N.am  372  ASP372     -0.1974
    140  CA        24.2980   89.0160   -4.1790 C.3   372  ASP372      0.1708
    141  C         23.4040   90.1840   -4.1070 C.2   372  ASP372      0.2293
    142  O         23.9030   91.3090   -4.0840 O.2   372  ASP372     -0.2864
    143  CB        24.6790   88.7510   -5.6280 C.3   372  ASP372      0.1436
    144  CG        25.8890   87.7960   -5.7570 C.2   372  ASP372      0.3671
    145  OD1       26.7710   87.7440   -4.8430 O.co2 372  ASP372     -0.2456
    146  OD2       25.9510   87.0870   -6.7900 O.co2 372  ASP372     -0.2456
    147  N         23.2760   91.3780   -0.2600 N.3   375  TYR375     -0.1241
    148  CA        24.5380   91.9140    0.1600 C.3   375  TYR375      0.1605
    149  C         24.4810   93.4210    0.4040 C.2   375  TYR375      0.2264
    150  O         24.0570   94.1510   -0.4590 O.2   375  TYR375     -0.2867
    151  CB        25.5820   91.6950   -0.8980 C.3   375  TYR375      0.0534
    152  CG        26.9580   92.1990   -0.4530 C.ar  375  TYR375     -0.0201
    153  CD1       27.7030   91.4940    0.5190 C.ar  375  TYR375     -0.0009
    154  CD2       27.5200   93.4060   -0.9500 C.ar  375  TYR375     -0.0009
    155  CE1       28.9370   91.9650    0.9540 C.ar  375  TYR375      0.0417
    156  CE2       28.7880   93.8340   -0.5510 C.ar  375  TYR375      0.0417
    157  CZ        29.4750   93.1350    0.4300 C.ar  375  TYR375      0.1957
    158  OH        30.7360   93.5340    0.8960 O.3   375  TYR375     -0.2866
    159  N         28.2390   93.8540    8.2120 N.3   380  TYR380     -0.1241
    160  CA        29.4940   94.4830    8.6650 C.3   380  TYR380      0.1605
    161  C         29.2790   95.4370    9.8120 C.2   380  TYR380      0.2264
    162  O         29.9610   95.3420   10.7940 O.2   380  TYR380     -0.2867
    163  CB        30.2030   95.2630    7.5600 C.3   380  TYR380      0.0534
    164  CG        30.5800   94.4860    6.3450 C.ar  380  TYR380     -0.0201
    165  CD1       29.6380   94.1790    5.3840 C.ar  380  TYR380     -0.0009
    166  CD2       31.8960   94.1370    6.1000 C.ar  380  TYR380     -0.0009
    167  CE1       29.9850   93.5040    4.2060 C.ar  380  TYR380      0.0417
    168  CE2       32.2560   93.4540    4.9420 C.ar  380  TYR380      0.0417
    169  CZ        31.2960   93.1200    4.0030 C.ar  380  TYR380      0.1957
    170  OH        31.6260   92.3920    2.8580 O.3   380  TYR380     -0.2866
@<TRIPOS>BOND
     1     1     2    1
     2     5     2    1
     3     5     6    1
     4     4     3    2
     5     2     3    1
     6   146   144   ar
     7     6     7    1
     8   144   143    1
     9   144   145   ar
    10   143   140    1
    11    24    25    1
    12     7     8    2
    13     7     9   am
    14    33    31   ar
    15    33    34   ar
    16    27    26    2
    17    35    34    1
    18    31    29   ar
    19    34    32   ar
    20   140   141    1
    21   140   139    1
    22   141   142    2
    23    25    26    1
    24    25    28    1
    25    13    12    2
    26    10    11    1
    27    26    36   am
    28    29    28    1
    29    29    30   ar
    30   139   134   am
    31    32    30   ar
    32    12    19   am
    33    12    11    1
    34    19    20    1
    35   138   132    1
    36   138   137    1
    37    11    14    1
    38   132   133    1
    39    21    22    2
    40    21    20    1
    41    36    37    1
    42    48    49    1
    43    48    45    1
    44   134   133    1
    45   134   135    2
    46    49    50    1
    47    39    38    2
    48    37    38    1
    49    20    23    1
    50    38    40   am
    51   133   136    1
    52   137   136    1
    53    14    15    1
    54    40    41    1
    55    41    42    1
    56    50    51    1
    57    44    42   am
    58    44    45    1
    59    42    43    2
    60   154   156   ar
    61   154   152   ar
    62    45    46    1
    63   151   152    1
    64   151   148    1
    65    47    46    2
    66   156   157   ar
    67   150   149    2
    68   152   153   ar
    69    46    52   am
    70   147   148    1
    71    15    16    1
    72   148   149    1
    73   157   158    1
    74   157   155   ar
    75   127   126    2
    76   153   155   ar
    77    17    16    2
    78    16    18   am
    79    52    53    1
    80    98    96   ar
    81    98    99   ar
    82    54    53    1
    83    54    55    2
    84   101    99   ar
    85   101   103   ar
    86    96    95   ar
    87    99    97   ar
    88   126   125    1
    89    53    56    1
    90   131   129    1
    91   103   102   ar
    92    79    77   ar
    93   128   125    1
    94   128   129    1
    95    95    97   ar
    96    95    94    1
    97    97   100   ar
    98    77    76    1
    99    77    78   ar
   100    59    58   ar
   101    76    75    1
   102   125   124    1
   103   130   129    1
   104   170   169    1
   105   102   100   ar
   106    94    91    1
   107    58    57    1
   108    58    60   ar
   109    56    57    1
   110    75    72    1
   111   114   112   ar
   112   114   113   ar
   113   112   110   ar
   114   113   111   ar
   115   169   167   ar
   116   169   168   ar
   117   167   165   ar
   118    91    90    1
   119    91    92    1
   120   110   109   ar
   121    72    71    1
   122    72    73    1
   123   111   109   ar
   124   123   121   ar
   125   168   166   ar
   126   109   108    1
   127    92    93    2
   128    68    70   ar
   129    68    66   ar
   130    71    63   am
   131   165   164   ar
   132    87    89   ar
   133    87    85   ar
   134    89    88   ar
   135    73    74    2
   136    70    69   ar
   137   121   122   ar
   138   121   120    1
   139   108   105    1
   140   166   164   ar
   141    66    65    1
   142    66    67   ar
   143    85    84    1
   144    85    86   ar
   145   120   119    1
   146    65    62    1
   147   164   163    1
   148    84    81    1
   149    88    86   ar
   150    63    62    1
   151    63    64    2
   152    69    67   ar
   153    62    61    1
   154   105   104    1
   155   105   106    1
   156   163   160    1
   157   119   116    1
   158    81    82    1
   159    81    80    1
   160    83    82    2
   161   106   107    2
   162   159   160    1
   163   116   115    1
   164   116   117    1
   165   160   161    1
   166   161   162    2
   167   117   118    2
