@<TRIPOS>MOLECULE
tmp/5bpuA00.pdb
 150 148 0 0 0
SMALL
GASTEIGER

@<TRIPOS>ATOM
      1  N         -2.0760    1.0330    3.0580 N.3     8  ARG8       -0.1231
      2  CA        -0.6400    0.7750    3.1080 C.3     8  ARG8        0.1694
      3  C          0.1460    1.9150    2.4710 C.2     8  ARG8        0.2592
      4  O         -0.4260    2.7580    1.7760 O.2     8  ARG8       -0.2718
      5  CB        -0.3060   -0.5390    2.3990 C.3     8  ARG8        0.0321
      6  CG        -0.5210   -0.5030    0.8930 C.3     8  ARG8        0.0489
      7  CD        -0.4300   -1.8900    0.2790 C.3     8  ARG8        0.2205
      8  NE        -0.4300   -1.8300   -1.1800 N.pl3   8  ARG8       -0.0865
      9  CZ        -1.5150   -1.6240   -1.9210 C.cat   8  ARG8        0.5346
     10  NH1       -2.6970   -1.4590   -1.3400 N.pl3   8  ARG8        0.1354
     11  NH2       -1.4200   -1.5830   -3.2430 N.pl3   8  ARG8        0.1354
     12  N          1.4540    1.9350    2.7140 N.am    9  CYS9       -0.1956
     13  CA         2.3390    2.9090    2.0810 C.3     9  CYS9        0.1843
     14  C          2.2210    2.8390    0.5660 C.2     9  CYS9        0.2625
     15  O          2.5230    1.8120   -0.0410 O.2     9  CYS9       -0.2714
     16  CB         3.7960    2.6730    2.4850 C.3     9  CYS9        0.0997
     17  SG         4.9520    3.9120    1.8960 S.3     9  CYS9       -0.0797
     18  N          1.7680    3.9300   -0.0380 N.am   10  MET10      -0.1963
     19  CA         1.7290    4.0460   -1.4900 C.3    10  MET10       0.1736
     20  C          1.7680    5.5090   -1.9030 C.2    10  MET10       0.2616
     21  O          1.6380    6.4060   -1.0680 O.2    10  MET10      -0.2715
     22  CB         0.4800    3.3790   -2.0610 C.3    10  MET10       0.0427
     23  CG        -0.8160    3.8610   -1.4380 C.3    10  MET10       0.0599
     24  SD        -2.2510    2.9600   -2.0500 S.3    10  MET10      -0.1393
     25  CE        -2.2190    3.4600   -3.7630 C.3    10  MET10       0.0692
     26  N          1.9290    5.7380   -3.2020 N.am   11  ARG11      -0.1977
     27  CA         2.0850    7.0800   -3.7390 C.3    11  ARG11       0.1597
     28  C          0.7360    7.6850   -4.1140 C.2    11  ARG11       0.2287
     29  O         -0.1940    6.9680   -4.4840 O.2    11  ARG11      -0.2864
     30  CB         3.0070    7.0480   -4.9590 C.3    11  ARG11       0.0334
     31  CG         3.4240    8.4170   -5.4720 C.3    11  ARG11       0.0492
     32  CD         4.3400    8.2960   -6.6760 C.3    11  ARG11       0.2205
     33  NE         3.6780    7.6290   -7.7950 N.pl3  11  ARG11      -0.0865
     34  CZ         3.9530    7.8490   -9.0780 C.cat  11  ARG11       0.5346
     35  NH1        4.8810    8.7300   -9.4330 N.pl3  11  ARG11       0.1354
     36  NH2        3.2890    7.1860  -10.0150 N.pl3  11  ARG11       0.1354
     37  N         -0.9450   11.2200   -6.2900 N.3    13  HIS13      -0.1241
     38  CA        -0.7440   12.4180   -7.0920 C.3    13  HIS13       0.1621
     39  C         -1.6010   13.5560   -6.5600 C.2    13  HIS13       0.2264
     40  O         -2.6810   13.3330   -6.0130 O.2    13  HIS13      -0.2867
     41  CB        -1.0790   12.1650   -8.5610 C.3    13  HIS13       0.0745
     42  CG        -0.1210   11.2460   -9.2510 C.ar   13  HIS13       0.0817
     43  ND1       -0.3380    9.8870   -9.3560 N.ar   13  HIS13      -0.2268
     44  CD2        1.0570   11.4880   -9.8680 C.ar   13  HIS13       0.1154
     45  CE1        0.6670    9.3360  -10.0120 C.ar   13  HIS13       0.1986
     46  NE2        1.5280   10.2840  -10.3340 N.ar   13  HIS13      -0.2212
     47  N          1.9630   19.2110  -11.3420 N.3    31  LEU31      -0.1245
     48  CA         1.5840   17.8970  -10.8480 C.3    31  LEU31       0.1561
     49  C          2.6740   17.3700   -9.9210 C.2    31  LEU31       0.2260
     50  O          3.8430   17.3010  -10.3050 O.2    31  LEU31      -0.2867
     51  CB         1.3570   16.9300  -12.0110 C.3    31  LEU31       0.0270
     52  CG         1.1650   15.4520  -11.6660 C.3    31  LEU31       0.0019
     53  CD1       -0.2190   15.1930  -11.0900 C.3    31  LEU31       0.0001
     54  CD2        1.4070   14.6110  -12.9020 C.3    31  LEU31       0.0001
     55  N          0.0140    3.3350    6.1080 N.3    38  HIS38      -0.1226
     56  CA         0.3870    2.6750    7.3530 C.3    38  HIS38       0.1752
     57  C          1.2780    1.4870    7.0430 C.2    38  HIS38       0.2596
     58  O          0.8150    0.4750    6.5180 O.2    38  HIS38      -0.2718
     59  CB        -0.8490    2.2090    8.1220 C.3    38  HIS38       0.0759
     60  CG        -1.8440    3.2950    8.3800 C.ar   38  HIS38       0.0818
     61  ND1       -2.6160    3.8490    7.3820 N.ar   38  HIS38      -0.2268
     62  CD2       -2.1970    3.9280    9.5230 C.ar   38  HIS38       0.1154
     63  CE1       -3.4030    4.7750    7.8980 C.ar   38  HIS38       0.1986
     64  NE2       -3.1640    4.8440    9.1990 N.ar   38  HIS38      -0.2212
     65  N          2.5570    1.6160    7.3740 N.am   39  CYS39      -0.1956
     66  CA         3.5150    0.5480    7.1470 C.3    39  CYS39       0.1843
     67  C          3.1180   -0.6840    7.9620 C.2    39  CYS39       0.2626
     68  O          2.5690   -0.5700    9.0610 O.2    39  CYS39      -0.2714
     69  CB         4.9290    1.0230    7.5010 C.3    39  CYS39       0.0997
     70  SG         5.4520    2.4800    6.5420 S.3    39  CYS39      -0.0797
     71  N          3.3960   -1.8630    7.4160 N.am   40  SER40      -0.1936
     72  CA         2.8820   -3.1080    7.9810 C.3    40  SER40       0.2055
     73  C          3.6130   -3.5110    9.2590 C.2    40  SER40       0.2642
     74  O          2.9880   -3.9830   10.2070 O.2    40  SER40      -0.2714
     75  CB         2.9730   -4.2360    6.9480 C.3    40  SER40       0.2130
     76  OG         4.3090   -4.6710    6.7640 O.3    40  SER40      -0.2179
     77  N          4.9290   -3.3260    9.2860 N.am   41  GLN41      -0.1976
     78  CA         5.7090   -3.6860   10.4650 C.3    41  GLN41       0.1601
     79  C          5.3190   -2.7970   11.6390 C.2    41  GLN41       0.2287
     80  O          5.2490   -1.5740   11.5090 O.2    41  GLN41      -0.2864
     81  CB         7.2150   -3.5600   10.2070 C.3    41  GLN41       0.0394
     82  CG         7.7020   -4.1350    8.8880 C.3    41  GLN41       0.0908
     83  CD         7.9880   -3.0570    7.8620 C.2    41  GLN41       0.2608
     84  OE1        7.1770   -2.1550    7.6500 O.2    41  GLN41      -0.2717
     85  NE2        9.1530   -3.1370    7.2270 N.am   41  GLN41      -0.0878
     86  N          8.9830    1.9750   11.1350 N.3    64  HIS64      -0.1241
     87  CA         8.9860    2.1080    9.6840 C.3    64  HIS64       0.1621
     88  C          8.0820    3.2410    9.2310 C.2    64  HIS64       0.2264
     89  O          6.9780    3.4180    9.7440 O.2    64  HIS64      -0.2867
     90  CB         8.5800    0.7920    9.0290 C.3    64  HIS64       0.0745
     91  CG         9.7030   -0.1960    8.9590 C.ar   64  HIS64       0.0817
     92  ND1       10.0530   -0.9980   10.0230 N.ar   64  HIS64      -0.2268
     93  CD2       10.5830   -0.4710    7.9710 C.ar   64  HIS64       0.1154
     94  CE1       11.0870   -1.7470    9.6830 C.ar   64  HIS64       0.1986
     95  NE2       11.4300   -1.4460    8.4420 N.ar   64  HIS64      -0.2212
     96  N         12.2940    6.2040   -4.7390 N.3    70  THR70      -0.1218
     97  CA        12.9170    6.8300   -5.8950 C.3    70  THR70       0.1862
     98  C         12.1710    8.1040   -6.2560 C.2    70  THR70       0.2287
     99  O         10.9550    8.1960   -6.0850 O.2    70  THR70      -0.2866
    100  CB        12.9360    5.8950   -7.1160 C.3    70  THR70       0.1770
    101  OG1       11.5950    5.5360   -7.4700 O.3    70  THR70      -0.2211
    102  CG2       13.7330    4.6390   -6.8120 C.3    70  THR70       0.0375
    103  N         10.1370   15.0400   -7.8890 N.3    92  TYR92      -0.1241
    104  CA         8.9460   14.2890   -8.2510 C.3    92  TYR92       0.1605
    105  C          9.1170   12.8430   -7.8130 C.2    92  TYR92       0.2264
    106  O          9.9460   12.1110   -8.3550 O.2    92  TYR92      -0.2867
    107  CB         8.6900   14.3670   -9.7550 C.3    92  TYR92       0.0534
    108  CG         7.3540   13.8050  -10.1690 C.ar   92  TYR92      -0.0201
    109  CD1        6.1770   14.4670   -9.8500 C.ar   92  TYR92      -0.0009
    110  CD2        7.2650   12.6150  -10.8840 C.ar   92  TYR92      -0.0009
    111  CE1        4.9500   13.9630  -10.2250 C.ar   92  TYR92       0.0417
    112  CE2        6.0390   12.1020  -11.2650 C.ar   92  TYR92       0.0417
    113  CZ         4.8850   12.7830  -10.9320 C.ar   92  TYR92       0.1957
    114  OH         3.6580   12.2890  -11.3020 O.3    92  TYR92      -0.2866
    115  N          8.7220    9.0650   -7.5590 N.3    94  LEU94      -0.1231
    116  CA         8.3910    8.0400   -8.5450 C.3    94  LEU94       0.1693
    117  C          7.7920    6.8050   -7.8890 C.2    94  LEU94       0.2593
    118  O          6.8890    6.1700   -8.4340 O.2    94  LEU94      -0.2718
    119  CB         9.6410    7.6470   -9.3320 C.3    94  LEU94       0.0284
    120  CG        10.3110    8.7590  -10.1400 C.3    94  LEU94       0.0019
    121  CD1       11.5270    8.2060  -10.8710 C.3    94  LEU94       0.0001
    122  CD2        9.3240    9.3870  -11.1140 C.3    94  LEU94       0.0001
    123  N          8.3110    6.4750   -6.7120 N.am   95  SER95      -0.1938
    124  CA         7.8800    5.3010   -5.9680 C.3    95  SER95       0.2055
    125  C          8.0820    5.5580   -4.4840 C.2    95  SER95       0.2643
    126  O          8.9410    6.3530   -4.0900 O.2    95  SER95      -0.2714
    127  CB         8.6570    4.0580   -6.4070 C.3    95  SER95       0.2130
    128  OG        10.0150    4.1470   -6.0130 O.3    95  SER95      -0.2179
    129  N          7.2870    4.8780   -3.6680 N.am   96  CYS96      -0.1953
    130  CA         7.3230    5.0620   -2.2290 C.3    96  CYS96       0.1843
    131  C          7.4970    3.7120   -1.5440 C.2    96  CYS96       0.2625
    132  O          7.0700    2.6870   -2.0720 O.2    96  CYS96      -0.2714
    133  CB         6.0460    5.7460   -1.7500 C.3    96  CYS96       0.0997
    134  SG         6.2520    6.6000   -0.1870 S.3    96  CYS96      -0.0797
    135  N          8.1550    3.7110   -0.4030 N.am   97  HIS97      -0.1959
    136  CA         8.3720    2.5270    0.4030 C.3    97  HIS97       0.1787
    137  C          8.4970    2.7810    1.8990 C.2    97  HIS97       0.2620
    138  O          8.6100    3.8810    2.3370 O.2    97  HIS97      -0.2715
    139  CB         9.5630    1.7350   -0.0760 C.3    97  HIS97       0.0785
    140  CG        10.8700    2.2700    0.3820 C.ar   97  HIS97       0.0821
    141  ND1       11.9970    1.4970    0.4580 N.ar   97  HIS97      -0.2267
    142  CD2       11.2380    3.5040    0.7710 C.ar   97  HIS97       0.1154
    143  CE1       13.0060    2.2340    0.8710 C.ar   97  HIS97       0.1986
    144  NE2       12.5700    3.4570    1.0640 N.ar   97  HIS97      -0.2212
    145  N          8.4120    1.7060    2.6610 N.am   98  CYS98      -0.1968
    146  CA         8.5790    1.7390    4.1030 C.3    98  CYS98       0.1712
    147  C         10.0240    1.5680    4.5330 C.2    98  CYS98       0.2296
    148  O         10.6570    0.5690    4.1950 O.2    98  CYS98      -0.2864
    149  CB         7.7390    0.6280    4.7140 C.3    98  CYS98       0.0983
    150  SG         6.0660    1.0980    5.1770 S.3    98  CYS98      -0.0798
@<TRIPOS>BOND
     1    54    52    1
     2    51    52    1
     3    51    48    1
     4    52    53    1
     5    47    48    1
     6   114   113    1
     7   112   113   ar
     8   112   110   ar
     9   122   120    1
    10   113   111   ar
    11   110   108   ar
    12   121   120    1
    13    48    49    1
    14    46    45   ar
    15    46    44   ar
    16    50    49    2
    17   111   109   ar
    18   108   109   ar
    19   108   107    1
    20   120   119    1
    21    36    34    1
    22    45    43   ar
    23    44    42   ar
    24   107   104    1
    25    35    34    1
    26    43    42   ar
    27   119   116    1
    28    42    41    1
    29    34    33    2
    30    41    38    1
    31   116   117    1
    32   116   115    1
    33   118   117    2
    34   106   105    2
    35   104   103    1
    36   104   105    1
    37   117   123   am
    38    33    32    1
    39   101   100    1
    40   100   102    1
    41   100    97    1
    42    38    39    1
    43    38    37    1
    44   123   124    1
    45    32    31    1
    46    39    40    2
    47   127   128    1
    48   127   124    1
    49    98    99    2
    50    98    97    1
    51   124   125    1
    52    97    96    1
    53    31    30    1
    54    30    27    1
    55    29    28    2
    56   125   126    2
    57   125   129   am
    58    28    27    1
    59    25    24    1
    60    27    26    1
    61   129   130    1
    62    11     9    1
    63    26    20   am
    64   130   133    1
    65   130   131    1
    66   132   131    2
    67    22    19    1
    68    22    23    1
    69    24    23    1
    70     9    10    1
    71     9     8    2
    72    20    19    1
    73    20    21    2
    74   133   134    1
    75   131   135   am
    76    19    18    1
    77     8     7    1
    78   135   136    1
    79   139   140    1
    80   139   136    1
    81    15    14    2
    82    18    14   am
    83     7     6    1
    84   140   141   ar
    85   140   142   ar
    86   136   137    1
    87   141   143   ar
    88    14    13    1
    89   142   144   ar
    90   143   144   ar
    91     6     5    1
    92     4     3    2
    93    17    16    1
    94   137   138    2
    95   137   145   am
    96    13    16    1
    97    13    12    1
    98     5     2    1
    99     3    12   am
   100     3     2    1
   101   145   146    1
   102     1     2    1
   103   146   147    1
   104   146   149    1
   105   148   147    2
   106   149   150    1
   107   150    70    1
   108    55    56    1
   109    58    57    2
   110    70    69    1
   111    76    75    1
   112    75    72    1
   113    57    56    1
   114    57    65   am
   115    66    65    1
   116    66    69    1
   117    66    67    1
   118    85    83   am
   119    56    59    1
   120    61    63   ar
   121    61    60   ar
   122    71    67   am
   123    71    72    1
   124    84    83    2
   125    83    82    1
   126    63    64   ar
   127    67    68    2
   128    93    95   ar
   129    93    91   ar
   130    72    73    1
   131    59    60    1
   132    60    62   ar
   133    95    94   ar
   134    82    81    1
   135    91    90    1
   136    91    92   ar
   137    90    87    1
   138    64    62   ar
   139    88    87    1
   140    88    89    2
   141    73    77   am
   142    73    74    2
   143    77    78    1
   144    94    92   ar
   145    87    86    1
   146    81    78    1
   147    78    79    1
   148    80    79    2
