@<TRIPOS>MOLECULE
tmp/5bpuE00.pdb
 113 110 0 0 0
SMALL
GASTEIGER

@<TRIPOS>ATOM
      1  N         -9.7440    3.4830  -43.0240 N.3     5  ARG5       -0.1231
      2  CA        -8.6420    2.5710  -43.2890 C.3     5  ARG5        0.1694
      3  C         -9.0160    1.1990  -42.7520 C.2     5  ARG5        0.2592
      4  O         -9.9800    1.0650  -41.9980 O.2     5  ARG5       -0.2718
      5  CB        -7.3530    3.0660  -42.6330 C.3     5  ARG5        0.0321
      6  CG        -7.3870    3.0100  -41.1120 C.3     5  ARG5        0.0489
      7  CD        -6.2630    3.8170  -40.4810 C.3     5  ARG5        0.2205
      8  NE        -6.1320    3.5340  -39.0540 N.pl3   5  ARG5       -0.0865
      9  CZ        -6.9600    3.9840  -38.1150 C.cat   5  ARG5        0.5346
     10  NH1       -7.9970    4.7460  -38.4390 N.pl3   5  ARG5        0.1354
     11  NH2       -6.7520    3.6670  -36.8440 N.pl3   5  ARG5        0.1354
     12  N         -8.2570    0.1810  -43.1390 N.am    6  CYS6       -0.1956
     13  CA        -8.4840   -1.1630  -42.6240 C.3     6  CYS6        0.1843
     14  C         -8.3160   -1.1990  -41.1070 C.2     6  CYS6        0.2625
     15  O         -7.2050   -1.0750  -40.5890 O.2     6  CYS6       -0.2714
     16  CB        -7.5310   -2.1540  -43.2860 C.3     6  CYS6        0.0997
     17  SG        -7.6930   -3.8520  -42.6960 S.3     6  CYS6       -0.0797
     18  N         -9.4360   -1.3640  -40.4100 N.am    7  MET7       -0.1963
     19  CA        -9.4620   -1.3940  -38.9510 C.3     7  MET7        0.1736
     20  C        -10.2300   -2.6030  -38.4500 C.2     7  MET7        0.2616
     21  O        -11.0420   -3.1750  -39.1770 O.2     7  MET7       -0.2715
     22  CB       -10.1090   -0.1240  -38.3970 C.3     7  MET7        0.0427
     23  CG        -9.1340    0.9780  -38.0450 C.3     7  MET7        0.0599
     24  SD        -9.9750    2.4720  -37.4770 S.3     7  MET7       -0.1393
     25  CE       -10.7570    1.8920  -35.9700 C.3     7  MET7        0.0692
     26  N         -9.9720   -2.9850  -37.2030 N.am    8  ARG8       -0.1977
     27  CA       -10.7850   -3.9890  -36.5350 C.3     8  ARG8        0.1597
     28  C        -11.9310   -3.2930  -35.8170 C.2     8  ARG8        0.2287
     29  O        -11.7600   -2.2080  -35.2600 O.2     8  ARG8       -0.2864
     30  CB        -9.9550   -4.8090  -35.5490 C.3     8  ARG8        0.0334
     31  CG       -10.6720   -6.0460  -35.0320 C.3     8  ARG8        0.0492
     32  CD        -9.6920   -7.0090  -34.3960 C.3     8  ARG8        0.2205
     33  NE        -8.9760   -6.3950  -33.2790 N.pl3   8  ARG8       -0.0865
     34  CZ        -9.2260   -6.6180  -31.9910 C.cat   8  ARG8        0.5346
     35  NH1      -10.1780   -7.4610  -31.6090 N.pl3   8  ARG8        0.1354
     36  NH2       -8.5060   -5.9940  -31.0710 N.pl3   8  ARG8        0.1354
     37  N         -5.4430    0.9760  -49.5310 N.3    37  SER37      -0.1202
     38  CA        -5.0340    1.9840  -50.4960 C.3    37  SER37       0.2020
     39  C         -4.2500    1.4170  -51.6720 C.2    37  SER37       0.2618
     40  O         -3.9600    2.1320  -52.6300 O.2    37  SER37      -0.2717
     41  CB        -4.2010    3.0510  -49.7860 C.3    37  SER37       0.2103
     42  OG        -3.0230    2.4890  -49.2350 O.3    37  SER37      -0.2182
     43  N         -3.9120    0.1350  -51.6060 N.am   38  GLN38      -0.1979
     44  CA        -3.1490   -0.4930  -52.6730 C.3    38  GLN38       0.1601
     45  C         -4.0420   -0.6700  -53.8930 C.2    38  GLN38       0.2287
     46  O         -5.1540   -1.1910  -53.7910 O.2    38  GLN38      -0.2864
     47  CB        -2.5810   -1.8450  -52.2290 C.3    38  GLN38       0.0394
     48  CG        -1.6900   -1.7940  -50.9870 C.3    38  GLN38       0.0908
     49  CD        -2.4810   -1.7370  -49.6910 C.2    38  GLN38       0.2608
     50  OE1       -3.6700   -1.4250  -49.6910 O.2    38  GLN38      -0.2717
     51  NE2       -1.8220   -2.0410  -48.5790 N.am   38  GLN38      -0.0878
     52  N         -5.6100   -5.9940  -52.7190 N.3    61  HIS61      -0.1241
     53  CA        -5.5060   -5.9270  -51.2680 C.3    61  HIS61       0.1621
     54  C         -6.8830   -5.7990  -50.6190 C.2    61  HIS61       0.2264
     55  O         -7.6900   -4.9510  -51.0020 O.2    61  HIS61      -0.2867
     56  CB        -4.5960   -4.7670  -50.8680 C.3    61  HIS61       0.0745
     57  CG        -3.1420   -5.1060  -50.9170 C.ar   61  HIS61       0.0817
     58  ND1       -2.5190   -5.5570  -52.0610 N.ar   61  HIS61      -0.2268
     59  CD2       -2.1870   -5.0800  -49.9560 C.ar   61  HIS61       0.1154
     60  CE1       -1.2440   -5.7840  -51.8060 C.ar   61  HIS61       0.1986
     61  NE2       -1.0170   -5.5020  -50.5360 N.ar   61  HIS61      -0.2212
     62  N         -5.4150  -10.7750  -39.7280 N.3    66  GLN66      -0.1231
     63  CA        -3.9930  -11.0840  -39.7350 C.3    66  GLN66       0.1698
     64  C         -3.7350  -12.2480  -38.7940 C.2    66  GLN66       0.2592
     65  O         -3.0000  -13.1820  -39.1150 O.2    66  GLN66      -0.2718
     66  CB        -3.1730   -9.8710  -39.3130 C.3    66  GLN66       0.0381
     67  CG        -1.7300   -9.9690  -39.7130 C.3    66  GLN66       0.0905
     68  CD        -0.9850   -8.6780  -39.4940 C.2    66  GLN66       0.2608
     69  OE1       -1.4830   -7.7540  -38.8460 O.2    66  GLN66      -0.2717
     70  NE2        0.2180   -8.6030  -40.0410 N.am   66  GLN66      -0.0878
     71  N         -4.3610  -12.1680  -37.6260 N.am   67  THR67      -0.1953
     72  CA        -4.2920  -13.2150  -36.6200 C.3    67  THR67       0.1897
     73  C         -5.6780  -13.4200  -36.0260 C.2    67  THR67       0.2313
     74  O         -6.4030  -12.4550  -35.7820 O.2    67  THR67      -0.2863
     75  CB        -3.3000  -12.8660  -35.4920 C.3    67  THR67       0.1794
     76  OG1       -3.6910  -11.6350  -34.8700 O.3    67  THR67      -0.2208
     77  CG2       -1.8850  -12.7290  -36.0350 C.3    67  THR67       0.0378
     78  N         -8.2510  -11.1220  -33.9720 N.3    91  LEU91      -0.1231
     79  CA        -7.4110  -10.3970  -33.0290 C.3    91  LEU91       0.1693
     80  C         -6.8750   -9.1190  -33.6510 C.2    91  LEU91       0.2593
     81  O         -6.8180   -8.0790  -32.9970 O.2    91  LEU91      -0.2718
     82  CB        -6.2600  -11.2880  -32.5650 C.3    91  LEU91       0.0284
     83  CG        -6.7190  -12.5410  -31.8180 C.3    91  LEU91       0.0019
     84  CD1       -5.7090  -13.6700  -31.9610 C.3    91  LEU91       0.0001
     85  CD2       -6.9670  -12.2130  -30.3540 C.3    91  LEU91       0.0001
     86  N         -6.4880   -9.2070  -34.9180 N.am   92  SER92      -0.1938
     87  CA        -5.9880   -8.0580  -35.6570 C.3    92  SER92       0.2055
     88  C         -6.3610   -8.1960  -37.1240 C.2    92  SER92       0.2643
     89  O         -6.6230   -9.2990  -37.6110 O.2    92  SER92      -0.2714
     90  CB        -4.4710   -7.9220  -35.5030 C.3    92  SER92       0.2130
     91  OG        -3.8030   -9.0890  -35.9530 O.3    92  SER92      -0.2179
     92  N         -6.3900   -7.0660  -37.8210 N.am   93  CYS93      -0.1953
     93  CA        -6.7120   -7.0480  -39.2380 C.3    93  CYS93       0.1843
     94  C         -5.8050   -6.1100  -40.0170 C.2    93  CYS93       0.2625
     95  O         -5.3420   -5.0890  -39.5060 O.2    93  CYS93      -0.2714
     96  CB        -8.1640   -6.6460  -39.4480 C.3    93  CYS93       0.0997
     97  SG        -9.2510   -8.0550  -39.8090 S.3    93  CYS93      -0.0797
     98  N         -5.5710   -6.4730  -41.2690 N.am   94  HIS94      -0.1959
     99  CA        -4.6870   -5.7260  -42.1390 C.3    94  HIS94       0.1787
    100  C         -5.1380   -5.9520  -43.5680 C.2    94  HIS94       0.2620
    101  O         -5.8960   -6.8830  -43.8420 O.2    94  HIS94      -0.2715
    102  CB        -3.2370   -6.1750  -41.9510 C.3    94  HIS94       0.0785
    103  CG        -2.9610   -7.5510  -42.4650 C.ar   94  HIS94       0.0821
    104  ND1       -1.7170   -7.9570  -42.8920 N.ar   94  HIS94      -0.2267
    105  CD2       -3.7760   -8.6290  -42.6240 C.ar   94  HIS94       0.1154
    106  CE1       -1.7690   -9.2140  -43.2940 C.ar   94  HIS94       0.1986
    107  NE2       -3.0160   -9.6420  -43.1390 N.ar   94  HIS94      -0.2212
    108  N         -4.6780   -5.1100  -44.4820 N.am   95  CYS95      -0.1968
    109  CA        -4.9730   -5.3280  -45.8880 C.3    95  CYS95       0.1712
    110  C         -4.0000   -6.3550  -46.4390 C.2    95  CYS95       0.2296
    111  O         -2.7920   -6.2400  -46.2320 O.2    95  CYS95      -0.2864
    112  CB        -4.8810   -4.0370  -46.6900 C.3    95  CYS95       0.0983
    113  SG        -6.1840   -3.9360  -47.9420 S.3    95  CYS95      -0.0798
@<TRIPOS>BOND
     1    45    46    2
     2    45    44    1
     3    52    53    1
     4    44    47    1
     5    44    43    1
     6    40    39    2
     7    47    48    1
     8    58    60   ar
     9    58    57   ar
    10    60    61   ar
    11    39    43   am
    12    39    38    1
    13    53    56    1
    14    53    54    1
    15    55    54    2
    16    48    49    1
    17    57    56    1
    18    57    59   ar
    19    61    59   ar
    20    38    41    1
    21    38    37    1
    22    41    42    1
    23    49    50    2
    24    49    51   am
    25   113   112    1
    26   112   109    1
    27   110   111    2
    28   110   109    1
    29   109   108    1
    30   108   100   am
    31   101   100    2
    32   100    99    1
    33   106   107   ar
    34   106   104   ar
    35     2     1    1
    36     2     3    1
    37     2     5    1
    38    16    17    1
    39    16    13    1
    40   107   105   ar
    41    12     3   am
    42    12    13    1
    43   104   103   ar
    44     3     4    2
    45     5     6    1
    46    13    14    1
    47   105   103   ar
    48   103   102    1
    49    99   102    1
    50    99    98    1
    51    98    94   am
    52     6     7    1
    53    14    15    2
    54    14    18   am
    55     7     8    1
    56    18    19    1
    57    70    68   am
    58    94    95    2
    59    94    93    1
    60    97    96    1
    61    63    62    1
    62    63    66    1
    63    63    64    1
    64    67    68    1
    65    67    66    1
    66    68    69    2
    67    96    93    1
    68    93    92    1
    69    21    20    2
    70    65    64    2
    71     8     9    2
    72    19    20    1
    73    19    22    1
    74    64    71   am
    75    20    26   am
    76    10     9    1
    77    22    23    1
    78     9    11    1
    79    23    24    1
    80    92    88   am
    81    71    72    1
    82    89    88    2
    83    24    25    1
    84    26    27    1
    85    88    87    1
    86    72    73    1
    87    72    75    1
    88    27    28    1
    89    27    30    1
    90    77    75    1
    91    73    74    2
    92    91    90    1
    93    28    29    2
    94    87    90    1
    95    87    86    1
    96    30    31    1
    97    75    76    1
    98    31    32    1
    99    86    80   am
   100    32    33    1
   101    78    79    1
   102    80    79    1
   103    80    81    2
   104    33    34    2
   105    79    82    1
   106    82    83    1
   107    34    35    1
   108    34    36    1
   109    84    83    1
   110    83    85    1
