@<TRIPOS>MOLECULE
tmp/5bpyA00.pdb
 175 165 0 0 0
SMALL
GASTEIGER

@<TRIPOS>ATOM
      1  N         11.2500   19.5930    9.3780 N.3    12  LYS12      -0.1245
      2  CA        10.2080   18.9560    8.5720 C.3    12  LYS12       0.1561
      3  C         10.2630   17.4340    8.5600 C.2    12  LYS12       0.2260
      4  O         11.3350   16.8500    8.7020 O.2    12  LYS12      -0.2867
      5  CB        10.2690   19.4790    7.1310 C.3    12  LYS12       0.0271
      6  CG        11.5220   19.1590    6.3940 C.3    12  LYS12       0.0035
      7  CD        11.3430   19.4860    4.9080 C.3    12  LYS12       0.0206
      8  CE        12.6970   19.3420    4.2670 C.3    12  LYS12       0.1093
      9  NZ        12.5120   19.4630    2.8010 N.3    12  LYS12      -0.1314
     10  N         10.0590   13.9340    6.6450 N.3    14  LEU14      -0.1231
     11  CA        10.3840   13.4700    5.3030 C.3    14  LEU14       0.1693
     12  C          9.4090   12.3860    4.9040 C.2    14  LEU14       0.2593
     13  O          9.0370   12.2980    3.7320 O.2    14  LEU14      -0.2718
     14  CB        11.8500   12.9870    5.2120 C.3    14  LEU14       0.0284
     15  CG        12.9150   14.0780    5.3480 C.3    14  LEU14       0.0019
     16  CD1       14.3020   13.4790    5.5510 C.3    14  LEU14       0.0001
     17  CD2       12.9010   15.0350    4.1410 C.3    14  LEU14       0.0001
     18  N          8.9580   11.6160    5.8920 N.am   15  GLY15      -0.1942
     19  CA         8.0150   10.5290    5.6830 C.3    15  GLY15       0.2014
     20  C          8.1090    9.4610    6.7420 C.2    15  GLY15       0.2640
     21  O          8.5720    9.7230    7.8620 O.2    15  GLY15      -0.2714
     22  N          7.6630    8.2520    6.3920 N.am   16  THR16      -0.1936
     23  CA         7.6700    7.1180    7.3060 C.3    16  THR16       0.2028
     24  C          8.5620    5.9800    6.7910 C.2    16  THR16       0.2642
     25  O          8.5030    5.6130    5.6140 O.2    16  THR16      -0.2714
     26  CB         6.2320    6.6840    7.6230 C.3    16  THR16       0.1808
     27  OG1        5.5240    7.8250    8.0950 O.3    16  THR16      -0.2208
     28  CG2        6.1580    5.6060    8.6880 C.3    16  THR16       0.0379
     29  N          9.3780    5.4620    7.6990 N.am   17  GLY17      -0.1954
     30  CA        10.2510    4.3230    7.4900 C.3    17  GLY17       0.1869
     31  C          9.6900    3.1140    8.2160 C.2    17  GLY17       0.2309
     32  O          8.5530    3.1480    8.7140 O.2    17  GLY17      -0.2863
     33  N         10.7170    9.6690    9.8010 N.3    22  VAL22      -0.1245
     34  CA        12.0070   10.1670    9.3500 C.3    22  VAL22       0.1561
     35  C         11.8570   11.6820    9.2010 C.2    22  VAL22       0.2260
     36  O         10.9210   12.1610    8.5660 O.2    22  VAL22      -0.2867
     37  CB        12.5050    9.4820    8.0370 C.3    22  VAL22       0.0252
     38  CG1       13.8980    9.9760    7.6560 C.3    22  VAL22       0.0019
     39  CG2       12.4930    7.9500    8.1640 C.3    22  VAL22       0.0019
     40  N         19.2450   13.1880    7.7770 N.3    34  ALA34      -0.1245
     41  CA        17.9910   12.4730    7.8770 C.3    34  ALA34       0.1562
     42  C         18.0470   11.8630    9.2960 C.2    34  ALA34       0.2260
     43  O         19.0380   11.2380    9.6730 O.2    34  ALA34      -0.2867
     44  CB        17.8950   11.3810    6.8200 C.3    34  ALA34       0.0290
     45  N         16.2120    9.4100   11.6870 N.3    36  LYS36      -0.1245
     46  CA        15.2420    8.3220   11.6990 C.3    36  LYS36       0.1561
     47  C         14.8160    8.0180   13.1450 C.2    36  LYS36       0.2260
     48  O         15.6400    7.5980   13.9530 O.2    36  LYS36      -0.2867
     49  CB        15.8380    7.0660   11.0220 C.3    36  LYS36       0.0271
     50  CG        16.5470    7.3120    9.6720 C.3    36  LYS36       0.0035
     51  CD        17.2800    6.0430    9.2470 C.3    36  LYS36       0.0206
     52  CE        17.4230    5.8720    7.7570 C.3    36  LYS36       0.1093
     53  NZ        16.1360    5.5300    7.0920 N.3    36  LYS36      -0.1314
     54  N         24.1170    5.1090    1.3930 N.3    64  VAL64      -0.1245
     55  CA        23.6430    6.2240    2.2330 C.3    64  VAL64       0.1561
     56  C         24.4540    6.1370    3.5550 C.2    64  VAL64       0.2260
     57  O         24.4010    5.1270    4.2520 O.2    64  VAL64      -0.2867
     58  CB        22.1140    6.2260    2.4670 C.3    64  VAL64       0.0252
     59  CG1       21.6990    7.3790    3.3790 C.3    64  VAL64       0.0019
     60  CG2       21.3510    6.2980    1.1400 C.3    64  VAL64       0.0019
     61  N         21.5630    9.9680    9.4440 N.3    80  THR80      -0.1203
     62  CA        22.1710    9.5980    8.1690 C.3    80  THR80       0.1994
     63  C         22.3680   10.7580    7.1970 C.2    80  THR80       0.2618
     64  O         21.9540   11.8820    7.4510 O.2    80  THR80      -0.2717
     65  CB        21.3980    8.4550    7.4730 C.3    80  THR80       0.1784
     66  OG1       20.2540    8.9830    6.7910 O.3    80  THR80      -0.2211
     67  CG2       21.0390    7.2870    8.4080 C.3    80  THR80       0.0376
     68  N         23.0190   10.4560    6.0780 N.am   81  GLU81      -0.1965
     69  CA        23.2330   11.3440    4.9490 C.3    81  GLU81       0.1733
     70  C         21.8450   11.7160    4.3780 C.2    81  GLU81       0.2616
     71  O         20.9710   10.8580    4.2450 O.2    81  GLU81      -0.2715
     72  CB        24.0750   10.5990    3.9110 C.3    81  GLU81       0.0429
     73  CG        24.3580   11.3300    2.6050 C.3    81  GLU81       0.1163
     74  CD        25.1060   10.4900    1.5900 C.2    81  GLU81       0.3649
     75  OE1       25.3260   10.9790    0.4610 O.co2  81  GLU81      -0.2457
     76  OE2       25.5240    9.3640    1.9410 O.co2  81  GLU81      -0.2457
     77  N         21.6420   12.9990    4.1000 N.am   82  TYR82      -0.1960
     78  CA        20.3900   13.5290    3.5630 C.3    82  TYR82       0.1771
     79  C         20.3410   13.3430    2.0340 C.2    82  TYR82       0.2619
     80  O         21.2770   13.7180    1.3380 O.2    82  TYR82      -0.2715
     81  CB        20.2490   15.0100    3.9610 C.3    82  TYR82       0.0574
     82  CG        19.0660   15.6850    3.3220 C.ar   82  TYR82      -0.0198
     83  CD1       17.7690   15.3560    3.6940 C.ar   82  TYR82      -0.0009
     84  CD2       19.2410   16.6370    2.3260 C.ar   82  TYR82      -0.0009
     85  CE1       16.6730   15.9540    3.0860 C.ar   82  TYR82       0.0417
     86  CE2       18.1540   17.2610    1.7310 C.ar   82  TYR82       0.0417
     87  CZ        16.8730   16.9060    2.1060 C.ar   82  TYR82       0.1957
     88  OH        15.8110   17.4910    1.4950 O.3    82  TYR82      -0.2866
     89  N         19.2520   12.7580    1.5210 N.am   83  MET83      -0.1963
     90  CA        19.0630   12.4650    0.0970 C.3    83  MET83       0.1736
     91  C         17.8750   13.2770   -0.4240 C.2    83  MET83       0.2616
     92  O         16.7320   12.8330   -0.3270 O.2    83  MET83      -0.2715
     93  CB        18.8940   10.9510   -0.0940 C.3    83  MET83       0.0427
     94  CG        20.0970   10.1270    0.4490 C.3    83  MET83       0.0599
     95  SD        21.6040   10.2430   -0.5550 S.3    83  MET83      -0.1393
     96  CE        21.0870    9.3980   -2.0160 C.3    83  MET83       0.0692
     97  N         18.1600   14.5010   -0.9220 N.am   84  ALA84      -0.1963
     98  CA        17.1870   15.5290   -1.3200 C.3    84  ALA84       0.1728
     99  C         16.0770   15.0830   -2.2800 C.2    84  ALA84       0.2616
    100  O         15.0100   15.6850   -2.2240 O.2    84  ALA84      -0.2715
    101  CB        17.9000   16.7490   -1.8800 C.3    84  ALA84       0.0334
    102  N         16.2880   14.0520   -3.1380 N.am   85  ASN85      -0.1958
    103  CA        15.2180   13.6090   -4.0570 C.3    85  ASN85       0.1819
    104  C         14.3880   12.4330   -3.5170 C.2    85  ASN85       0.2622
    105  O         13.4720   11.9440   -4.1990 O.2    85  ASN85      -0.2715
    106  CB        15.7570   13.3170   -5.4560 C.3    85  ASN85       0.1195
    107  CG        15.8600   14.5410   -6.3340 C.2    85  ASN85       0.2630
    108  OD1       16.9490   14.8980   -6.7820 O.2    85  ASN85      -0.2716
    109  ND2       14.7500   15.2130   -6.6360 N.am   85  ASN85      -0.0877
    110  N         14.7050   12.0070   -2.2990 N.am   86  GLY86      -0.1940
    111  CA        14.0080   10.9360   -1.6030 C.3    86  GLY86       0.2014
    112  C         14.0580    9.5870   -2.2640 C.2    86  GLY86       0.2639
    113  O         14.9860    9.2650   -2.9990 O.2    86  GLY86      -0.2714
    114  N         13.0520    8.7860   -1.9380 N.am   87  CYS87      -0.1967
    115  CA        12.7550    7.4240   -2.3510 C.3    87  CYS87       0.1712
    116  C         12.9310    7.1820   -3.8930 C.2    87  CYS87       0.2296
    117  O         12.3490    7.9180   -4.6990 O.2    87  CYS87      -0.2864
    118  CB        11.3310    7.1320   -1.8900 C.3    87  CYS87       0.0983
    119  SG        10.7040    5.5190   -2.3490 S.3    87  CYS87      -0.0798
    120  N          9.3940    6.3000   -5.8650 N.3    90  ASN90      -0.1225
    121  CA         8.5980    7.4840   -6.1390 C.3    90  ASN90       0.1785
    122  C          9.2520    8.3060   -7.2420 C.2    90  ASN90       0.2597
    123  O          8.5530    8.8820   -8.0630 O.2    90  ASN90      -0.2718
    124  CB         8.4340    8.3260   -4.8720 C.3    90  ASN90       0.1169
    125  CG         7.2030    7.9560   -4.0740 C.2    90  ASN90       0.2627
    126  OD1        6.2200    7.3950   -4.6030 O.2    90  ASN90      -0.2716
    127  ND2        7.2400    8.2550   -2.7910 N.am   90  ASN90      -0.0877
    128  N         10.5940    8.3460   -7.2770 N.am   91  TYR91      -0.1976
    129  CA        11.3710    9.0860   -8.2710 C.3    91  TYR91       0.1639
    130  C         11.1830    8.4860   -9.6840 C.2    91  TYR91       0.2290
    131  O         11.0610    9.2360  -10.6660 O.2    91  TYR91      -0.2864
    132  CB        12.8310    9.0990   -7.8330 C.3    91  TYR91       0.0560
    133  CG        13.7670    9.9190   -8.6820 C.ar   91  TYR91      -0.0198
    134  CD1       13.8610   11.2950   -8.5160 C.ar   91  TYR91      -0.0009
    135  CD2       14.6610    9.3040   -9.5600 C.ar   91  TYR91      -0.0009
    136  CE1       14.7650   12.0550   -9.2650 C.ar   91  TYR91       0.0417
    137  CE2       15.5920   10.0490  -10.2880 C.ar   91  TYR91       0.0417
    138  CZ        15.6370   11.4240  -10.1390 C.ar   91  TYR91       0.1957
    139  OH        16.5460   12.1550  -10.8550 O.3    91  TYR91      -0.2866
    140  N          7.5420    9.3730  -10.9490 N.3    94  GLU94      -0.1245
    141  CA         7.3000   10.7900  -11.2020 C.3    94  GLU94       0.1567
    142  C          7.3270   11.0820  -12.6920 C.2    94  GLU94       0.2260
    143  O          8.3930   11.0970  -13.3250 O.2    94  GLU94      -0.2867
    144  CB         8.2600   11.6880  -10.3920 C.3    94  GLU94       0.0388
    145  CG         8.1580   13.1820  -10.6690 C.3    94  GLU94       0.1160
    146  CD         6.8810   13.8560  -10.2100 C.2    94  GLU94       0.3649
    147  OE1        6.9180   14.5550   -9.1710 O.co2  94  GLU94      -0.2457
    148  OE2        5.8470   13.7040  -10.8990 O.co2  94  GLU94      -0.2457
    149  N         12.1770    0.9300   -3.1290 N.3   131  ARG131     -0.1245
    150  CA        11.6260    1.6330   -1.9500 C.3   131  ARG131      0.1563
    151  C         12.7150    1.8580   -0.8500 C.2   131  ARG131      0.2260
    152  O         12.5530    2.7480   -0.0240 O.2   131  ARG131     -0.2867
    153  CB        10.4060    0.8780   -1.3640 C.3   131  ARG131      0.0307
    154  CG        10.7900   -0.4520   -0.7380 C.3   131  ARG131      0.0489
    155  CD         9.6770   -1.1780   -0.0020 C.3   131  ARG131      0.2205
    156  NE        10.1460   -2.5110    0.3860 N.pl3 131  ARG131     -0.0865
    157  CZ        10.1610   -3.5560   -0.4300 C.cat 131  ARG131      0.5346
    158  NH1        9.7000   -3.4460   -1.6680 N.pl3 131  ARG131      0.1354
    159  NH2       10.6460   -4.7150   -0.0210 N.pl3 131  ARG131      0.1354
    160  N         17.5990    5.5590   -2.2680 N.3   134  LEU134     -0.1245
    161  CA        17.3530    6.9870   -2.1870 C.3   134  LEU134      0.1561
    162  C         18.1230    7.7170   -3.2840 C.2   134  LEU134      0.2260
    163  O         19.0810    7.1770   -3.8340 O.2   134  LEU134     -0.2867
    164  CB        17.6990    7.5120   -0.7740 C.3   134  LEU134      0.0270
    165  CG        16.7920    7.0470    0.3880 C.3   134  LEU134      0.0019
    166  CD1       17.5070    7.1650    1.7190 C.3   134  LEU134      0.0001
    167  CD2       15.4530    7.8080    0.4140 C.3   134  LEU134      0.0001
    168  N         19.1980    1.5990    4.3730 N.3   145  ASP145     -0.1239
    169  CA        18.6870    0.6050    5.3430 C.3   145  ASP145      0.1674
    170  C         19.2780   -0.8020    5.1810 C.2   145  ASP145      0.2266
    171  O         18.5700   -1.7940    5.3530 O.2   145  ASP145     -0.2867
    172  CB        17.1460    0.5570    5.3270 C.3   145  ASP145      0.1410
    173  CG        16.4620    1.8940    5.5430 C.2   145  ASP145      0.3668
    174  OD1       16.9750    2.7020    6.3590 O.co2 145  ASP145     -0.2456
    175  OD2       15.4000    2.1230    4.9150 O.co2 145  ASP145     -0.2456
@<TRIPOS>BOND
     1   143   142    2
     2   142   141    1
     3   141   140    1
     4   141   144    1
     5   148   146   ar
     6   139   138    1
     7   145   144    1
     8   145   146    1
     9   131   130    2
    10   137   138   ar
    11   137   135   ar
    12   146   147   ar
    13   138   136   ar
    14   130   129    1
    15   135   133   ar
    16   136   134   ar
    17   133   134   ar
    18   133   132    1
    19   129   132    1
    20   129   128    1
    21   123   122    2
    22   128   122   am
    23   122   121    1
    24   108   107    2
    25   109   107   am
    26   107   106    1
    27   121   120    1
    28   121   124    1
    29   106   103    1
    30   124   125    1
    31   117   116    2
    32   126   125    2
    33   105   104    2
    34   125   127   am
    35   103   104    1
    36   103   102    1
    37   116   115    1
    38   163   162    2
    39   104   110   am
    40   162   161    1
    41   102    99   am
    42   149   150    1
    43   113   112    2
    44   115   114    1
    45   115   118    1
    46   119   118    1
    47   110   111    1
    48    99   100    2
    49    99    98    1
    50   160   161    1
    51   112   114   am
    52   112   111    1
    53   161   164    1
    54    96    95    1
    55   150   153    1
    56   150   151    1
    57   101    98    1
    58   158   157    1
    59   153   154    1
    60    98    97    1
    61    97    91   am
    62   151   152    2
    63   164   165    1
    64   154   155    1
    65    95    94    1
    66   157   159    1
    67   157   156    2
    68    91    92    2
    69    91    90    1
    70    93    90    1
    71    93    94    1
    72   155   156    1
    73    90    89    1
    74   165   167    1
    75   165   166    1
    76    75    74   ar
    77    60    58    1
    78    80    79    2
    79    54    55    1
    80    88    87    1
    81    89    79   am
    82    74    76   ar
    83    74    73    1
    84    86    87   ar
    85    86    84   ar
    86    79    78    1
    87    87    85   ar
    88    55    58    1
    89    55    56    1
    90    84    82   ar
    91    58    59    1
    92    73    72    1
    93     9     8    1
    94    85    83   ar
    95    82    83   ar
    96    82    81    1
    97    56    57    2
    98    78    81    1
    99    78    77    1
   100    13    12    2
   101    72    69    1
   102    77    70   am
   103    17    15    1
   104    71    70    2
   105     8     7    1
   106   168   169    1
   107    70    69    1
   108    12    11    1
   109    12    18   am
   110     7     6    1
   111   175   173   ar
   112    69    68    1
   113   170   169    1
   114   170   171    2
   115    14    11    1
   116    14    15    1
   117    11    10    1
   118   172   169    1
   119   172   173    1
   120    15    16    1
   121   173   174   ar
   122    25    24    2
   123    19    18    1
   124    19    20    1
   125    68    63   am
   126    22    20   am
   127    22    23    1
   128     6     5    1
   129    20    21    2
   130    24    23    1
   131    24    29   am
   132    66    65    1
   133    44    41    1
   134    53    52    1
   135     5     2    1
   136    63    64    2
   137    63    62    1
   138    23    26    1
   139    65    62    1
   140    65    67    1
   141    30    29    1
   142    30    31    1
   143    26    27    1
   144    26    28    1
   145    38    37    1
   146    52    51    1
   147    40    41    1
   148    41    42    1
   149    37    39    1
   150    37    34    1
   151    62    61    1
   152    31    32    2
   153     3     2    1
   154     3     4    2
   155    36    35    2
   156     2     1    1
   157    35    34    1
   158    51    50    1
   159    42    43    2
   160    34    33    1
   161    50    49    1
   162    49    46    1
   163    45    46    1
   164    46    47    1
   165    47    48    2
