@<TRIPOS>MOLECULE
tmp/5bq0A00.pdb
 166 155 0 0 0
SMALL
GASTEIGER

@<TRIPOS>ATOM
      1  N        -24.1890   -4.5890    2.6250 N.3    18  LYS18      -0.1245
      2  CA       -25.2200   -3.6440    3.0690 C.3    18  LYS18       0.1561
      3  C        -25.5540   -2.5840    2.0370 C.2    18  LYS18       0.2260
      4  O        -24.7230   -2.2670    1.1880 O.2    18  LYS18      -0.2867
      5  CB       -24.8700   -3.0050    4.4330 C.3    18  LYS18       0.0271
      6  CG       -23.7210   -1.9920    4.4360 C.3    18  LYS18       0.0035
      7  CD       -23.8750   -1.0540    5.6430 C.3    18  LYS18       0.0206
      8  CE       -22.6660   -0.1670    5.9050 C.3    18  LYS18       0.1093
      9  NZ       -21.4190   -0.9390    6.1740 N.3    18  LYS18      -0.1314
     10  N        -26.0670    1.2070    1.0640 N.3    20  LEU20      -0.1231
     11  CA       -25.5700    2.5130    1.5110 C.3    20  LEU20       0.1693
     12  C        -26.5600    3.6530    1.2270 C.2    20  LEU20       0.2593
     13  O        -26.6470    4.6140    1.9920 O.2    20  LEU20      -0.2718
     14  CB       -24.1980    2.8100    0.9060 C.3    20  LEU20       0.0284
     15  CG       -23.0810    1.8380    1.2870 C.3    20  LEU20       0.0019
     16  CD1      -21.8310    2.1570    0.5230 C.3    20  LEU20       0.0001
     17  CD2      -22.8280    1.8370    2.7950 C.3    20  LEU20       0.0001
     18  N        -27.2960    3.5120    0.1400 N.am   21  GLY21      -0.1942
     19  CA       -28.2990    4.4750   -0.2930 C.3    21  GLY21       0.2014
     20  C        -28.5170    4.4580   -1.7910 C.2    21  GLY21       0.2640
     21  O        -28.0200    3.5750   -2.5010 O.2    21  GLY21      -0.2714
     22  N        -29.2700    5.4380   -2.2820 N.am   22  THR22      -0.1936
     23  CA       -29.5570    5.5370   -3.7060 C.3    22  THR22       0.2028
     24  C        -29.0880    6.8750   -4.2370 C.2    22  THR22       0.2642
     25  O        -29.4130    7.9160   -3.6680 O.2    22  THR22      -0.2714
     26  CB       -31.0440    5.2270   -3.9900 C.3    22  THR22       0.1808
     27  OG1      -31.3630    3.9470   -3.4310 O.3    22  THR22      -0.2208
     28  CG2      -31.3740    5.2330   -5.4810 C.3    22  THR22       0.0379
     29  N        -28.2670    6.8180   -5.2770 N.am   23  GLY23      -0.1954
     30  CA       -27.7480    7.9920   -5.9660 C.3    23  GLY23       0.1869
     31  C        -28.5700    8.2640   -7.2070 C.2    23  GLY23       0.2309
     32  O        -29.6140    7.6290   -7.4180 O.2    23  GLY23      -0.2863
     33  N        -26.4250    2.0230   -4.2480 N.3    28  VAL28      -0.1245
     34  CA       -25.0160    1.8850   -3.9050 C.3    28  VAL28       0.1561
     35  C        -24.9360    0.8990   -2.7610 C.2    28  VAL28       0.2260
     36  O        -25.6870    1.0120   -1.7930 O.2    28  VAL28      -0.2867
     37  CB       -24.3400    3.2310   -3.5700 C.3    28  VAL28       0.0252
     38  CG1      -22.8750    3.0300   -3.1600 C.3    28  VAL28       0.0019
     39  CG2      -24.4490    4.1890   -4.7510 C.3    28  VAL28       0.0019
     40  N        -17.1900   -0.1970   -2.6070 N.3    40  ALA40      -0.1245
     41  CA       -18.5260    0.3460   -2.8110 C.3    40  ALA40       0.1562
     42  C        -18.8640   -0.1390   -4.2260 C.2    40  ALA40       0.2260
     43  O        -18.0080   -0.1270   -5.1330 O.2    40  ALA40      -0.2867
     44  CB       -18.5170    1.8700   -2.7680 C.3    40  ALA40       0.0290
     45  N        -21.4520    0.5260   -7.1580 N.3    42  LYS42      -0.1245
     46  CA       -22.4510    1.4560   -7.6920 C.3    42  LYS42       0.1561
     47  C        -23.1960    0.8020   -8.8690 C.2    42  LYS42       0.2260
     48  O        -22.5790    0.5280   -9.9070 O.2    42  LYS42      -0.2867
     49  CB       -21.8150    2.7880   -8.1630 C.3    42  LYS42       0.0271
     50  CG       -20.5470    3.3020   -7.4230 C.3    42  LYS42       0.0035
     51  CD       -20.7980    3.8680   -6.0280 C.3    42  LYS42       0.0206
     52  CE       -21.3340    5.2870   -6.0180 C.3    42  LYS42       0.1093
     53  NZ       -20.3070    6.2890   -6.3780 N.3    42  LYS42      -0.1314
     54  N        -11.2270    9.4620   -4.6900 N.3    70  VAL70      -0.1245
     55  CA       -11.9440    8.1960   -4.4750 C.3    70  VAL70       0.1561
     56  C        -11.5600    7.2710   -5.6330 C.2    70  VAL70       0.2260
     57  O        -11.8630    7.5530   -6.7980 O.2    70  VAL70      -0.2867
     58  CB       -13.4720    8.3800   -4.3170 C.3    70  VAL70       0.0252
     59  CG1      -14.1730    7.0240   -4.2400 C.3    70  VAL70       0.0019
     60  CG2      -13.7930    9.2040   -3.0700 C.3    70  VAL70       0.0019
     61  N        -15.7420    1.0650   -6.6000 N.3    86  THR86      -0.1203
     62  CA       -14.8600    2.1140   -6.1150 C.3    86  THR86       0.1994
     63  C        -14.4040    1.8540   -4.6990 C.2    86  THR86       0.2618
     64  O        -14.8850    0.9410   -4.0040 O.2    86  THR86      -0.2717
     65  CB       -15.5750    3.4940   -6.1500 C.3    86  THR86       0.1784
     66  OG1      -16.4310    3.6230   -5.0060 O.3    86  THR86      -0.2211
     67  CG2      -16.3620    3.7380   -7.4430 C.3    86  THR86       0.0376
     68  N        -13.4880    2.7280   -4.2510 N.am   87  GLU87      -0.1965
     69  CA       -13.0140    2.7750   -2.8860 C.3    87  GLU87       0.1733
     70  C        -14.2300    3.0170   -1.9760 C.2    87  GLU87       0.2616
     71  O        -15.1440    3.7820   -2.3380 O.2    87  GLU87      -0.2715
     72  CB       -12.0580    3.9770   -2.7990 C.3    87  GLU87       0.0429
     73  CG       -11.5200    4.2820   -1.4220 C.3    87  GLU87       0.1163
     74  CD       -10.3400    5.2350   -1.4110 C.2    87  GLU87       0.3649
     75  OE1       -9.9850    5.7850   -2.4800 O.co2  87  GLU87      -0.2457
     76  OE2       -9.7990    5.4600   -0.3060 O.co2  87  GLU87      -0.2457
     77  N        -14.2370    2.3400   -0.8230 N.am   88  TYR88      -0.1960
     78  CA       -15.2930    2.4360    0.1750 C.3    88  TYR88       0.1771
     79  C        -14.9860    3.5930    1.1360 C.2    88  TYR88       0.2619
     80  O        -13.8790    3.6550    1.6830 O.2    88  TYR88      -0.2715
     81  CB       -15.4120    1.1110    0.9530 C.3    88  TYR88       0.0574
     82  CG       -16.3920    1.1690    2.1010 C.ar   88  TYR88      -0.0198
     83  CD1      -17.7080    1.5830    1.9020 C.ar   88  TYR88      -0.0009
     84  CD2      -15.9870    0.8770    3.4000 C.ar   88  TYR88      -0.0009
     85  CE1      -18.6020    1.6790    2.9680 C.ar   88  TYR88       0.0417
     86  CE2      -16.8860    0.9210    4.4650 C.ar   88  TYR88       0.0417
     87  CZ       -18.1820    1.3510    4.2470 C.ar   88  TYR88       0.1957
     88  OH       -19.0520    1.4530    5.3020 O.3    88  TYR88      -0.2866
     89  N        -15.9770    4.4670    1.3590 N.am   89  MET89      -0.1963
     90  CA       -15.8730    5.6610    2.1860 C.3    89  MET89       0.1736
     91  C        -16.9620    5.5580    3.2490 C.2    89  MET89       0.2616
     92  O        -18.1180    5.8620    2.9830 O.2    89  MET89      -0.2715
     93  CB       -16.0300    6.9250    1.3030 C.3    89  MET89       0.0427
     94  CG       -15.0190    6.9630    0.1340 C.3    89  MET89       0.0599
     95  SD       -13.3190    7.2480    0.6910 S.3    89  MET89      -0.1393
     96  CE       -13.4580    9.0340    1.1560 C.3    89  MET89       0.0692
     97  N        -16.5940    5.0730    4.4350 N.am   90  ALA90      -0.1963
     98  CA       -17.5800    4.7230    5.4600 C.3    90  ALA90       0.1728
     99  C        -18.4460    5.8580    5.9510 C.2    90  ALA90       0.2616
    100  O        -19.5420    5.5850    6.4300 O.2    90  ALA90      -0.2715
    101  CB       -16.8930    4.0560    6.6390 C.3    90  ALA90       0.0334
    102  N        -17.9510    7.1220    5.8840 N.am   91  ASN91      -0.1958
    103  CA       -18.7250    8.2220    6.4600 C.3    91  ASN91       0.1819
    104  C        -19.5630    9.0010    5.4520 C.2    91  ASN91       0.2622
    105  O        -20.1920    9.9920    5.8280 O.2    91  ASN91      -0.2715
    106  CB       -17.8640    9.1330    7.3190 C.3    91  ASN91       0.1195
    107  CG       -17.7080    8.5690    8.7110 C.2    91  ASN91       0.2630
    108  OD1      -18.6500    8.0250    9.2940 O.2    91  ASN91      -0.2716
    109  ND2      -16.5070    8.6040    9.2410 N.am   91  ASN91      -0.0877
    110  N        -19.6690    8.4940    4.2240 N.am   92  GLY92      -0.1940
    111  CA       -20.6170    9.0340    3.2630 C.3    92  GLY92       0.2014
    112  C        -20.2380   10.3600    2.6510 C.2    92  GLY92       0.2639
    113  O        -19.0640   10.7160    2.5850 O.2    92  GLY92      -0.2714
    114  N        -21.2500   11.0780    2.2050 N.am   93  CYS93      -0.1967
    115  CA       -21.1510   12.3530    1.5330 C.3    93  CYS93       0.1712
    116  C        -20.6390   13.4800    2.4340 C.2    93  CYS93       0.2296
    117  O        -21.1480   13.6270    3.5520 O.2    93  CYS93      -0.2864
    118  CB       -22.5110   12.6970    0.9380 C.3    93  CYS93       0.0983
    119  SG       -22.6080   14.3590    0.2630 S.3    93  CYS93      -0.0798
    120  N        -23.6030   15.8280    3.7720 N.3    96  ASN96      -0.1240
    121  CA       -24.3530   15.3530    4.9360 C.3    96  ASN96       0.1653
    122  C        -23.4910   15.3960    6.1920 C.2    96  ASN96       0.2266
    123  O        -23.9890   15.7550    7.2510 O.2    96  ASN96      -0.2867
    124  CB       -24.8750   13.9370    4.7140 C.3    96  ASN96       0.1155
    125  CG       -25.9910   13.8630    3.7010 C.2    96  ASN96       0.2627
    126  OD1      -26.6060   14.8780    3.3310 O.2    96  ASN96      -0.2716
    127  ND2      -26.2010   12.6660    3.1540 N.am   96  ASN96      -0.0877
    128  N        -24.1930   17.5420    9.9680 N.3   100  GLU100     -0.1245
    129  CA       -24.3410   16.8490   11.2490 C.3   100  GLU100      0.1567
    130  C        -23.6890   17.7440   12.3170 C.2   100  GLU100      0.2260
    131  O        -22.4610   17.7440   12.4560 O.2   100  GLU100     -0.2867
    132  CB       -23.6800   15.4580   11.1950 C.3   100  GLU100      0.0388
    133  CG       -24.3640   14.4850   10.2420 C.3   100  GLU100      0.1160
    134  CD       -23.6850   13.1400   10.0700 C.2   100  GLU100      0.3649
    135  OE1      -22.4500   13.0980    9.8550 O.co2 100  GLU100     -0.2457
    136  OE2      -24.4210   12.1290   10.0100 O.co2 100  GLU100     -0.2457
    137  N        -23.5500   17.5110   15.4720 N.3   102  ARG102     -0.1245
    138  CA       -22.8660   16.7600   16.5350 C.3   102  ARG102      0.1563
    139  C        -21.3550   16.7760   16.4100 C.2   102  ARG102      0.2260
    140  O        -20.6870   16.7520   17.4350 O.2   102  ARG102     -0.2867
    141  CB       -23.3390   15.2920   16.6320 C.3   102  ARG102      0.0307
    142  CG       -23.0380   14.4260   15.4080 C.3   102  ARG102      0.0489
    143  CD       -23.7210   13.0650   15.5210 C.3   102  ARG102      0.2205
    144  NE       -23.6970   12.3410   14.2450 N.pl3 102  ARG102     -0.0865
    145  CZ       -22.6890   11.5900   13.8180 C.cat 102  ARG102      0.5346
    146  NH1      -21.5880   11.4620   14.5510 N.pl3 102  ARG102      0.1354
    147  NH2      -22.7610   10.9810   12.6430 N.pl3 102  ARG102      0.1354
    148  N        -21.3090   17.7490   -2.3770 N.3   137  ARG137     -0.1245
    149  CA       -22.1180   16.5450   -2.6460 C.3   137  ARG137      0.1563
    150  C        -21.2950   15.4830   -3.4180 C.2   137  ARG137      0.2260
    151  O        -21.6790   14.3190   -3.4290 O.2   137  ARG137     -0.2867
    152  CB       -23.3960   16.9070   -3.4410 C.3   137  ARG137      0.0307
    153  CG       -23.0950   17.4600   -4.8340 C.3   137  ARG137      0.0489
    154  CD       -24.3310   17.7710   -5.6800 C.3   137  ARG137      0.2205
    155  NE       -23.9030   18.4450   -6.9100 N.pl3 137  ARG137     -0.0865
    156  CZ       -23.6870   19.7520   -6.9790 C.cat 137  ARG137      0.5346
    157  NH1      -23.9290   20.5270   -5.9320 N.pl3 137  ARG137      0.1354
    158  NH2      -23.2110   20.2910   -8.0850 N.pl3 137  ARG137      0.1354
    159  N        -16.5420   12.5760   -0.6380 N.3   140  LEU140     -0.1245
    160  CA       -16.8730   11.5280    0.3390 C.3   140  LEU140      0.1561
    161  C        -15.9010   11.5650    1.5140 C.2   140  LEU140      0.2260
    162  O        -14.8140   12.1330    1.4240 O.2   140  LEU140     -0.2867
    163  CB       -16.9120   10.1270   -0.3060 C.3   140  LEU140      0.0270
    164  CG       -17.9940    9.9230   -1.3940 C.3   140  LEU140      0.0019
    165  CD1      -17.7070    8.6490   -2.2250 C.3   140  LEU140      0.0001
    166  CD2      -19.3610    9.7050   -0.7470 C.3   140  LEU140      0.0001
@<TRIPOS>BOND
     1    48    47    2
     2    47    46    1
     3    49    46    1
     4    49    50    1
     5   158   156    1
     6    46    45    1
     7    67    65    1
     8    50    51    1
     9    32    31    2
    10    31    30    1
    11   156   155    2
    12   156   157    1
    13   155   154    1
    14    57    56    2
    15    61    62    1
    16    53    52    1
    17    65    62    1
    18    65    66    1
    19    62    63    1
    20    51    52    1
    21    30    29    1
    22   154   153    1
    23    56    55    1
    24    28    26    1
    25    29    24   am
    26    43    42    2
    27   153   152    1
    28    39    37    1
    29    63    68   am
    30    63    64    2
    31    54    55    1
    32    55    58    1
    33    58    59    1
    34    58    60    1
    35    68    69    1
    36    33    34    1
    37    24    23    1
    38    24    25    2
    39    42    41    1
    40    26    23    1
    41    26    27    1
    42    34    37    1
    43    34    35    1
    44    23    22    1
    45    37    38    1
    46   152   149    1
    47   151   150    2
    48   150   149    1
    49    69    72    1
    50    69    70    1
    51    41    44    1
    52    41    40    1
    53    72    73    1
    54    35    36    2
    55   149   148    1
    56    21    20    2
    57    75    74   ar
    58    71    70    2
    59    22    20   am
    60   165   164    1
    61    70    77   am
    62    20    19    1
    63    73    74    1
    64    74    76   ar
    65   164   166    1
    66   164   163    1
    67    77    78    1
    68   159   160    1
    69   163   160    1
    70    19    18    1
    71    94    95    1
    72    94    93    1
    73    18    12   am
    74    78    81    1
    75    78    79    1
    76   119   118    1
    77   160   161    1
    78    16    15    1
    79    95    96    1
    80    14    15    1
    81    14    11    1
    82   118   115    1
    83    81    82    1
    84    10    11    1
    85    79    89   am
    86    79    80    2
    87     4     3    2
    88    12    11    1
    89    12    13    2
    90    15    17    1
    91    93    90    1
    92    89    90    1
    93   162   161    2
    94   115   114    1
    95   115   116    1
    96    83    82   ar
    97    83    85   ar
    98     3     2    1
    99    82    84   ar
   100    90    91    1
   101   114   112   am
   102   116   117    2
   103   113   112    2
   104     1     2    1
   105   112   111    1
   106    85    87   ar
   107    92    91    2
   108     2     5    1
   109   127   125   am
   110    91    97   am
   111   111   110    1
   112   126   125    2
   113    84    86   ar
   114   125   124    1
   115   120   121    1
   116   110   104   am
   117    87    86   ar
   118    87    88    1
   119     5     6    1
   120    97    98    1
   121     6     7    1
   122   124   121    1
   123   121   122    1
   124   104   105    2
   125   104   103    1
   126    98    99    1
   127    98   101    1
   128     7     8    1
   129   102    99   am
   130   102   103    1
   131     8     9    1
   132    99   100    2
   133   122   123    2
   134   103   106    1
   135   106   107    1
   136   107   109   am
   137   107   108    2
   138   135   134   ar
   139   128   129    1
   140   136   134   ar
   141   134   133    1
   142   133   132    1
   143   132   129    1
   144   129   130    1
   145   130   131    2
   146   147   145    1
   147   145   144    2
   148   145   146    1
   149   144   143    1
   150   142   143    1
   151   142   141    1
   152   137   138    1
   153   139   138    1
   154   139   140    2
   155   138   141    1
