@<TRIPOS>MOLECULE
tmp/5bq5B00.pdb
 154 152 0 0 0
SMALL
GASTEIGER

@<TRIPOS>ATOM
      1  N        -19.1710   48.5840   17.2290 N.3     5  TYR5       -0.1241
      2  CA       -20.3230   47.7730   16.8660 C.3     5  TYR5        0.1605
      3  C        -19.8910   46.3170   16.7270 C.2     5  TYR5        0.2264
      4  O        -18.7540   45.9700   17.0460 O.2     5  TYR5       -0.2867
      5  CB       -20.9610   48.2910   15.5730 C.3     5  TYR5        0.0534
      6  CG       -19.9730   48.5730   14.4640 C.ar    5  TYR5       -0.0201
      7  CD1      -19.6230   47.5880   13.5500 C.ar    5  TYR5       -0.0009
      8  CD2      -19.3950   49.8280   14.3280 C.ar    5  TYR5       -0.0009
      9  CE1      -18.7210   47.8460   12.5330 C.ar    5  TYR5        0.0417
     10  CE2      -18.4930   50.0950   13.3180 C.ar    5  TYR5        0.0417
     11  CZ       -18.1600   49.1010   12.4220 C.ar    5  TYR5        0.1957
     12  OH       -17.2630   49.3620   11.4140 O.3     5  TYR5       -0.2866
     13  N        -19.1360   43.0280   14.6710 N.3     7  LYS7       -0.1245
     14  CA       -18.8280   42.2540   13.4670 C.3     7  LYS7        0.1561
     15  C        -18.0930   40.9760   13.8650 C.2     7  LYS7        0.2260
     16  O        -17.1860   41.0120   14.6950 O.2     7  LYS7       -0.2867
     17  CB       -17.9930   43.0730   12.4770 C.3     7  LYS7        0.0271
     18  CG       -18.6270   44.4080   12.1200 C.3     7  LYS7        0.0035
     19  CD       -19.6640   44.2480   11.0250 C.3     7  LYS7        0.0206
     20  CE       -20.1670   45.5960   10.5340 C.3     7  LYS7        0.1093
     21  NZ       -21.0210   45.4610    9.3240 N.3     7  LYS7       -0.1314
     22  N        -20.0370   36.2690    9.9140 N.3    11  THR11      -0.1203
     23  CA       -20.8230   37.0820    8.9910 C.3    11  THR11       0.1994
     24  C        -19.9550   37.5960    7.8460 C.2    11  THR11       0.2618
     25  O        -20.4210   38.3500    6.9930 O.2    11  THR11      -0.2717
     26  CB       -21.4800   38.2800    9.7050 C.3    11  THR11       0.1784
     27  OG1      -20.4710   39.1420   10.2450 O.3    11  THR11      -0.2211
     28  CG2      -22.3990   37.7950   10.8240 C.3    11  THR11       0.0376
     29  N        -18.6870   37.1950    7.8380 N.am   12  PHE12      -0.1961
     30  CA       -17.7780   37.5810    6.7670 C.3    12  PHE12       0.1771
     31  C        -17.8430   36.5850    5.6180 C.2    12  PHE12       0.2619
     32  O        -17.5620   35.4020    5.7860 O.2    12  PHE12      -0.2715
     33  CB       -16.3460   37.6900    7.2830 C.3    12  PHE12       0.0574
     34  CG       -15.4220   38.4050    6.3400 C.ar   12  PHE12      -0.0200
     35  CD1      -15.3890   39.7890    6.3000 C.ar   12  PHE12      -0.0042
     36  CD2      -14.5870   37.6940    5.4940 C.ar   12  PHE12      -0.0042
     37  CE1      -14.5410   40.4520    5.4330 C.ar   12  PHE12      -0.0003
     38  CE2      -13.7340   38.3510    4.6260 C.ar   12  PHE12      -0.0003
     39  CZ       -13.7110   39.7330    4.5960 C.ar   12  PHE12      -0.0000
     40  N        -18.2380   37.0800    4.4540 N.am   13  ASP13      -0.1971
     41  CA       -18.2990   36.2780    3.2420 C.3    13  ASP13       0.1709
     42  C        -16.9390   36.2640    2.5440 C.2    13  ASP13       0.2293
     43  O        -16.5700   37.2220    1.8690 O.2    13  ASP13      -0.2864
     44  CB       -19.3760   36.8230    2.3080 C.3    13  ASP13       0.1436
     45  CG       -19.6130   35.9340    1.1090 C.2    13  ASP13       0.3671
     46  OD1      -18.8690   34.9450    0.9340 O.co2  13  ASP13      -0.2456
     47  OD2      -20.5480   36.2260    0.3380 O.co2  13  ASP13      -0.2456
     48  N        -16.8850   36.8490   -1.2200 N.3    16  ALA16      -0.1231
     49  CA       -16.9620   38.2320   -1.6800 C.3    16  ALA16       0.1694
     50  C        -15.6070   38.9270   -1.5850 C.2    16  ALA16       0.2591
     51  O        -15.3990   39.9730   -2.1990 O.2    16  ALA16      -0.2718
     52  CB       -18.0050   38.9990   -0.8860 C.3    16  ALA16       0.0304
     53  N        -14.6990   38.3470   -0.8030 N.am   17  GLN17      -0.1979
     54  CA       -13.3560   38.8950   -0.6310 C.3    17  GLN17       0.1601
     55  C        -12.3220   37.7980   -0.8790 C.2    17  GLN17       0.2287
     56  O        -11.7080   37.2840    0.0510 O.2    17  GLN17      -0.2864
     57  CB       -13.2100   39.4900    0.7730 C.3    17  GLN17       0.0394
     58  CG       -11.8360   40.0540    1.1140 C.3    17  GLN17       0.0908
     59  CD       -11.2500   40.8910   -0.0020 C.2    17  GLN17       0.2608
     60  OE1      -10.6860   40.3610   -0.9610 O.2    17  GLN17      -0.2717
     61  NE2      -11.4010   42.2040    0.1030 N.am   17  GLN17      -0.0878
     62  N        -11.4070   51.3450    0.0530 N.3    46  PRO46      -0.2102
     63  CA       -12.5860   51.4150    0.9280 C.3    46  PRO46       0.1504
     64  C        -13.5940   50.2780    0.7480 C.2    46  PRO46       0.2576
     65  O        -13.8610   49.8550   -0.3760 O.2    46  PRO46      -0.2718
     66  CB       -13.2420   52.7470    0.5380 C.3    46  PRO46       0.0282
     67  CG       -12.2310   53.5040   -0.2130 C.3    46  PRO46       0.0208
     68  CD       -11.2810   52.5330   -0.8110 C.3    46  PRO46       0.0893
     69  N        -14.1470   49.8010    1.8620 N.am   47  GLY47      -0.1943
     70  CA       -15.3110   48.9310    1.8390 C.3    47  GLY47       0.2014
     71  C        -15.0560   47.4600    1.5740 C.2    47  GLY47       0.2639
     72  O        -16.0010   46.7120    1.3120 O.2    47  GLY47      -0.2714
     73  N        -13.8000   47.0330    1.6560 N.am   48  ILE48      -0.1963
     74  CA       -13.4370   45.6800    1.2400 C.3    48  ILE48       0.1727
     75  C        -13.3440   44.6980    2.4060 C.2    48  ILE48       0.2617
     76  O        -13.0730   43.5160    2.1990 O.2    48  ILE48      -0.2715
     77  CB       -12.0980   45.6790    0.4710 C.3    48  ILE48       0.0290
     78  CG1      -10.9430   46.0950    1.3910 C.3    48  ILE48       0.0022
     79  CG2      -12.2130   46.5710   -0.7630 C.3    48  ILE48       0.0023
     80  CD1       -9.6150   46.3080    0.6790 C.3    48  ILE48       0.0001
     81  N        -13.5680   45.1830    3.6240 N.am   49  GLY49      -0.1940
     82  CA       -13.6710   44.3090    4.7830 C.3    49  GLY49       0.2014
     83  C        -12.5580   44.4410    5.8080 C.2    49  GLY49       0.2639
     84  O        -12.4380   43.6060    6.7060 O.2    49  GLY49      -0.2714
     85  N        -11.7440   45.4840    5.6870 N.am   50  LYS50      -0.1963
     86  CA       -10.6210   45.6800    6.6020 C.3    50  LYS50       0.1728
     87  C        -11.0840   45.8280    8.0480 C.2    50  LYS50       0.2617
     88  O        -10.6430   45.0900    8.9250 O.2    50  LYS50      -0.2715
     89  CB        -9.8060   46.9110    6.1940 C.3    50  LYS50       0.0311
     90  CG        -9.2270   46.8320    4.7910 C.3    50  LYS50       0.0038
     91  CD        -8.2910   47.9990    4.4960 C.3    50  LYS50       0.0206
     92  CE        -8.9950   49.3470    4.5790 C.3    50  LYS50       0.1093
     93  NZ       -10.1520   49.4220    3.6520 N.3    50  LYS50      -0.1314
     94  N        -11.9810   46.7780    8.2910 N.am   51  THR51      -0.1937
     95  CA       -12.4550   47.0460    9.6400 C.3    51  THR51       0.2028
     96  C        -13.2980   45.8820   10.1500 C.2    51  THR51       0.2642
     97  O        -13.2520   45.5520   11.3330 O.2    51  THR51      -0.2714
     98  CB       -13.2740   48.3550    9.7010 C.3    51  THR51       0.1808
     99  OG1      -12.4510   49.4570    9.2950 O.3    51  THR51      -0.2208
    100  CG2      -13.8130   48.6040   11.1160 C.3    51  THR51       0.0379
    101  N        -14.0760   45.2720    9.2600 N.am   52  HIS52      -0.1973
    102  CA       -14.8680   44.0970    9.6190 C.3    52  HIS52       0.1656
    103  C        -13.9630   43.0100   10.1980 C.2    52  HIS52       0.2291
    104  O        -14.2240   42.4810   11.2760 O.2    52  HIS52      -0.2864
    105  CB       -15.6290   43.5680    8.3950 C.3    52  HIS52       0.0771
    106  CG       -16.5830   42.4520    8.7000 C.ar   52  HIS52       0.0820
    107  ND1      -17.8530   42.3980    8.1660 N.ar   52  HIS52      -0.2267
    108  CD2      -16.4510   41.3440    9.4660 C.ar   52  HIS52       0.1154
    109  CE1      -18.4640   41.3100    8.5990 C.ar   52  HIS52       0.1986
    110  NE2      -17.6360   40.6520    9.3900 N.ar   52  HIS52      -0.2212
    111  N         -6.7340   58.0630    5.9480 N.3   107  TYR107     -0.1241
    112  CA        -7.7360   58.8490    5.2360 C.3   107  TYR107      0.1605
    113  C         -7.5630   60.3220    5.5590 C.2   107  TYR107      0.2264
    114  O         -7.5750   61.1720    4.6700 O.2   107  TYR107     -0.2867
    115  CB        -9.1480   58.3910    5.5980 C.3   107  TYR107      0.0534
    116  CG        -9.6180   57.1930    4.8080 C.ar  107  TYR107     -0.0201
    117  CD1       -9.3490   57.0800    3.4510 C.ar  107  TYR107     -0.0009
    118  CD2      -10.3160   56.1650    5.4210 C.ar  107  TYR107     -0.0009
    119  CE1       -9.7690   55.9820    2.7310 C.ar  107  TYR107      0.0417
    120  CE2      -10.7380   55.0630    4.7090 C.ar  107  TYR107      0.0417
    121  CZ       -10.4600   54.9760    3.3640 C.ar  107  TYR107      0.1957
    122  OH       -10.8770   53.8800    2.6480 O.3   107  TYR107     -0.2866
    123  N        -17.8320   46.5500   -0.6900 N.3   172  TYR172     -0.1227
    124  CA       -19.0270   45.8320   -0.2650 C.3   172  TYR172      0.1736
    125  C        -20.1780   46.8060   -0.0150 C.2   172  TYR172      0.2595
    126  O        -21.3510   46.4420   -0.1230 O.2   172  TYR172     -0.2718
    127  CB       -18.7340   45.0210    0.9930 C.3   172  TYR172      0.0548
    128  CG       -19.6830   43.8680    1.2280 C.ar  172  TYR172     -0.0200
    129  CD1      -19.4290   42.6180    0.6790 C.ar  172  TYR172     -0.0009
    130  CD2      -20.8200   44.0210    2.0090 C.ar  172  TYR172     -0.0009
    131  CE1      -20.2830   41.5540    0.8930 C.ar  172  TYR172      0.0417
    132  CE2      -21.6840   42.9600    2.2290 C.ar  172  TYR172      0.0417
    133  CZ       -21.4080   41.7290    1.6680 C.ar  172  TYR172      0.1957
    134  OH       -22.2540   40.6620    1.8780 O.3   172  TYR172     -0.2866
    135  N        -19.8370   48.0470    0.3170 N.am  173  ARG173     -0.1980
    136  CA       -20.8470   49.0770    0.5320 C.3   173  ARG173      0.1597
    137  C        -21.6090   49.3380   -0.7600 C.2   173  ARG173      0.2287
    138  O        -22.8390   49.4040   -0.7700 O.2   173  ARG173     -0.2864
    139  CB       -20.2140   50.3750    1.0380 C.3   173  ARG173      0.0334
    140  CG       -19.4970   50.2580    2.3720 C.3   173  ARG173      0.0492
    141  CD       -19.0770   51.6300    2.8690 C.3   173  ARG173      0.2205
    142  NE       -18.3530   51.5840    4.1380 N.pl3 173  ARG173     -0.0865
    143  CZ       -17.0380   51.7560    4.2700 C.cat 173  ARG173      0.5346
    144  NH1      -16.2590   51.9660    3.2120 N.pl3 173  ARG173      0.1354
    145  NH2      -16.4920   51.7060    5.4740 N.pl3 173  ARG173      0.1354
    146  N        -24.0900   46.5430   -1.8050 N.3   176  GLU176     -0.1245
    147  CA       -25.3690   46.6490   -1.1230 C.3   176  GLU176      0.1567
    148  C        -26.1790   47.8390   -1.6370 C.2   176  GLU176      0.2260
    149  O        -27.4070   47.7760   -1.6930 O.2   176  GLU176     -0.2867
    150  CB       -25.1330   46.7420    0.3840 C.3   176  GLU176      0.0388
    151  CG       -24.6620   45.4120    0.9660 C.3   176  GLU176      0.1160
    152  CD       -24.6760   45.3720    2.4740 C.2   176  GLU176      0.3649
    153  OE1      -24.4040   46.4170    3.1000 O.co2 176  GLU176     -0.2457
    154  OE2      -24.9470   44.2890    3.0360 O.co2 176  GLU176     -0.2457
@<TRIPOS>BOND
     1    51    50    2
     2   146   147    1
     3   149   148    2
     4    49    50    1
     5    49    48    1
     6    49    52    1
     7   148   147    1
     8    50    53   am
     9   147   150    1
    10    60    59    2
    11    55    54    1
    12    55    56    2
    13    68    67    1
    14    68    62    1
    15    53    54    1
    16   138   137    2
    17    79    77    1
    18   137   136    1
    19   123   124    1
    20    54    57    1
    21    65    64    2
    22   124   125    1
    23   124   127    1
    24    67    66    1
    25   126   125    2
    26   125   135   am
    27    59    61   am
    28    59    58    1
    29    62    63    1
    30   135   136    1
    31    47    45   ar
    32   150   151    1
    33    77    74    1
    34    77    78    1
    35   136   139    1
    36    66    63    1
    37    80    78    1
    38   129   131   ar
    39   129   128   ar
    40    64    63    1
    41    64    69   am
    42    57    58    1
    43   131   133   ar
    44    46    45   ar
    45   151   152    1
    46   127   128    1
    47   139   140    1
    48    45    44    1
    49   128   130   ar
    50    74    73    1
    51    74    75    1
    52    72    71    2
    53    71    73   am
    54    71    70    1
    55   133   134    1
    56   133   132   ar
    57    70    69    1
    58    43    42    2
    59   130   132   ar
    60    76    75    2
    61    44    41    1
    62   140   141    1
    63    75    81   am
    64   152   154   ar
    65   152   153   ar
    66    42    41    1
    67   122   121    1
    68   119   121   ar
    69   119   117   ar
    70   141   142    1
    71   144   143    1
    72    41    40    1
    73   121   120   ar
    74   117   116   ar
    75    81    82    1
    76    93    92    1
    77   142   143    2
    78   143   145    1
    79    40    31   am
    80    91    92    1
    81    91    90    1
    82    39    38   ar
    83    39    37   ar
    84    38    36   ar
    85   114   113    2
    86   120   118   ar
    87    82    83    1
    88    90    89    1
    89   116   118   ar
    90   116   115    1
    91   112   113    1
    92   112   115    1
    93   112   111    1
    94    37    35   ar
    95    36    34   ar
    96    31    32    2
    97    31    30    1
    98    85    83   am
    99    85    86    1
   100    83    84    2
   101    89    86    1
   102    35    34   ar
   103    34    33    1
   104    86    87    1
   105    30    33    1
   106    30    29    1
   107    25    24    2
   108    29    24   am
   109    24    23    1
   110    87    94   am
   111    87    88    2
   112   107   109   ar
   113   107   106   ar
   114    94    95    1
   115   105   106    1
   116   105   102    1
   117   109   110   ar
   118   106   108   ar
   119    23    26    1
   120    23    22    1
   121   101   102    1
   122   101    96   am
   123    99    98    1
   124    21    20    1
   125   110   108   ar
   126   102   103    1
   127    95    98    1
   128    95    96    1
   129    98   100    1
   130    26    27    1
   131    26    28    1
   132    96    97    2
   133   103   104    2
   134    20    19    1
   135    19    18    1
   136    12    11    1
   137    18    17    1
   138    11     9   ar
   139    11    10   ar
   140    17    14    1
   141     9     7   ar
   142    10     8   ar
   143    14    15    1
   144    14    13    1
   145     7     6   ar
   146    15    16    2
   147     8     6   ar
   148     6     5    1
   149     5     2    1
   150     3     2    1
   151     3     4    2
   152     2     1    1
