@<TRIPOS>MOLECULE
tmp/5bqeC00.pdb
 84 79 0 0 0
SMALL
GASTEIGER

@<TRIPOS>ATOM
      1  N        -14.0110  -26.6560  -25.0360 N.3    50  GLN50      -0.1245
      2  CA       -14.5890  -25.9610  -23.9120 C.3    50  GLN50       0.1566
      3  C        -15.7270  -25.0300  -24.2680 C.2    50  GLN50       0.2260
      4  O        -16.3950  -24.5430  -23.4010 O.2    50  GLN50      -0.2867
      5  CB       -13.5340  -25.1570  -23.1920 C.3    50  GLN50       0.0367
      6  CG       -12.3840  -25.9630  -22.6820 C.3    50  GLN50       0.0905
      7  CD       -11.9260  -25.4950  -21.3390 C.2    50  GLN50       0.2608
      8  OE1      -12.5600  -25.7820  -20.3440 O.2    50  GLN50      -0.2717
      9  NE2      -10.8310  -24.7510  -21.3030 N.am   50  GLN50      -0.0878
     10  N        -14.0210  -18.1580  -15.7080 N.3    74  CYS74      -0.1235
     11  CA       -12.9410  -17.2740  -15.4320 C.3    74  CYS74       0.1677
     12  C        -12.4790  -16.7310  -16.7360 C.2    74  CYS74       0.2270
     13  O        -12.7480  -17.2760  -17.7670 O.2    74  CYS74      -0.2867
     14  CB       -11.7940  -18.0000  -14.7670 C.3    74  CYS74       0.0956
     15  SG       -12.1250  -18.7710  -13.1860 S.3    74  CYS74      -0.0801
     16  N         -9.6660  -16.6880  -18.0210 N.3    76  GLY76      -0.1210
     17  CA        -8.7660  -17.5640  -18.7230 C.3    76  GLY76       0.1956
     18  C         -9.4000  -18.5700  -19.6530 C.2    76  GLY76       0.2611
     19  O         -8.8500  -18.8960  -20.6500 O.2    76  GLY76      -0.2717
     20  N        -10.5740  -19.0450  -19.3090 N.am   77  MET77      -0.1979
     21  CA       -11.3020  -19.9490  -20.1460 C.3    77  MET77       0.1605
     22  C        -11.8490  -19.2190  -21.3530 C.2    77  MET77       0.2287
     23  O        -11.7880  -19.7140  -22.4380 O.2    77  MET77      -0.2864
     24  CB       -12.4160  -20.5840  -19.3460 C.3    77  MET77       0.0413
     25  CG       -13.3770  -21.4290  -20.1370 C.3    77  MET77       0.0598
     26  SD       -14.2970  -22.5310  -19.0910 S.3    77  MET77      -0.1393
     27  CE       -15.7610  -21.6280  -18.7990 C.3    77  MET77       0.0692
     28  N         -9.0420  -18.6590  -23.8000 N.3    80  SER80      -0.1217
     29  CA        -8.7560  -19.9370  -24.3670 C.3    80  SER80       0.1889
     30  C         -9.7060  -20.3400  -25.4780 C.2    80  SER80       0.2288
     31  O         -9.2940  -20.8050  -26.4970 O.2    80  SER80      -0.2866
     32  CB        -8.8260  -20.9510  -23.2620 C.3    80  SER80       0.2089
     33  OG        -8.2260  -22.1220  -23.6620 O.3    80  SER80      -0.2183
     34  N         -9.4990  -17.5970  -28.4560 N.3    82  ARG82      -0.1245
     35  CA        -8.3580  -17.7210  -29.3400 C.3    82  ARG82       0.1563
     36  C         -8.4970  -18.8150  -30.3680 C.2    82  ARG82       0.2260
     37  O         -7.9660  -18.7320  -31.4230 O.2    82  ARG82      -0.2867
     38  CB        -7.0610  -17.8500  -28.5390 C.3    82  ARG82       0.0307
     39  CG        -6.5030  -19.2450  -28.3680 C.3    82  ARG82       0.0489
     40  CD        -5.1660  -19.2090  -27.6280 C.3    82  ARG82       0.2205
     41  NE        -5.1070  -20.0060  -26.3960 N.pl3  82  ARG82      -0.0865
     42  CZ        -4.9440  -19.5070  -25.1720 C.cat  82  ARG82       0.5346
     43  NH1       -4.9030  -20.3300  -24.1450 N.pl3  82  ARG82       0.1354
     44  NH2       -4.8440  -18.1990  -24.9720 N.pl3  82  ARG82       0.1354
     45  N        -10.2550  -12.9070  -13.4020 N.3   106  PRO106     -0.2102
     46  CA        -9.1620  -13.5660  -14.1170 C.3   106  PRO106      0.1504
     47  C         -8.8170  -14.9580  -13.6480 C.2   106  PRO106      0.2575
     48  O         -8.2140  -15.6720  -14.4100 O.2   106  PRO106     -0.2718
     49  CB        -7.9960  -12.6540  -13.8690 C.3   106  PRO106      0.0282
     50  CG        -8.1750  -12.2610  -12.4800 C.3   106  PRO106      0.0208
     51  CD        -9.5920  -11.8550  -12.4860 C.3   106  PRO106      0.0893
     52  N         -9.1710  -15.3480  -12.4410 N.am  107  GLN107     -0.1980
     53  CA        -8.9210  -16.7130  -12.0190 C.3   107  GLN107      0.1601
     54  C         -9.6480  -17.1210  -10.7570 C.2   107  GLN107      0.2287
     55  O        -10.0400  -16.2960   -9.9620 O.2   107  GLN107     -0.2864
     56  CB        -7.4320  -16.9560  -11.8680 C.3   107  GLN107      0.0394
     57  CG        -6.8470  -16.3250  -10.6350 C.3   107  GLN107      0.0908
     58  CD        -6.0930  -15.0660  -10.9440 C.2   107  GLN107      0.2608
     59  OE1       -5.3290  -15.0090  -11.8890 O.2   107  GLN107     -0.2717
     60  NE2       -6.2980  -14.0500  -10.1360 N.am  107  GLN107     -0.0878
     61  N        -12.7340  -22.5150  -13.8500 N.3   116  GLU116     -0.1231
     62  CA       -11.6280  -22.6320  -14.7560 C.3   116  GLU116      0.1699
     63  C        -11.7380  -23.9030  -15.5340 C.2   116  GLU116      0.2593
     64  O        -12.5600  -24.7260  -15.2650 O.2   116  GLU116     -0.2718
     65  CB       -10.3270  -22.6600  -14.0130 C.3   116  GLU116      0.0402
     66  CG        -9.9290  -21.3390  -13.4570 C.3   116  GLU116      0.1161
     67  CD        -8.5810  -21.3760  -12.8240 C.2   116  GLU116      0.3649
     68  OE1       -7.6980  -22.0590  -13.3370 O.co2 116  GLU116     -0.2457
     69  OE2       -8.4050  -20.7120  -11.8140 O.co2 116  GLU116     -0.2457
     70  N        -10.8860  -24.0420  -16.5210 N.am  117  GLY117     -0.1943
     71  CA       -10.8550  -25.2210  -17.3410 C.3   117  GLY117      0.1998
     72  C         -9.4340  -25.6210  -17.6010 C.2   117  GLY117      0.2481
     73  O         -8.5290  -24.9520  -17.1750 O.2   117  GLY117     -0.2729
     74  N         -9.2680  -26.7840  -18.3620 N.am  118  PRO118     -0.2715
     75  CA        -7.8580  -27.1890  -18.5210 C.3   118  PRO118      0.1536
     76  C         -6.9650  -26.3030  -19.3660 C.2   118  PRO118      0.2599
     77  O         -7.3770  -25.8380  -20.3930 O.2   118  PRO118     -0.2715
     78  CB        -7.9460  -28.5710  -19.1240 C.3   118  PRO118      0.0310
     79  CG        -9.1490  -28.5420  -19.9280 C.3   118  PRO118      0.0237
     80  CD       -10.1180  -27.8720  -19.0530 C.3   118  PRO118      0.0939
     81  N         -5.7350  -26.0980  -18.9140 N.am  119  GLY119     -0.1955
     82  CA        -4.7840  -25.2160  -19.5690 C.3   119  GLY119      0.1869
     83  C         -4.3650  -25.6400  -20.9660 C.2   119  GLY119      0.2309
     84  O         -3.5850  -24.9410  -21.6170 O.2   119  GLY119     -0.2863
@<TRIPOS>BOND
     1    37    36    2
     2    36    35    1
     3    35    38    1
     4    35    34    1
     5    38    39    1
     6    39    40    1
     7    40    41    1
     8    31    30    2
     9    41    42    2
    10    30    29    1
    11    42    44    1
    12    42    43    1
    13     1     2    1
    14    29    28    1
    15    29    32    1
    16     3     2    1
    17     3     4    2
    18     2     5    1
    19    33    32    1
    20     5     6    1
    21     6     7    1
    22    23    22    2
    23    84    83    2
    24    22    21    1
    25     7     9   am
    26     7     8    2
    27    83    82    1
    28    19    18    2
    29    77    76    2
    30    21    24    1
    31    21    20    1
    32    25    24    1
    33    25    26    1
    34    79    78    1
    35    79    80    1
    36    18    20   am
    37    18    17    1
    38    82    81    1
    39    76    81   am
    40    76    75    1
    41    78    75    1
    42    26    27    1
    43    80    74    1
    44    17    16    1
    45    75    74    1
    46    74    72   am
    47    13    12    2
    48    72    71    1
    49    72    73    2
    50    71    70    1
    51    12    11    1
    52    70    63   am
    53    10    11    1
    54    63    64    2
    55    63    62    1
    56    11    14    1
    57    14    15    1
    58    62    65    1
    59    62    61    1
    60    48    47    2
    61    46    49    1
    62    46    47    1
    63    46    45    1
    64    65    66    1
    65    49    50    1
    66    47    52   am
    67    66    67    1
    68    45    51    1
    69    68    67   ar
    70    67    69   ar
    71    51    50    1
    72    52    53    1
    73    53    56    1
    74    53    54    1
    75    59    58    2
    76    56    57    1
    77    58    57    1
    78    58    60   am
    79    54    55    2
