@<TRIPOS>MOLECULE
tmp/5bqfA00.pdb
 108 104 0 0 0
SMALL
GASTEIGER

@<TRIPOS>ATOM
      1  N         15.8850   -5.9920   15.0870 N.3     9  ILE9       -0.1245
      2  CA        16.4780   -7.0750   14.2960 C.3     9  ILE9        0.1561
      3  C         15.5240   -8.2560   14.3680 C.2     9  ILE9        0.2260
      4  O         15.3970   -8.8700   15.4160 O.2     9  ILE9       -0.2867
      5  CB        17.8800   -7.4470   14.8290 C.3     9  ILE9        0.0252
      6  CG1       18.8470   -6.2770   14.6300 C.3     9  ILE9        0.0019
      7  CG2       18.4010   -8.7420   14.1840 C.3     9  ILE9        0.0019
      8  CD1       20.1370   -6.4540   15.4100 C.3     9  ILE9        0.0001
      9  N         15.4240  -11.4090   13.8030 N.3    11  PHE11      -0.1241
     10  CA        15.9860  -12.7550   13.7760 C.3    11  PHE11       0.1605
     11  C         16.5600  -13.0720   15.1410 C.2    11  PHE11       0.2264
     12  O         17.1380  -12.2040   15.7680 O.2    11  PHE11      -0.2867
     13  CB        17.0670  -12.8930   12.6890 C.3    11  PHE11       0.0534
     14  CG        17.4400  -14.3150   12.3910 C.ar   11  PHE11      -0.0203
     15  CD1       16.6590  -15.0910   11.5480 C.ar   11  PHE11      -0.0042
     16  CD2       18.5710  -14.8860   12.9670 C.ar   11  PHE11      -0.0042
     17  CE1       16.9940  -16.4100   11.2790 C.ar   11  PHE11      -0.0003
     18  CE2       18.9140  -16.2030   12.7050 C.ar   11  PHE11      -0.0003
     19  CZ        18.1280  -16.9680   11.8610 C.ar   11  PHE11      -0.0000
     20  N         17.2880   -4.7470   11.0140 N.3    51  TRP51      -0.1227
     21  CA        17.2330   -5.8590   10.0560 C.3    51  TRP51       0.1737
     22  C         15.7690   -6.2130    9.8840 C.2    51  TRP51       0.2595
     23  O         15.1260   -6.6750   10.8220 O.2    51  TRP51      -0.2718
     24  CB        18.0590   -7.0750   10.5080 C.3    51  TRP51       0.0564
     25  CG        18.1920   -8.0890    9.3920 C.ar   51  TRP51       0.0003
     26  CD1       19.0650   -8.0440    8.3450 C.ar   51  TRP51       0.0946
     27  CD2       17.3990   -9.2680    9.2070 C.ar   51  TRP51       0.0152
     28  NE1       18.8690   -9.1210    7.5240 N.ar   51  TRP51      -0.2442
     29  CE2       17.8490   -9.8890    8.0210 C.ar   51  TRP51       0.0810
     30  CE3       16.3540   -9.8590    9.9240 C.ar   51  TRP51       0.0012
     31  CZ2       17.2970  -11.0910    7.5470 C.ar   51  TRP51       0.0191
     32  CZ3       15.8000  -11.0560    9.4420 C.ar   51  TRP51       0.0001
     33  CH2       16.2880  -11.6570    8.2710 C.ar   51  TRP51       0.0015
     34  N         15.2610   -5.9860    8.6740 N.am   52  LYS52      -0.1980
     35  CA        13.8260   -6.0520    8.3740 C.3    52  LYS52       0.1596
     36  C         13.0110   -5.2070    9.3670 C.2    52  LYS52       0.2287
     37  O         12.1210   -5.7280   10.0410 O.2    52  LYS52      -0.2864
     38  CB        13.3470   -7.5140    8.3370 C.3    52  LYS52       0.0298
     39  CG        14.0120   -8.3510    7.2560 C.3    52  LYS52       0.0038
     40  CD        13.3360   -9.7070    7.0990 C.3    52  LYS52       0.0206
     41  CE        13.9030  -10.4700    5.9200 C.3    52  LYS52       0.1093
     42  NZ        13.2710  -11.8110    5.7780 N.3    52  LYS52      -0.1314
     43  N         21.6950   -4.5000   10.1800 N.3    70  GLY70      -0.1210
     44  CA        21.8320   -5.5930   11.1080 C.3    70  GLY70       0.1956
     45  C         22.1890   -6.9170   10.4680 C.2    70  GLY70       0.2612
     46  O         22.1940   -7.9220   11.1430 O.2    70  GLY70      -0.2717
     47  N         22.4920   -6.9260    9.1740 N.am   71  GLY71      -0.1956
     48  CA        23.0090   -8.1230    8.5400 C.3    71  GLY71       0.1869
     49  C         24.0060   -7.7120    7.4940 C.2    71  GLY71       0.2309
     50  O         24.2900   -6.5390    7.3110 O.2    71  GLY71      -0.2863
     51  N         14.1480  -19.2190    0.9670 N.3   261  GLU261     -0.1245
     52  CA        14.8380  -19.9220    2.0310 C.3   261  GLU261      0.1567
     53  C         13.8800  -20.1170    3.2220 C.2   261  GLU261      0.2260
     54  O         13.1360  -19.1880    3.5380 O.2   261  GLU261     -0.2867
     55  CB        16.0600  -19.1320    2.4670 C.3   261  GLU261      0.0388
     56  CG        17.0730  -18.9790    1.3350 C.3   261  GLU261      0.1160
     57  CD        18.2940  -18.1470    1.6910 C.2   261  GLU261      0.3649
     58  OE1       18.4200  -17.7110    2.8530 O.co2 261  GLU261     -0.2457
     59  OE2       19.1390  -17.9390    0.7900 O.co2 261  GLU261     -0.2457
     60  N         22.5480  -21.6470    3.5680 N.3   280  HIS280     -0.1241
     61  CA        22.8510  -20.2620    3.9080 C.3   280  HIS280      0.1621
     62  C         23.6350  -20.1640    5.2240 C.2   280  HIS280      0.2264
     63  O         23.2930  -19.4230    6.1560 O.2   280  HIS280     -0.2867
     64  CB        21.5960  -19.3770    3.8500 C.3   280  HIS280      0.0745
     65  CG        21.9180  -17.9250    3.6880 C.ar  280  HIS280      0.0817
     66  ND1       20.9770  -16.9970    3.3070 N.ar  280  HIS280     -0.2268
     67  CD2       23.0800  -17.2440    3.8350 C.ar  280  HIS280      0.1154
     68  CE1       21.5360  -15.8010    3.2500 C.ar  280  HIS280      0.1986
     69  NE2       22.8130  -15.9220    3.5570 N.ar  280  HIS280     -0.2212
     70  N         27.6390  -16.4480    8.1450 N.3   284  VAL284     -0.1231
     71  CA        26.5100  -15.7380    8.7400 C.3   284  VAL284      0.1692
     72  C         26.9360  -14.5300    9.5750 C.2   284  VAL284      0.2593
     73  O         28.0250  -14.5050   10.1490 O.2   284  VAL284     -0.2718
     74  CB        25.6050  -16.6540    9.5800 C.3   284  VAL284      0.0266
     75  CG1       25.0480  -17.7950    8.7280 C.3   284  VAL284      0.0020
     76  CG2       26.3030  -17.1680   10.8200 C.3   284  VAL284      0.0020
     77  N         26.0510  -13.5400    9.6540 N.am  285  SER285     -0.1938
     78  CA        26.2280  -12.4450   10.5950 C.3   285  SER285      0.2055
     79  C         25.9040  -12.9340   12.0030 C.2   285  SER285      0.2643
     80  O         24.9250  -13.6500   12.2340 O.2   285  SER285     -0.2714
     81  CB        25.3870  -11.2290   10.1960 C.3   285  SER285      0.2130
     82  OG        24.0050  -11.5490   10.0850 O.3   285  SER285     -0.2179
     83  N         26.7440  -12.5420   12.9490 N.am  286  GLU286     -0.1963
     84  CA        26.6250  -12.9540   14.3440 C.3   286  GLU286      0.1733
     85  C         26.5030  -11.7100   15.2320 C.2   286  GLU286      0.2616
     86  O         27.0720  -10.6630   14.9370 O.2   286  GLU286     -0.2715
     87  CB        27.8340  -13.8210   14.7050 C.3   286  GLU286      0.0429
     88  CG        27.8010  -14.4370   16.0950 C.3   286  GLU286      0.1163
     89  CD        28.3510  -13.5130   17.1620 C.2   286  GLU286      0.3649
     90  OE1       29.2960  -12.7350   16.8440 O.co2 286  GLU286     -0.2457
     91  OE2       27.8280  -13.5470   18.3110 O.co2 286  GLU286     -0.2457
     92  N         25.7700  -11.8460   16.3340 N.am  287  GLU287     -0.1977
     93  CA        25.3220  -10.6960   17.1330 C.3   287  GLU287      0.1602
     94  C         26.4560   -9.9430   17.8040 C.2   287  GLU287      0.2287
     95  O         26.4880   -8.7210   17.7340 O.2   287  GLU287     -0.2864
     96  CB        24.2870  -11.1150   18.1810 C.3   287  GLU287      0.0415
     97  CG        22.9280  -11.5360   17.6260 C.3   287  GLU287      0.1163
     98  CD        22.8600  -12.9550   17.0660 C.2   287  GLU287      0.3649
     99  OE1       21.7640  -13.3090   16.5940 O.co2 287  GLU287     -0.2457
    100  OE2       23.8470  -13.7460   17.0850 O.co2 287  GLU287     -0.2457
    101  N         28.3500   -8.0450   15.1780 N.3   290  LEU290     -0.1245
    102  CA        27.5300   -6.9190   14.7510 C.3   290  LEU290      0.1561
    103  C         27.6050   -5.7560   15.7530 C.2   290  LEU290      0.2260
    104  O         27.8420   -4.6120   15.3790 O.2   290  LEU290     -0.2867
    105  CB        26.0790   -7.3630   14.5820 C.3   290  LEU290      0.0270
    106  CG        25.0950   -6.2480   14.2430 C.3   290  LEU290      0.0019
    107  CD1       25.4460   -5.6290   12.8940 C.3   290  LEU290      0.0001
    108  CD2       23.6680   -6.7630   14.2470 C.3   290  LEU290      0.0001
@<TRIPOS>BOND
     1    59    57   ar
     2    51    52    1
     3    56    57    1
     4    56    55    1
     5    57    58   ar
     6    52    55    1
     7    52    53    1
     8    53    54    2
     9    68    66   ar
    10    68    69   ar
    11    66    65   ar
    12    69    67   ar
    13    60    61    1
    14    65    67   ar
    15    65    64    1
    16    64    61    1
    17    61    62    1
    18    62    63    2
    19    42    41    1
    20    41    40    1
    21    40    39    1
    22    39    38    1
    23    50    49    2
    24    49    48    1
    25    28    29   ar
    26    28    26   ar
    27    31    29   ar
    28    31    33   ar
    29    29    27   ar
    30    70    71    1
    31    33    32   ar
    32    38    35    1
    33    26    25   ar
    34    35    34    1
    35    35    36    1
    36    48    47    1
    37    34    22   am
    38    75    74    1
    39    71    72    1
    40    71    74    1
    41    47    45   am
    42    27    25   ar
    43    27    30   ar
    44    36    37    2
    45    25    24    1
    46    32    30   ar
    47    72    77   am
    48    72    73    2
    49    74    76    1
    50    77    78    1
    51    22    21    1
    52    22    23    2
    53    21    24    1
    54    21    20    1
    55    82    81    1
    56    43    44    1
    57    81    78    1
    58    45    44    1
    59    45    46    2
    60    78    79    1
    61    17    15   ar
    62    17    19   ar
    63    15    14   ar
    64    19    18   ar
    65    79    80    2
    66    79    83   am
    67    14    13    1
    68    14    16   ar
    69    13    10    1
    70    18    16   ar
    71   107   106    1
    72    83    84    1
    73    10     9    1
    74    10    11    1
    75     7     5    1
    76   106   108    1
    77   106   105    1
    78     2     3    1
    79     2     5    1
    80     2     1    1
    81    84    87    1
    82    84    85    1
    83     3     4    2
    84   105   102    1
    85     6     5    1
    86     6     8    1
    87    87    88    1
    88   102   101    1
    89   102   103    1
    90    86    85    2
    91    11    12    2
    92    85    92   am
    93   104   103    2
    94    88    89    1
    95    92    93    1
    96    99    98   ar
    97    90    89   ar
    98    98   100   ar
    99    98    97    1
   100    93    94    1
   101    93    96    1
   102    89    91   ar
   103    97    96    1
   104    95    94    2
