@<TRIPOS>MOLECULE
tmp/5bqfA02.pdb
 75 73 0 0 0
SMALL
GASTEIGER

@<TRIPOS>ATOM
      1  N         17.2880   -4.7470   11.0140 N.3    51  TRP51      -0.1241
      2  CA        17.2330   -5.8590   10.0560 C.3    51  TRP51       0.1605
      3  C         15.7690   -6.2130    9.8840 C.2    51  TRP51       0.2264
      4  O         15.1260   -6.6750   10.8220 O.2    51  TRP51      -0.2867
      5  CB        18.0590   -7.0750   10.5080 C.3    51  TRP51       0.0550
      6  CG        18.1920   -8.0890    9.3920 C.ar   51  TRP51       0.0003
      7  CD1       19.0650   -8.0440    8.3450 C.ar   51  TRP51       0.0946
      8  CD2       17.3990   -9.2680    9.2070 C.ar   51  TRP51       0.0152
      9  NE1       18.8690   -9.1210    7.5240 N.ar   51  TRP51      -0.2442
     10  CE2       17.8490   -9.8890    8.0210 C.ar   51  TRP51       0.0810
     11  CE3       16.3540   -9.8590    9.9240 C.ar   51  TRP51       0.0012
     12  CZ2       17.2970  -11.0910    7.5470 C.ar   51  TRP51       0.0191
     13  CZ3       15.8000  -11.0560    9.4420 C.ar   51  TRP51       0.0001
     14  CH2       16.2880  -11.6570    8.2710 C.ar   51  TRP51       0.0015
     15  N         22.4920   -6.9260    9.1740 N.3    71  GLY71      -0.1210
     16  CA        23.0090   -8.1230    8.5400 C.3    71  GLY71       0.1956
     17  C         24.0060   -7.7120    7.4940 C.2    71  GLY71       0.2612
     18  O         24.2900   -6.5390    7.3110 O.2    71  GLY71      -0.2717
     19  N         24.5580   -8.6960    6.7950 N.am   72  ALA72      -0.1965
     20  CA        25.6530   -8.4350    5.8830 C.3    72  ALA72       0.1728
     21  C         25.2140   -7.9940    4.4900 C.2    72  ALA72       0.2616
     22  O         26.0660   -7.7650    3.6350 O.2    72  ALA72      -0.2715
     23  CB        26.5630   -9.6570    5.8020 C.3    72  ALA72       0.0334
     24  N         23.9070   -7.8750    4.2660 N.am   73  GLY73      -0.1955
     25  CA        23.3730   -7.1730    3.1010 C.3    73  GLY73       0.1869
     26  C         22.5230   -5.9880    3.5170 C.2    73  GLY73       0.2309
     27  O         22.1900   -5.8590    4.7000 O.2    73  GLY73      -0.2863
     28  N         27.1590  -17.5090   -3.5800 N.3   230  ALA230     -0.1231
     29  CA        26.9800  -17.2680   -2.1510 C.3   230  ALA230      0.1694
     30  C         26.6550  -15.8150   -1.8540 C.2   230  ALA230      0.2593
     31  O         26.8300  -15.3530   -0.7250 O.2   230  ALA230     -0.2718
     32  CB        28.2040  -17.7160   -1.3600 C.3   230  ALA230      0.0304
     33  N         26.1300  -15.1010   -2.8460 N.am  231  GLY231     -0.1942
     34  CA        25.6980  -13.7140   -2.6740 C.3   231  GLY231      0.2014
     35  C         24.2720  -13.6850   -2.1590 C.2   231  GLY231      0.2638
     36  O         24.0300  -13.7910   -0.9430 O.2   231  GLY231     -0.2714
     37  N         23.3200  -13.5760   -3.0880 N.am  232  ARG232     -0.1977
     38  CA        21.9060  -13.5920   -2.7500 C.3   232  ARG232      0.1597
     39  C         21.1490  -14.5390   -3.6640 C.2   232  ARG232      0.2287
     40  O         21.3740  -14.5610   -4.8910 O.2   232  ARG232     -0.2864
     41  CB        21.3310  -12.1840   -2.8240 C.3   232  ARG232      0.0334
     42  CG        21.7720  -11.3110   -1.6650 C.3   232  ARG232      0.0492
     43  CD        20.8860  -11.5850   -0.4700 C.3   232  ARG232      0.2205
     44  NE        21.2770  -10.9090    0.7610 N.pl3 232  ARG232     -0.0865
     45  CZ        22.1680  -11.3700    1.6290 C.cat 232  ARG232      0.5346
     46  NH1       22.8160  -12.5010    1.3970 N.pl3 232  ARG232      0.1354
     47  NH2       22.3920  -10.6940    2.7460 N.pl3 232  ARG232      0.1354
     48  N         22.5480  -21.6470    3.5680 N.3   280  HIS280     -0.1241
     49  CA        22.8510  -20.2620    3.9080 C.3   280  HIS280      0.1621
     50  C         23.6350  -20.1640    5.2240 C.2   280  HIS280      0.2264
     51  O         23.2930  -19.4230    6.1560 O.2   280  HIS280     -0.2867
     52  CB        21.5960  -19.3770    3.8500 C.3   280  HIS280      0.0745
     53  CG        21.9180  -17.9250    3.6880 C.ar  280  HIS280      0.0817
     54  ND1       20.9770  -16.9970    3.3070 N.ar  280  HIS280     -0.2268
     55  CD2       23.0800  -17.2440    3.8350 C.ar  280  HIS280      0.1154
     56  CE1       21.5360  -15.8010    3.2500 C.ar  280  HIS280      0.1986
     57  NE2       22.8130  -15.9220    3.5570 N.ar  280  HIS280     -0.2212
     58  N         28.7130  -17.8150    5.7120 N.3   283  ALA283     -0.1231
     59  CA        29.3640  -16.7670    6.5070 C.3   283  ALA283      0.1694
     60  C         28.3110  -15.8860    7.1570 C.2   283  ALA283      0.2592
     61  O         28.1130  -14.7260    6.7780 O.2   283  ALA283     -0.2718
     62  CB        30.2880  -15.9500    5.6290 C.3   283  ALA283      0.0304
     63  N         27.6390  -16.4480    8.1450 N.am  284  VAL284     -0.1966
     64  CA        26.5100  -15.7380    8.7400 C.3   284  VAL284      0.1727
     65  C         26.9360  -14.5300    9.5750 C.2   284  VAL284      0.2616
     66  O         28.0250  -14.5050   10.1490 O.2   284  VAL284     -0.2715
     67  CB        25.6050  -16.6540    9.5800 C.3   284  VAL284      0.0290
     68  CG1       25.0480  -17.7950    8.7280 C.3   284  VAL284      0.0023
     69  CG2       26.3030  -17.1680   10.8200 C.3   284  VAL284      0.0023
     70  N         26.0510  -13.5400    9.6540 N.am  285  SER285     -0.1950
     71  CA        26.2280  -12.4450   10.5950 C.3   285  SER285      0.1924
     72  C         25.9040  -12.9340   12.0030 C.2   285  SER285      0.2314
     73  O         24.9250  -13.6500   12.2340 O.2   285  SER285     -0.2863
     74  CB        25.3870  -11.2290   10.1960 C.3   285  SER285      0.2116
     75  OG        24.0050  -11.5490   10.0850 O.3   285  SER285     -0.2180
@<TRIPOS>BOND
     1    40    39    2
     2    39    38    1
     3    28    29    1
     4    37    38    1
     5    37    35   am
     6    33    34    1
     7    33    30   am
     8    41    38    1
     9    41    42    1
    10    34    35    1
    11    35    36    2
    12    29    30    1
    13    29    32    1
    14    30    31    2
    15    42    43    1
    16    43    44    1
    17    44    45    2
    18    46    45    1
    19    45    47    1
    20    25    26    1
    21    25    24    1
    22    56    54   ar
    23    56    57   ar
    24    54    53   ar
    25    26    27    2
    26    57    55   ar
    27    48    49    1
    28    22    21    2
    29    53    55   ar
    30    53    52    1
    31    52    49    1
    32    49    50    1
    33    24    21   am
    34    21    20    1
    35    50    51    2
    36    62    59    1
    37    58    59    1
    38    23    20    1
    39    20    19    1
    40    59    60    1
    41    61    60    2
    42    19    17   am
    43    60    63   am
    44    18    17    2
    45    17    16    1
    46     9    10   ar
    47     9     7   ar
    48    12    10   ar
    49    12    14   ar
    50    10     8   ar
    51    63    64    1
    52    14    13   ar
    53     7     6   ar
    54    16    15    1
    55    68    67    1
    56    64    65    1
    57    64    67    1
    58     8     6   ar
    59     8    11   ar
    60     6     5    1
    61    13    11   ar
    62    65    70   am
    63    65    66    2
    64    67    69    1
    65    70    71    1
    66     3     2    1
    67     3     4    2
    68     2     5    1
    69     2     1    1
    70    75    74    1
    71    74    71    1
    72    71    72    1
    73    72    73    2
