@<TRIPOS>MOLECULE
tmp/5bqpC01.pdb
 96 94 0 0 0
SMALL
GASTEIGER

@<TRIPOS>ATOM
      1  N         -3.5670   39.0780  -22.4660 N.3   145  VAL145     -0.1231
      2  CA        -2.7310   38.6220  -23.5660 C.3   145  VAL145      0.1692
      3  C         -2.3970   39.7860  -24.5250 C.2   145  VAL145      0.2592
      4  O         -1.3140   39.8390  -25.0920 O.2   145  VAL145     -0.2718
      5  CB        -3.4130   37.4550  -24.3380 C.3   145  VAL145      0.0266
      6  CG1       -2.6830   37.1300  -25.6400 C.3   145  VAL145      0.0020
      7  CG2       -3.4880   36.2290  -23.4710 C.3   145  VAL145      0.0020
      8  N         -3.3190   40.7260  -24.6880 N.am  146  ARG146     -0.1966
      9  CA        -3.0700   41.8610  -25.5600 C.3   146  ARG146      0.1729
     10  C         -1.9840   42.7740  -24.9790 C.2   146  ARG146      0.2616
     11  O         -1.3190   43.4750  -25.7240 O.2   146  ARG146     -0.2715
     12  CB        -4.3590   42.6470  -25.8100 C.3   146  ARG146      0.0348
     13  CG        -5.2730   41.9690  -26.8340 C.3   146  ARG146      0.0492
     14  CD        -6.4560   42.8740  -27.2230 C.3   146  ARG146      0.2205
     15  NE        -7.3960   43.0520  -26.1170 N.pl3 146  ARG146     -0.0865
     16  CZ        -8.4630   42.2860  -25.9080 C.cat 146  ARG146      0.5346
     17  NH1       -8.7480   41.2930  -26.7540 N.pl3 146  ARG146      0.1354
     18  NH2       -9.2510   42.5240  -24.8630 N.pl3 146  ARG146      0.1354
     19  N         -1.8260   42.7610  -23.6540 N.am  147  GLU147     -0.1963
     20  CA        -0.7500   43.5070  -22.9970 C.3   147  GLU147      0.1733
     21  C          0.5730   42.7450  -23.0390 C.2   147  GLU147      0.2616
     22  O          1.6250   43.3310  -23.3010 O.2   147  GLU147     -0.2715
     23  CB        -1.1310   43.8350  -21.5530 C.3   147  GLU147      0.0429
     24  CG        -2.2700   44.8230  -21.4630 C.3   147  GLU147      0.1163
     25  CD        -2.7230   45.0900  -20.0370 C.2   147  GLU147      0.3649
     26  OE1       -2.2570   44.3780  -19.1220 O.co2 147  GLU147     -0.2457
     27  OE2       -3.5600   46.0030  -19.8360 O.co2 147  GLU147     -0.2457
     28  N          0.5130   41.4390  -22.8000 N.am  148  ASN148     -0.1958
     29  CA         1.6910   40.5790  -22.8560 C.3   148  ASN148      0.1819
     30  C          1.3650   39.1810  -23.3710 C.2   148  ASN148      0.2622
     31  O          0.7880   38.3710  -22.6470 O.2   148  ASN148     -0.2715
     32  CB         2.3380   40.4830  -21.4720 C.3   148  ASN148      0.1195
     33  CG         3.5260   39.5400  -21.4540 C.2   148  ASN148      0.2630
     34  OD1        4.0760   39.1940  -22.5020 O.2   148  ASN148     -0.2716
     35  ND2        3.9330   39.1210  -20.2590 N.am  148  ASN148     -0.0877
     36  N          1.7720   38.8850  -24.6030 N.am  149  SER149     -0.1936
     37  CA         1.3590   37.6520  -25.2670 C.3   149  SER149      0.2055
     38  C          2.0460   36.4020  -24.7180 C.2   149  SER149      0.2643
     39  O          1.7540   35.2880  -25.1590 O.2   149  SER149     -0.2714
     40  CB         1.5920   37.7550  -26.7850 C.3   149  SER149      0.2130
     41  OG         2.9650   37.8800  -27.1120 O.3   149  SER149     -0.2179
     42  N          2.9250   36.5820  -23.7340 N.am  150  ASN150     -0.1971
     43  CA         3.6070   35.4530  -23.1200 C.3   150  ASN150      0.1688
     44  C          2.8680   34.8740  -21.9260 C.2   150  ASN150      0.2292
     45  O          3.2780   33.8370  -21.3840 O.2   150  ASN150     -0.2864
     46  CB         5.0170   35.8690  -22.7000 C.3   150  ASN150      0.1181
     47  CG         5.9320   36.0470  -23.8930 C.2   150  ASN150      0.2629
     48  OD1        6.4810   37.1240  -24.1160 O.2   150  ASN150     -0.2716
     49  ND2        6.0810   34.9910  -24.6800 N.am  150  ASN150     -0.0877
     50  N         -6.4700   32.5590  -30.3310 N.3   159  PHE159     -0.1227
     51  CA        -6.6760   33.9750  -30.1180 C.3   159  PHE159      0.1736
     52  C         -5.7380   34.8150  -30.9630 C.2   159  PHE159      0.2595
     53  O         -6.1450   35.7990  -31.5850 O.2   159  PHE159     -0.2718
     54  CB        -6.4860   34.3730  -28.6610 C.3   159  PHE159      0.0547
     55  CG        -6.4850   35.8520  -28.4780 C.ar  159  PHE159     -0.0202
     56  CD1       -7.6780   36.5580  -28.5380 C.ar  159  PHE159     -0.0042
     57  CD2       -5.3080   36.5570  -28.3120 C.ar  159  PHE159     -0.0042
     58  CE1       -7.6990   37.9160  -28.4070 C.ar  159  PHE159     -0.0003
     59  CE2       -5.3250   37.9290  -28.1910 C.ar  159  PHE159     -0.0003
     60  CZ        -6.5300   38.6090  -28.2280 C.ar  159  PHE159     -0.0000
     61  N         -4.4660   34.4380  -30.9830 N.am  160  LEU160     -0.1980
     62  CA        -3.4800   35.2660  -31.6670 C.3   160  LEU160      0.1596
     63  C         -3.7420   35.3490  -33.1640 C.2   160  LEU160      0.2287
     64  O         -3.5520   36.3980  -33.7630 O.2   160  LEU160     -0.2864
     65  CB        -2.0670   34.7390  -31.3960 C.3   160  LEU160      0.0297
     66  CG        -1.6060   35.0580  -29.9760 C.3   160  LEU160      0.0022
     67  CD1       -0.2170   34.4970  -29.6860 C.3   160  LEU160      0.0001
     68  CD2       -1.6430   36.5440  -29.7130 C.3   160  LEU160      0.0001
     69  N         -6.5780   37.7820  -33.4150 N.3   163  TYR163     -0.1227
     70  CA        -6.0700   39.1140  -33.0920 C.3   163  TYR163      0.1736
     71  C         -5.3210   39.7130  -34.2780 C.2   163  TYR163      0.2595
     72  O         -5.4130   40.9010  -34.5550 O.2   163  TYR163     -0.2718
     73  CB        -5.1430   39.0410  -31.8780 C.3   163  TYR163      0.0548
     74  CG        -4.6680   40.3820  -31.3480 C.ar  163  TYR163     -0.0200
     75  CD1       -5.5660   41.4070  -31.0910 C.ar  163  TYR163     -0.0009
     76  CD2       -3.3260   40.6060  -31.0740 C.ar  163  TYR163     -0.0009
     77  CE1       -5.1430   42.6280  -30.5930 C.ar  163  TYR163      0.0417
     78  CE2       -2.8900   41.8300  -30.5640 C.ar  163  TYR163      0.0417
     79  CZ        -3.8080   42.8310  -30.3230 C.ar  163  TYR163      0.1957
     80  OH        -3.4000   44.0450  -29.8230 O.3   163  TYR163     -0.2866
     81  N         -4.5740   38.8740  -34.9740 N.am  164  ASN164     -0.1974
     82  CA        -3.8600   39.3430  -36.1520 C.3   164  ASN164      0.1688
     83  C         -4.8070   39.7950  -37.2580 C.2   164  ASN164      0.2292
     84  O         -4.5390   40.7890  -37.9330 O.2   164  ASN164     -0.2864
     85  CB        -2.9050   38.2540  -36.6470 C.3   164  ASN164      0.1181
     86  CG        -1.5680   38.2870  -35.9090 C.2   164  ASN164      0.2629
     87  OD1       -1.1980   39.3060  -35.3060 O.2   164  ASN164     -0.2716
     88  ND2       -0.8420   37.1720  -35.9460 N.am  164  ASN164     -0.0877
     89  N         -6.1560   43.3170  -36.1230 N.3   167  LEU167     -0.1245
     90  CA        -5.2050   44.4130  -36.2230 C.3   167  LEU167      0.1561
     91  C         -5.1800   44.9440  -37.6570 C.2   167  LEU167      0.2260
     92  O         -5.0740   46.1490  -37.8690 O.2   167  LEU167     -0.2867
     93  CB        -3.8140   43.9690  -35.7650 C.3   167  LEU167      0.0270
     94  CG        -3.6720   43.7020  -34.2580 C.3   167  LEU167      0.0019
     95  CD1       -2.3730   42.9810  -33.9440 C.3   167  LEU167      0.0001
     96  CD2       -3.7520   45.0010  -33.4710 C.3   167  LEU167      0.0001
@<TRIPOS>BOND
     1    84    83    2
     2    92    91    2
     3    91    90    1
     4    83    82    1
     5    85    82    1
     6    85    86    1
     7    90    89    1
     8    90    93    1
     9    82    81    1
    10    88    86   am
    11    86    87    2
    12    93    94    1
    13    81    71   am
    14    72    71    2
    15    71    70    1
    16    94    95    1
    17    94    96    1
    18    64    63    2
    19    69    70    1
    20    63    62    1
    21    70    73    1
    22    73    74    1
    23    62    65    1
    24    62    61    1
    25    53    52    2
    26    65    66    1
    27    74    75   ar
    28    74    76   ar
    29    75    77   ar
    30    76    78   ar
    31    61    52   am
    32    52    51    1
    33    77    79   ar
    34    78    79   ar
    35    50    51    1
    36    79    80    1
    37    51    54    1
    38    66    68    1
    39    66    67    1
    40    54    55    1
    41    56    55   ar
    42    56    58   ar
    43    55    57   ar
    44    58    60   ar
    45    57    59   ar
    46    60    59   ar
    47    14    13    1
    48    14    15    1
    49    41    40    1
    50    13    12    1
    51    40    37    1
    52    17    16    1
    53    15    16    2
    54    16    18    1
    55    12     9    1
    56    11    10    2
    57     6     5    1
    58     9    10    1
    59     9     8    1
    60    37    38    1
    61    37    36    1
    62    39    38    2
    63     4     3    2
    64    10    19   am
    65    38    42   am
    66     8     3   am
    67    49    47   am
    68    36    30   am
    69     3     2    1
    70     5     2    1
    71     5     7    1
    72    48    47    2
    73    47    46    1
    74    42    43    1
    75    19    20    1
    76     2     1    1
    77    30    29    1
    78    30    31    2
    79    22    21    2
    80    43    46    1
    81    43    44    1
    82    21    20    1
    83    21    28   am
    84    20    23    1
    85    29    28    1
    86    29    32    1
    87    34    33    2
    88    44    45    2
    89    23    24    1
    90    32    33    1
    91    24    25    1
    92    33    35   am
    93    25    27   ar
    94    25    26   ar
