@<TRIPOS>MOLECULE
tmp/5bqpA00.pdb
 111 106 0 0 0
SMALL
GASTEIGER

@<TRIPOS>ATOM
      1  N        -24.4910   36.2870   26.9530 N.3    37  GLY37      -0.1225
      2  CA       -23.3880   35.4210   26.5180 C.3    37  GLY37       0.1811
      3  C        -22.0110   36.0220   26.8310 C.2    37  GLY37       0.2280
      4  O        -21.0450   35.2860   27.0430 O.2    37  GLY37      -0.2866
      5  N        -31.0450   38.4210   20.0970 N.3    61  PHE61      -0.1241
      6  CA       -31.1770   38.1790   18.6660 C.3    61  PHE61       0.1605
      7  C        -31.9190   36.8600   18.4360 C.2    61  PHE61       0.2264
      8  O        -31.3140   35.8010   18.5750 O.2    61  PHE61      -0.2867
      9  CB       -29.7950   38.1530   18.0100 C.3    61  PHE61       0.0534
     10  CG       -29.8260   38.0520   16.5090 C.ar   61  PHE61      -0.0203
     11  CD1      -30.9980   38.2460   15.8030 C.ar   61  PHE61      -0.0042
     12  CD2      -28.6760   37.7510   15.8050 C.ar   61  PHE61      -0.0042
     13  CE1      -31.0160   38.1450   14.4200 C.ar   61  PHE61      -0.0003
     14  CE2      -28.6900   37.6570   14.4190 C.ar   61  PHE61      -0.0003
     15  CZ       -29.8550   37.8520   13.7310 C.ar   61  PHE61      -0.0000
     16  N        -18.2280   39.7190   23.8110 N.3    83  ASP83      -0.1225
     17  CA       -19.2800   38.7130   23.6550 C.3    83  ASP83       0.1805
     18  C        -18.6520   37.3270   23.5980 C.2    83  ASP83       0.2598
     19  O        -17.4160   37.1900   23.4910 O.2    83  ASP83      -0.2718
     20  CB       -20.0930   39.0040   22.3760 C.3    83  ASP83       0.1424
     21  CG       -21.5540   38.4920   22.4570 C.2    83  ASP83       0.3668
     22  OD1      -21.9480   37.8630   23.4710 O.co2  83  ASP83      -0.2456
     23  OD2      -22.3100   38.7030   21.4590 O.co2  83  ASP83      -0.2456
     24  N        -19.4700   36.2840   23.6180 N.am   84  ASP84      -0.1960
     25  CA       -18.9020   34.9420   23.5600 C.3    84  ASP84       0.1840
     26  C        -18.6720   34.4710   22.1210 C.2    84  ASP84       0.2621
     27  O        -17.6640   33.8530   21.8640 O.2    84  ASP84      -0.2715
     28  CB       -19.7130   33.9000   24.3510 C.3    84  ASP84       0.1450
     29  CG       -21.2030   33.8760   24.0440 C.2    84  ASP84       0.3671
     30  OD1      -21.7280   34.6040   23.1590 O.co2  84  ASP84      -0.2456
     31  OD2      -21.8690   33.1000   24.7710 O.co2  84  ASP84      -0.2456
     32  N        -19.5990   34.7350   21.2010 N.am   85  VAL85      -0.1977
     33  CA       -19.3980   34.2590   19.8170 C.3    85  VAL85       0.1596
     34  C        -19.8840   35.3350   18.8530 C.2    85  VAL85       0.2287
     35  O        -20.8900   36.0030   19.1150 O.2    85  VAL85      -0.2864
     36  CB       -20.1440   32.9030   19.5780 C.3    85  VAL85       0.0276
     37  CG1      -21.6370   33.0380   19.8980 C.3    85  VAL85       0.0022
     38  CG2      -19.9360   32.4010   18.1110 C.3    85  VAL85       0.0022
     39  N        -21.3550   35.2040   15.2620 N.3    87  ASP87      -0.1239
     40  CA       -21.8470   34.2570   14.2670 C.3    87  ASP87       0.1674
     41  C        -22.2700   35.0320   13.0270 C.2    87  ASP87       0.2266
     42  O        -21.5160   35.0990   12.0560 O.2    87  ASP87      -0.2867
     43  CB       -23.0120   33.4530   14.8140 C.3    87  ASP87       0.1410
     44  CG       -23.3880   32.2780   13.8890 C.2    87  ASP87       0.3668
     45  OD1      -23.6920   32.5430   12.7220 O.co2  87  ASP87      -0.2456
     46  OD2      -23.3750   31.1100   14.3140 O.co2  87  ASP87      -0.2456
     47  N        -17.1760   32.8430   13.7580 N.3   115  LYS115     -0.1245
     48  CA       -17.5600   32.0100   12.5990 C.3   115  LYS115      0.1561
     49  C        -17.0120   32.6640   11.3290 C.2   115  LYS115      0.2260
     50  O        -17.0120   33.8730   11.2170 O.2   115  LYS115     -0.2867
     51  CB       -19.0880   31.8650   12.5060 C.3   115  LYS115      0.0271
     52  CG       -19.7320   31.3090   13.7760 C.3   115  LYS115      0.0035
     53  CD       -19.3250   29.8500   14.1020 C.3   115  LYS115      0.0206
     54  CE       -20.0280   29.3990   15.3950 C.3   115  LYS115      0.1093
     55  NZ       -21.5250   29.3070   15.2150 N.3   115  LYS115     -0.1314
     56  N        -21.2100   24.6320   15.5450 N.3   132  TRP132     -0.1227
     57  CA       -21.9950   25.2980   16.5920 C.3   132  TRP132      0.1737
     58  C        -21.2930   25.1140   17.9420 C.2   132  TRP132      0.2595
     59  O        -20.9680   23.9990   18.3330 O.2   132  TRP132     -0.2718
     60  CB       -23.4220   24.7460   16.6740 C.3   132  TRP132      0.0564
     61  CG       -24.3810   25.5810   17.5590 C.ar  132  TRP132      0.0003
     62  CD1      -24.7760   25.3220   18.8530 C.ar  132  TRP132      0.0946
     63  CD2      -25.0220   26.8040   17.1840 C.ar  132  TRP132      0.0152
     64  NE1      -25.6400   26.3110   19.2940 N.ar  132  TRP132     -0.2442
     65  CE2      -25.8010   27.2310   18.2850 C.ar  132  TRP132      0.0810
     66  CE3      -25.0200   27.5760   16.0140 C.ar  132  TRP132      0.0012
     67  CZ2      -26.5660   28.3970   18.2450 C.ar  132  TRP132      0.0191
     68  CZ3      -25.7690   28.7440   15.9820 C.ar  132  TRP132      0.0001
     69  CH2      -26.5390   29.1370   17.0930 C.ar  132  TRP132      0.0015
     70  N        -21.0760   26.2010   18.6610 N.am  133  ILE133     -0.1980
     71  CA       -20.3770   26.1070   19.9190 C.3   133  ILE133      0.1595
     72  C        -21.3500   25.9070   21.0740 C.2   133  ILE133      0.2287
     73  O        -22.3720   26.6010   21.1550 O.2   133  ILE133     -0.2864
     74  CB       -19.5360   27.3810   20.1690 C.3   133  ILE133      0.0276
     75  CG1      -18.5670   27.5650   19.0140 C.3   133  ILE133      0.0022
     76  CG2      -18.7620   27.2920   21.4760 C.3   133  ILE133      0.0022
     77  CD1      -18.2590   28.9830   18.8090 C.3   133  ILE133      0.0001
     78  N        -21.3710   26.5550   24.8150 N.3   135  PHE135     -0.1241
     79  CA       -20.6240   27.1230   25.9370 C.3   135  PHE135      0.1605
     80  C        -21.0050   26.5150   27.2500 C.2   135  PHE135      0.2264
     81  O        -22.1240   26.0610   27.4400 O.2   135  PHE135     -0.2867
     82  CB       -20.8390   28.6450   26.0010 C.3   135  PHE135      0.0534
     83  CG       -20.2540   29.3920   24.8120 C.ar  135  PHE135     -0.0203
     84  CD1      -18.9010   29.6890   24.7520 C.ar  135  PHE135     -0.0042
     85  CD2      -21.0670   29.7750   23.7590 C.ar  135  PHE135     -0.0042
     86  CE1      -18.3660   30.3970   23.6490 C.ar  135  PHE135     -0.0003
     87  CE2      -20.5460   30.4830   22.6820 C.ar  135  PHE135     -0.0003
     88  CZ       -19.1910   30.7550   22.6220 C.ar  135  PHE135     -0.0000
     89  N        -24.2010   28.1500   28.3790 N.3   138  ASP138     -0.1239
     90  CA       -25.5010   28.0430   27.6810 C.3   138  ASP138      0.1674
     91  C        -25.7650   26.6110   27.2450 C.2   138  ASP138      0.2266
     92  O        -26.6620   26.3880   26.4170 O.2   138  ASP138     -0.2867
     93  CB       -25.6390   29.0260   26.4910 C.3   138  ASP138      0.1410
     94  CG       -24.7640   28.6960   25.2840 C.2   138  ASP138      0.3668
     95  OD1      -23.9580   27.7550   25.2530 O.co2 138  ASP138     -0.2456
     96  OD2      -24.8800   29.4660   24.3020 O.co2 138  ASP138     -0.2456
     97  N        -29.4160   25.7080   27.6420 N.3   141  ASP141     -0.1225
     98  CA       -30.1760   26.3260   26.5570 C.3   141  ASP141      0.1805
     99  C        -30.0330   25.5140   25.2690 C.2   141  ASP141      0.2597
    100  O        -31.0140   25.2920   24.5540 O.2   141  ASP141     -0.2718
    101  CB       -29.7300   27.7560   26.3390 C.3   141  ASP141      0.1424
    102  CG       -30.8830   28.6380   26.0380 C.2   141  ASP141      0.3668
    103  OD1      -31.6490   28.8790   26.9970 O.co2 141  ASP141     -0.2456
    104  OD2      -31.0410   29.0460   24.8670 O.co2 141  ASP141     -0.2456
    105  N        -28.8160   25.0750   24.9580 N.am  142  VAL142     -0.1980
    106  CA       -28.6480   24.2790   23.7480 C.3   142  VAL142      0.1595
    107  C        -29.4140   22.9500   23.8670 C.2   142  VAL142      0.2287
    108  O        -30.0850   22.5320   22.9180 O.2   142  VAL142     -0.2864
    109  CB       -27.1690   24.0340   23.4520 C.3   142  VAL142      0.0276
    110  CG1      -26.9920   23.1240   22.2020 C.3   142  VAL142      0.0022
    111  CG2      -26.5020   25.3750   23.1830 C.3   142  VAL142      0.0022
@<TRIPOS>BOND
     1    50    49    2
     2    49    48    1
     3    42    41    2
     4    51    48    1
     5    51    52    1
     6    48    47    1
     7    45    44   ar
     8    41    40    1
     9    15    14   ar
    10    15    13   ar
    11    52    53    1
    12    44    46   ar
    13    44    43    1
    14    53    54    1
    15    40    43    1
    16    40    39    1
    17    14    12   ar
    18    13    11   ar
    19    55    54    1
    20    56    57    1
    21    11    10   ar
    22    12    10   ar
    23    68    66   ar
    24    68    69   ar
    25    66    63   ar
    26    10     9    1
    27    57    60    1
    28    57    58    1
    29    60    61    1
    30    69    67   ar
    31    63    61   ar
    32    63    65   ar
    33    61    62   ar
    34    58    59    2
    35    58    70   am
    36     9     6    1
    37    38    36    1
    38    67    65   ar
    39    65    64   ar
    40     7     8    2
    41     7     6    1
    42    70    71    1
    43     6     5    1
    44    77    75    1
    45    34    35    2
    46    34    33    1
    47    62    64   ar
    48    75    74    1
    49    36    33    1
    50    36    37    1
    51    33    32    1
    52    71    74    1
    53    71    72    1
    54    74    76    1
    55    72    73    2
    56    32    26   am
    57    23    21   ar
    58    27    26    2
    59    26    25    1
    60   110   109    1
    61    20    21    1
    62    20    17    1
    63    21    22   ar
    64    88    87   ar
    65    88    86   ar
    66    87    85   ar
    67   108   107    2
    68    30    29   ar
    69   111   109    1
    70   109   106    1
    71    19    18    2
    72    25    24    1
    73    25    28    1
    74    18    24   am
    75    18    17    1
    76    86    84   ar
    77    17    16    1
    78   106   107    1
    79   106   105    1
    80    85    83   ar
    81    29    28    1
    82    29    31   ar
    83    96    94   ar
    84   100    99    2
    85    84    83   ar
    86    83    82    1
    87    78    79    1
    88   104   102   ar
    89   105    99   am
    90    95    94   ar
    91    99    98    1
    92    94    93    1
    93    79    82    1
    94    79    80    1
    95   102   101    1
    96   102   103   ar
    97   101    98    1
    98    92    91    2
    99    93    90    1
   100     2     3    1
   101     2     1    1
   102    98    97    1
   103     3     4    2
   104    91    90    1
   105    80    81    2
   106    90    89    1
