@<TRIPOS>MOLECULE
tmp/5bqsB00.pdb
 207 197 0 0 0
SMALL
GASTEIGER

@<TRIPOS>ATOM
      1  N         11.8960    5.7080  -47.2300 N.3    32  TRP32      -0.1241
      2  CA        11.6480    6.4940  -46.0160 C.3    32  TRP32       0.1605
      3  C         12.2790    5.8580  -44.7660 C.2    32  TRP32       0.2264
      4  O         12.9920    6.5570  -44.0480 O.2    32  TRP32      -0.2867
      5  CB        10.1400    6.7730  -45.8430 C.3    32  TRP32       0.0550
      6  CG         9.7320    7.4340  -44.5540 C.ar   32  TRP32       0.0003
      7  CD1        9.2020    6.8210  -43.4550 C.ar   32  TRP32       0.0946
      8  CD2        9.7400    8.8450  -44.2620 C.ar   32  TRP32       0.0152
      9  NE1        8.9120    7.7550  -42.4820 N.ar   32  TRP32      -0.2442
     10  CE2        9.2300    9.0050  -42.9520 C.ar   32  TRP32       0.0810
     11  CE3       10.1930    9.9800  -44.9500 C.ar   32  TRP32       0.0012
     12  CZ2        9.1120   10.2630  -42.3420 C.ar   32  TRP32       0.0191
     13  CZ3       10.0720   11.2260  -44.3480 C.ar   32  TRP32       0.0001
     14  CH2        9.5400   11.3600  -43.0600 C.ar   32  TRP32       0.0015
     15  N         15.9060    7.4810  -43.0290 N.3    36  ARG36      -0.1231
     16  CA        15.7310    8.0830  -41.7100 C.3    36  ARG36       0.1694
     17  C         16.3770    7.2970  -40.5890 C.2    36  ARG36       0.2592
     18  O         16.7910    7.8980  -39.5980 O.2    36  ARG36      -0.2718
     19  CB        14.2410    8.3270  -41.3990 C.3    36  ARG36       0.0321
     20  CG        13.4930    9.3030  -42.3470 C.3    36  ARG36       0.0489
     21  CD        14.0230   10.7380  -42.5270 C.3    36  ARG36       0.2205
     22  NE        14.2050   11.5260  -41.3130 N.pl3  36  ARG36      -0.0865
     23  CZ        14.9750   12.6120  -41.2450 C.cat  36  ARG36       0.5346
     24  NH1       15.6200   13.0470  -42.3210 N.pl3  36  ARG36       0.1354
     25  NH2       15.0810   13.2880  -40.1100 N.pl3  36  ARG36       0.1354
     26  N         16.4670    5.9520  -40.7190 N.am   37  THR37      -0.1953
     27  CA        16.9560    5.0960  -39.6220 C.3    37  THR37       0.1897
     28  C         18.1430    4.1790  -39.9290 C.2    37  THR37       0.2313
     29  O         18.8380    3.7570  -39.0050 O.2    37  THR37      -0.2863
     30  CB        15.7960    4.2180  -39.1060 C.3    37  THR37       0.1794
     31  OG1       15.5910    3.1570  -40.0390 O.3    37  THR37      -0.2208
     32  CG2       14.5020    4.9890  -38.9040 C.3    37  THR37       0.0378
     33  N         16.8310   -0.2270  -22.9620 N.3   111  CYS111     -0.1235
     34  CA        17.9060   -0.3250  -23.9470 C.3   111  CYS111      0.1677
     35  C         19.3050   -0.3110  -23.3300 C.2   111  CYS111      0.2270
     36  O         20.2620   -0.7200  -23.9940 O.2   111  CYS111     -0.2867
     37  CB        17.7200    0.7400  -25.0250 C.3   111  CYS111      0.0956
     38  SG        15.9760    1.1000  -25.3980 S.3   111  CYS111     -0.0801
     39  N          5.0580    5.3130  -37.2780 N.3   151  SER151     -0.1217
     40  CA         6.2260    6.0290  -36.7430 C.3   151  SER151      0.1889
     41  C          7.1080    5.1810  -35.8240 C.2   151  SER151      0.2288
     42  O          8.2950    5.4850  -35.6800 O.2   151  SER151     -0.2866
     43  CB         5.8000    7.3120  -36.0330 C.3   151  SER151      0.2089
     44  OG         5.1760    7.0470  -34.7860 O.3   151  SER151     -0.2183
     45  N         10.5320    0.5420  -36.3620 N.3   155  LEU155     -0.1231
     46  CA        11.8110    0.7290  -35.6700 C.3   155  LEU155      0.1693
     47  C         12.3650   -0.4500  -34.9280 C.2   155  LEU155      0.2592
     48  O         13.5820   -0.5370  -34.7600 O.2   155  LEU155     -0.2718
     49  CB        11.7050    1.9090  -34.6770 C.3   155  LEU155      0.0284
     50  CG        11.3320    3.2810  -35.2360 C.3   155  LEU155      0.0019
     51  CD1       11.3670    4.3120  -34.1490 C.3   155  LEU155      0.0001
     52  CD2       12.2550    3.6950  -36.3660 C.3   155  LEU155      0.0001
     53  N         11.4880   -1.3180  -34.4290 N.am  156  PHE156     -0.1976
     54  CA        11.8920   -2.3910  -33.5280 C.3   156  PHE156      0.1639
     55  C         11.8170   -3.7950  -34.1050 C.2   156  PHE156      0.2290
     56  O         10.9490   -4.0930  -34.9240 O.2   156  PHE156     -0.2864
     57  CB        11.0800   -2.2860  -32.2220 C.3   156  PHE156      0.0560
     58  CG        11.1710   -0.9040  -31.6030 C.ar  156  PHE156     -0.0200
     59  CD1       12.2670   -0.5400  -30.8290 C.ar  156  PHE156     -0.0042
     60  CD2       10.1740    0.0430  -31.8220 C.ar  156  PHE156     -0.0042
     61  CE1       12.3580    0.7450  -30.2730 C.ar  156  PHE156     -0.0003
     62  CE2       10.2660    1.3320  -31.2670 C.ar  156  PHE156     -0.0003
     63  CZ        11.3640    1.6790  -30.5060 C.ar  156  PHE156     -0.0000
     64  N          9.6340    7.5840  -23.6530 N.3   188  LEU188     -0.1245
     65  CA         9.8040    6.2040  -24.1210 C.3   188  LEU188      0.1561
     66  C          9.0710    5.2970  -23.1720 C.2   188  LEU188      0.2260
     67  O          9.5540    5.0550  -22.0640 O.2   188  LEU188     -0.2867
     68  CB        11.2880    5.7980  -24.1920 C.3   188  LEU188      0.0270
     69  CG        11.8960    5.5890  -25.5780 C.3   188  LEU188      0.0019
     70  CD1       13.3780    5.3230  -25.4550 C.3   188  LEU188      0.0001
     71  CD2       11.1930    4.4580  -26.3510 C.3   188  LEU188      0.0001
     72  N          4.1750    0.2540  -27.0080 N.3   209  LEU209     -0.1245
     73  CA         5.3570    1.1080  -27.0520 C.3   209  LEU209      0.1561
     74  C          5.0470    2.4510  -27.6880 C.2   209  LEU209      0.2260
     75  O          4.4630    2.4930  -28.7690 O.2   209  LEU209     -0.2867
     76  CB         6.5370    0.4170  -27.7720 C.3   209  LEU209      0.0270
     77  CG         7.9350    1.0150  -27.4980 C.3   209  LEU209      0.0019
     78  CD1        9.0040   -0.0330  -27.6510 C.3   209  LEU209      0.0001
     79  CD2        8.2280    2.2160  -28.4100 C.3   209  LEU209      0.0001
     80  N          6.8570    6.5600  -28.1860 N.3   211  MET211     -0.1245
     81  CA         8.0970    7.3260  -28.1590 C.3   211  MET211      0.1570
     82  C          7.9640    8.7500  -28.7070 C.2   211  MET211      0.2261
     83  O          7.3050    8.9560  -29.7180 O.2   211  MET211     -0.2867
     84  CB         9.2220    6.5670  -28.8890 C.3   211  MET211      0.0387
     85  CG        10.5600    7.2960  -28.8830 C.3   211  MET211      0.0595
     86  SD        11.9080    6.4620  -29.7460 S.3   211  MET211     -0.1393
     87  CE        11.3940    6.6510  -31.4070 C.3   211  MET211      0.0692
     88  N         10.1310   10.7540  -30.4390 N.3   213  GLY213     -0.1210
     89  CA        11.3160   10.5790  -31.2740 C.3   213  GLY213      0.1956
     90  C         12.3540   11.6860  -31.2280 C.2   213  GLY213      0.2611
     91  O         13.5520   11.4000  -31.1650 O.2   213  GLY213     -0.2717
     92  N         11.9060   12.9710  -31.2540 N.am  214  ARG214     -0.1979
     93  CA        12.7970   14.1350  -31.2210 C.3   214  ARG214      0.1597
     94  C         13.5430   14.2480  -29.8830 C.2   214  ARG214      0.2287
     95  O         14.7510   14.5050  -29.8620 O.2   214  ARG214     -0.2864
     96  CB        12.0050   15.4190  -31.5390 C.3   214  ARG214      0.0334
     97  CG        12.8360   16.6420  -31.9390 C.3   214  ARG214      0.0492
     98  CD        13.5860   16.5050  -33.2580 C.3   214  ARG214      0.2205
     99  NE        14.9640   16.0490  -33.0500 N.pl3 214  ARG214     -0.0865
    100  CZ        16.0180   16.8540  -32.9430 C.cat 214  ARG214      0.5346
    101  NH1       15.8720   18.1700  -33.0420 N.pl3 214  ARG214      0.1354
    102  NH2       17.2290   16.3480  -32.7460 N.pl3 214  ARG214      0.1354
    103  N         14.1720   11.7400  -27.6620 N.3   216  VAL216     -0.1231
    104  CA        15.1180   10.6250  -27.5490 C.3   216  VAL216      0.1692
    105  C         16.3220   10.8460  -28.4750 C.2   216  VAL216      0.2592
    106  O         17.4620   10.5950  -28.0660 O.2   216  VAL216     -0.2718
    107  CB        14.4580    9.2300  -27.7510 C.3   216  VAL216      0.0266
    108  CG1       15.4410    8.1120  -27.4210 C.3   216  VAL216      0.0020
    109  CG2       13.1980    9.0860  -26.8950 C.3   216  VAL216      0.0020
    110  N         16.0720   11.3370  -29.7040 N.am  217  PHE217     -0.1976
    111  CA        17.1240   11.6220  -30.6830 C.3   217  PHE217      0.1639
    112  C         18.1380   12.5930  -30.0720 C.2   217  PHE217      0.2290
    113  O         19.3380   12.3090  -30.0770 O.2   217  PHE217     -0.2864
    114  CB        16.5210   12.2290  -31.9620 C.3   217  PHE217      0.0560
    115  CG        17.4240   12.2300  -33.1710 C.ar  217  PHE217     -0.0200
    116  CD1       18.4010   13.2050  -33.3280 C.ar  217  PHE217     -0.0042
    117  CD2       17.2750   11.2750  -34.1720 C.ar  217  PHE217     -0.0042
    118  CE1       19.2210   13.2220  -34.4560 C.ar  217  PHE217     -0.0003
    119  CE2       18.0940   11.2980  -35.3100 C.ar  217  PHE217     -0.0003
    120  CZ        19.0640   12.2690  -35.4400 C.ar  217  PHE217     -0.0000
    121  N         18.5230   13.3680  -26.8850 N.3   219  PHE219     -0.1227
    122  CA        19.0920   12.7790  -25.6840 C.3   219  PHE219      0.1736
    123  C         20.3540   11.9890  -26.0380 C.2   219  PHE219      0.2595
    124  O         21.3760   12.1520  -25.3780 O.2   219  PHE219     -0.2718
    125  CB        18.0420   11.8780  -24.9950 C.3   219  PHE219      0.0547
    126  CG        18.5520   10.7390  -24.1570 C.ar  219  PHE219     -0.0202
    127  CD1       19.1920   10.9780  -22.9470 C.ar  219  PHE219     -0.0042
    128  CD2       18.3680    9.4210  -24.5620 C.ar  219  PHE219     -0.0042
    129  CE1       19.6330    9.9250  -22.1570 C.ar  219  PHE219     -0.0003
    130  CE2       18.8350    8.3640  -23.7820 C.ar  219  PHE219     -0.0003
    131  CZ        19.4380    8.6200  -22.5700 C.ar  219  PHE219     -0.0000
    132  N         20.2890   11.1590  -27.0890 N.am  220  ALA220     -0.1980
    133  CA        21.3990   10.3250  -27.5360 C.3   220  ALA220      0.1597
    134  C         22.5670   11.1460  -28.0900 C.2   220  ALA220      0.2287
    135  O         23.7180   10.8890  -27.7580 O.2   220  ALA220     -0.2864
    136  CB        20.9060    9.3370  -28.5850 C.3   220  ALA220      0.0319
    137  N         24.1230    1.2510  -28.8740 N.3   248  HIS248     -0.1241
    138  CA        22.7510    0.8170  -29.0810 C.3   248  HIS248      0.1621
    139  C         22.3730    1.1190  -30.5440 C.2   248  HIS248      0.2264
    140  O         22.6900    2.1860  -31.0600 O.2   248  HIS248     -0.2867
    141  CB        21.8020    1.5240  -28.0990 C.3   248  HIS248      0.0745
    142  CG        20.3590    1.1940  -28.3260 C.ar  248  HIS248      0.0817
    143  ND1       19.9370   -0.1160  -28.5130 N.ar  248  HIS248     -0.2268
    144  CD2       19.2920    2.0100  -28.4220 C.ar  248  HIS248      0.1154
    145  CE1       18.6320   -0.0500  -28.7060 C.ar  248  HIS248      0.1986
    146  NE2       18.1930    1.2030  -28.6460 N.ar  248  HIS248     -0.2212
    147  N         19.8550    1.9470  -32.7220 N.3   250  ALA250     -0.1231
    148  CA        18.5180    2.5190  -32.8860 C.3   250  ALA250      0.1694
    149  C         18.3690    3.2620  -34.1810 C.2   250  ALA250      0.2592
    150  O         17.3020    3.2060  -34.8000 O.2   250  ALA250     -0.2718
    151  CB        18.2100    3.4570  -31.7170 C.3   250  ALA250      0.0304
    152  N         19.4340    3.9800  -34.5950 N.am  251  ASN251     -0.1974
    153  CA        19.3930    4.8350  -35.7680 C.3   251  ASN251      0.1688
    154  C         20.8170    5.0710  -36.3070 C.2   251  ASN251      0.2292
    155  O         21.7030    5.4750  -35.5460 O.2   251  ASN251     -0.2864
    156  CB        18.7050    6.1430  -35.3470 C.3   251  ASN251      0.1181
    157  CG        18.4360    7.1300  -36.4380 C.2   251  ASN251      0.2629
    158  OD1       19.3500    7.7260  -36.9720 O.2   251  ASN251     -0.2716
    159  ND2       17.1740    7.4080  -36.7070 N.am  251  ASN251     -0.0877
    160  N         21.9320    7.4040  -38.4410 N.3   253  ARG253     -0.1231
    161  CA        22.2100    8.8550  -38.4430 C.3   253  ARG253      0.1694
    162  C         22.7030    9.2950  -37.0540 C.2   253  ARG253      0.2591
    163  O         23.5980   10.1390  -36.9610 O.2   253  ARG253     -0.2718
    164  CB        20.9610    9.6620  -38.8580 C.3   253  ARG253      0.0321
    165  CG        20.6090    9.5650  -40.3390 C.3   253  ARG253      0.0489
    166  CD        19.4370   10.4390  -40.8190 C.3   253  ARG253      0.2205
    167  NE        19.0290   11.5270  -39.9220 N.pl3 253  ARG253     -0.0865
    168  CZ        17.9070   11.5460  -39.2040 C.cat 253  ARG253      0.5346
    169  NH1       17.6330   12.5820  -38.4210 N.pl3 253  ARG253      0.1354
    170  NH2       17.0280   10.5570  -39.3030 N.pl3 253  ARG253      0.1354
    171  N         22.1340    8.6920  -35.9890 N.am  254  ILE254     -0.1980
    172  CA        22.5170    8.9420  -34.5980 C.3   254  ILE254      0.1595
    173  C         23.9730    8.4980  -34.3810 C.2   254  ILE254      0.2287
    174  O         24.7420    9.2470  -33.7790 O.2   254  ILE254     -0.2864
    175  CB        21.5130    8.3060  -33.5720 C.3   254  ILE254      0.0276
    176  CG1       20.1550    9.0300  -33.6190 C.3   254  ILE254      0.0022
    177  CG2       22.0920    8.3190  -32.1500 C.3   254  ILE254      0.0022
    178  CD1       19.0650    8.4510  -32.7700 C.3   254  ILE254      0.0001
    179  N         16.0780   -2.1870  -34.3020 N.3   278  ASN278     -0.1240
    180  CA        16.4340   -1.8960  -32.9140 C.3   278  ASN278      0.1653
    181  C         15.8780   -3.0090  -32.0260 C.2   278  ASN278      0.2266
    182  O         14.6610   -3.1110  -31.8930 O.2   278  ASN278     -0.2867
    183  CB        15.8330   -0.5390  -32.5230 C.3   278  ASN278      0.1155
    184  CG        15.9590   -0.0890  -31.0860 C.2   278  ASN278      0.2627
    185  OD1       16.1100   -0.8710  -30.1210 O.2   278  ASN278     -0.2716
    186  ND2       15.7790    1.2010  -30.9140 N.am  278  ASN278     -0.0877
    187  N         16.4440   -3.2760  -28.6140 N.3   280  SER280     -0.1217
    188  CA        16.5890   -2.7940  -27.2270 C.3   280  SER280      0.1889
    189  C         17.8010   -3.4340  -26.5020 C.2   280  SER280      0.2288
    190  O         18.9050   -3.3280  -27.0280 O.2   280  SER280     -0.2866
    191  CB        15.2820   -2.9450  -26.4410 C.3   280  SER280      0.2089
    192  OG        15.3600   -2.2450  -25.2100 O.3   280  SER280     -0.2183
    193  N         21.6220    2.9190  -24.4860 N.3   310  PHE310     -0.1227
    194  CA        20.8750    4.1180  -24.1020 C.3   310  PHE310      0.1736
    195  C         19.4530    4.0300  -24.5660 C.2   310  PHE310      0.2596
    196  O         19.1920    3.5760  -25.6790 O.2   310  PHE310     -0.2718
    197  CB        21.5550    5.4100  -24.6250 C.3   310  PHE310      0.0547
    198  CG        22.0300    5.3630  -26.0600 C.ar  310  PHE310     -0.0202
    199  CD1       23.3010    4.9000  -26.3730 C.ar  310  PHE310     -0.0042
    200  CD2       21.2080    5.7960  -27.0970 C.ar  310  PHE310     -0.0042
    201  CE1       23.7290    4.8350  -27.7050 C.ar  310  PHE310     -0.0003
    202  CE2       21.6370    5.7290  -28.4250 C.ar  310  PHE310     -0.0003
    203  CZ        22.8930    5.2540  -28.7190 C.ar  310  PHE310     -0.0000
    204  N         18.5360    4.4500  -23.7040 N.am  311  GLY311     -0.1957
    205  CA        17.1210    4.3930  -24.0220 C.3   311  GLY311      0.1869
    206  C         16.2050    4.6430  -22.8430 C.2   311  GLY311      0.2309
    207  O         16.4620    5.5380  -22.0350 O.2   311  GLY311     -0.2863
@<TRIPOS>BOND
     1     1     2    1
     2     2     5    1
     3     2     3    1
     4     5     6    1
     5    11    13   ar
     6    11     8   ar
     7     3     4    2
     8     6     8   ar
     9     6     7   ar
    10    13    14   ar
    11     8    10   ar
    12     7     9   ar
    13    14    12   ar
    14    15    16    1
    15    10     9   ar
    16    10    12   ar
    17    21    20    1
    18    21    22    1
    19    20    19    1
    20    24    23    1
    21    16    19    1
    22    16    17    1
    23    22    23    2
    24    23    25    1
    25   166   165    1
    26   166   167    1
    27    26    17   am
    28    26    27    1
    29    17    18    2
    30   165   164    1
    31    31    30    1
    32    28    27    1
    33    28    29    2
    34   167   168    2
    35    27    30    1
    36   170   168    1
    37   168   169    1
    38    30    32    1
    39   164   161    1
    40   161   160    1
    41   161   162    1
    42    39    40    1
    43   162   163    2
    44   162   171   am
    45   158   157    2
    46    40    43    1
    47    40    41    1
    48   159   157   am
    49   157   156    1
    50    52    50    1
    51    45    46    1
    52   154   153    1
    53   154   155    2
    54    43    44    1
    55   171   172    1
    56    41    42    2
    57   153   156    1
    58   153   152    1
    59    46    47    1
    60    46    49    1
    61   120   119   ar
    62   120   118   ar
    63   119   117   ar
    64    50    49    1
    65    50    51    1
    66    47    48    2
    67    47    53   am
    68    56    55    2
    69   150   149    2
    70   172   173    1
    71   172   175    1
    72   152   149   am
    73   118   116   ar
    74    53    54    1
    75   173   174    2
    76   179   180    1
    77   149   148    1
    78   117   115   ar
    79    55    54    1
    80   176   175    1
    81   176   178    1
    82   175   177    1
    83    54    57    1
    84   116   115   ar
    85    98    99    1
    86    98    97    1
    87   115   114    1
    88    99   100    2
    89   101   100    1
    90   100   102    1
    91   180   183    1
    92   180   181    1
    93   148   147    1
    94   148   151    1
    95   183   184    1
    96    57    58    1
    97   181   182    2
    98   114   111    1
    99    97    96    1
   100    60    58   ar
   101    60    62   ar
   102    58    59   ar
   103    96    93    1
   104    87    86    1
   105    89    90    1
   106    89    88    1
   107    62    63   ar
   108    92    90   am
   109    92    93    1
   110    90    91    2
   111    93    94    1
   112   184   186   am
   113   184   185    2
   114   140   139    2
   115    59    61   ar
   116   111   112    1
   117   111   110    1
   118   139   138    1
   119    63    61   ar
   120   113   112    2
   121    94    95    2
   122    86    85    1
   123    83    82    2
   124   110   105   am
   125   138   137    1
   126   138   141    1
   127    84    85    1
   128    84    81    1
   129    75    74    2
   130   203   202   ar
   131   203   201   ar
   132    82    81    1
   133   145   146   ar
   134   145   143   ar
   135   146   144   ar
   136   187   188    1
   137   136   133    1
   138   143   142   ar
   139   105   106    2
   140   105   104    1
   141   202   200   ar
   142   144   142   ar
   143    79    77    1
   144   142   141    1
   145    80    81    1
   146   134   135    2
   147   134   133    1
   148    76    77    1
   149    76    73    1
   150   107   104    1
   151   107   108    1
   152   107   109    1
   153   201   199   ar
   154    74    73    1
   155   103   104    1
   156    78    77    1
   157   133   132    1
   158   188   189    1
   159   188   191    1
   160   200   198   ar
   161   132   123   am
   162    73    72    1
   163   190   189    2
   164   121   122    1
   165   191   192    1
   166   199   198   ar
   167    71    69    1
   168   198   197    1
   169   123   122    1
   170   123   124    2
   171   122   125    1
   172   196   195    2
   173    69    70    1
   174    69    68    1
   175    38    37    1
   176    37    34    1
   177   125   126    1
   178   197   194    1
   179   195   194    1
   180   195   204   am
   181   128   126   ar
   182   128   130   ar
   183   193   194    1
   184    68    65    1
   185   126   127   ar
   186    65    64    1
   187    65    66    1
   188   205   204    1
   189   205   206    1
   190    36    35    2
   191    34    35    1
   192    34    33    1
   193   130   131   ar
   194    66    67    2
   195   127   129   ar
   196   206   207    2
   197   131   129   ar
