@<TRIPOS>MOLECULE
tmp/5bquA00.pdb
 87 84 0 0 0
SMALL
GASTEIGER

@<TRIPOS>ATOM
      1  N         18.7710  370.3760  330.8350 N.3   247  ASP247     -0.1225
      2  CA        18.9420  371.1960  329.6480 C.3   247  ASP247      0.1805
      3  C         17.7550  372.1260  329.4340 C.2   247  ASP247      0.2598
      4  O         16.6020  371.7510  329.6520 O.2   247  ASP247     -0.2718
      5  CB        19.1140  370.2920  328.4240 C.3   247  ASP247      0.1424
      6  CG        19.3700  371.0740  327.1540 C.2   247  ASP247      0.3668
      7  OD1       20.3930  371.7890  327.0940 O.co2 247  ASP247     -0.2456
      8  OD2       18.5490  370.9700  326.2180 O.co2 247  ASP247     -0.2456
      9  N         18.0580  373.3450  329.0060 N.am  248  LEU248     -0.1966
     10  CA        17.0470  374.2780  328.5430 C.3   248  LEU248      0.1728
     11  C         17.0660  374.2830  327.0040 C.2   248  LEU248      0.2616
     12  O         17.8820  374.9720  326.3840 O.2   248  LEU248     -0.2715
     13  CB        17.3260  375.6710  329.1100 C.3   248  LEU248      0.0311
     14  CG        16.2820  376.7430  328.7940 C.3   248  LEU248      0.0022
     15  CD1       14.9840  376.4470  329.5300 C.3   248  LEU248      0.0001
     16  CD2       16.8070  378.1290  329.1480 C.3   248  LEU248      0.0001
     17  N         16.1550  373.5080  326.4090 N.am  249  TYR249     -0.1960
     18  CA        16.1100  373.2360  324.9520 C.3   249  TYR249      0.1771
     19  C         16.6300  374.3690  324.0610 C.2   249  TYR249      0.2620
     20  O         17.4020  374.1310  323.1220 O.2   249  TYR249     -0.2715
     21  CB        14.6740  372.8630  324.5360 C.3   249  TYR249      0.0574
     22  CG        14.5120  372.4660  323.0800 C.ar  249  TYR249     -0.0198
     23  CD1       15.0650  371.2850  322.5950 C.ar  249  TYR249     -0.0009
     24  CD2       13.7920  373.2630  322.1930 C.ar  249  TYR249     -0.0009
     25  CE1       14.9210  370.9150  321.2660 C.ar  249  TYR249      0.0417
     26  CE2       13.6400  372.8990  320.8630 C.ar  249  TYR249      0.0417
     27  CZ        14.2060  371.7240  320.4070 C.ar  249  TYR249      0.1957
     28  OH        14.0630  371.3570  319.0960 O.3   249  TYR249     -0.2866
     29  N         16.1960  375.5920  324.3550 N.am  250  GLY250     -0.1954
     30  CA        16.6030  376.7570  323.5800 C.3   250  GLY250      0.1869
     31  C         17.9010  377.3300  324.1150 C.2   250  GLY250      0.2309
     32  O         18.9720  376.8400  323.7570 O.2   250  GLY250     -0.2863
     33  N         14.6780  369.7040  329.3370 N.3   259  GLN259     -0.1245
     34  CA        14.8440  368.2890  328.9880 C.3   259  GLN259      0.1566
     35  C         16.1670  367.6900  329.4830 C.2   259  GLN259      0.2260
     36  O         16.9830  368.3710  330.1140 O.2   259  GLN259     -0.2867
     37  CB        14.7220  368.1070  327.4650 C.3   259  GLN259      0.0367
     38  CG        15.8490  368.7320  326.6470 C.3   259  GLN259      0.0905
     39  CD        15.7060  368.4970  325.1530 C.2   259  GLN259      0.2608
     40  OE1       16.6430  368.7250  324.3860 O.2   259  GLN259     -0.2717
     41  NE2       14.5320  368.0420  324.7320 N.am  259  GLN259     -0.0878
     42  N         19.7600  366.1710  328.4050 N.3   261  PHE261     -0.1241
     43  CA        20.7220  366.3010  327.3050 C.3   261  PHE261      0.1605
     44  C         22.1670  366.1420  327.7960 C.2   261  PHE261      0.2264
     45  O         22.5440  366.7260  328.8150 O.2   261  PHE261     -0.2867
     46  CB        20.5470  367.6560  326.6050 C.3   261  PHE261      0.0534
     47  CG        20.8810  367.6290  325.1360 C.ar  261  PHE261     -0.0203
     48  CD1       20.1080  366.8860  324.2500 C.ar  261  PHE261     -0.0042
     49  CD2       21.9530  368.3570  324.6370 C.ar  261  PHE261     -0.0042
     50  CE1       20.4050  366.8610  322.9000 C.ar  261  PHE261     -0.0003
     51  CE2       22.2540  368.3360  323.2850 C.ar  261  PHE261     -0.0003
     52  CZ        21.4800  367.5870  322.4160 C.ar  261  PHE261     -0.0000
     53  N         27.4290  369.3470  328.8120 N.3   264  HIS264     -0.1241
     54  CA        28.3560  370.3000  328.1840 C.3   264  HIS264      0.1621
     55  C         28.6210  371.4730  329.1430 C.2   264  HIS264      0.2264
     56  O         27.8060  371.7690  330.0300 O.2   264  HIS264     -0.2867
     57  CB        27.8100  370.8520  326.8570 C.3   264  HIS264      0.0745
     58  CG        27.1880  369.8220  325.9620 C.ar  264  HIS264      0.0817
     59  ND1       25.8320  369.7750  325.7160 N.ar  264  HIS264     -0.2268
     60  CD2       27.7390  368.8200  325.2340 C.ar  264  HIS264      0.1154
     61  CE1       25.5740  368.7810  324.8830 C.ar  264  HIS264      0.1986
     62  NE2       26.7130  368.1830  324.5790 N.ar  264  HIS264     -0.2212
     63  N         28.3640  374.5180  328.6060 N.3   266  ASP266     -0.1239
     64  CA        27.6220  375.7100  328.1600 C.3   266  ASP266      0.1674
     65  C         26.6980  376.2900  329.2280 C.2   266  ASP266      0.2266
     66  O         26.2700  375.5900  330.1460 O.2   266  ASP266     -0.2867
     67  CB        26.8040  375.3980  326.9000 C.3   266  ASP266      0.1410
     68  CG        27.6740  375.0550  325.7130 C.2   266  ASP266      0.3668
     69  OD1       28.4430  375.9290  325.2690 O.co2 266  ASP266     -0.2456
     70  OD2       27.5850  373.9140  325.2240 O.co2 266  ASP266     -0.2456
     71  N         23.6230  377.2220  329.1660 N.3   268  ASN268     -0.1225
     72  CA        22.2530  376.6910  329.1960 C.3   268  ASN268      0.1785
     73  C         22.0790  375.4400  330.0730 C.2   268  ASN268      0.2597
     74  O         20.9680  374.9290  330.2000 O.2   268  ASN268     -0.2718
     75  CB        21.7900  376.3620  327.7760 C.3   268  ASN268      0.1169
     76  CG        22.5330  375.1850  327.1800 C.2   268  ASN268      0.2627
     77  OD1       23.2990  374.5050  327.8640 O.2   268  ASN268     -0.2716
     78  ND2       22.3180  374.9420  325.8970 N.am  268  ASN268     -0.0877
     79  N         23.1810  374.9320  330.6280 N.am  269  GLN269     -0.1979
     80  CA        23.1630  373.7700  331.5290 C.3   269  GLN269      0.1601
     81  C         23.6410  374.1260  332.9540 C.2   269  GLN269      0.2287
     82  O         23.9560  373.2340  333.7510 O.2   269  GLN269     -0.2864
     83  CB        24.0170  372.6370  330.9320 C.3   269  GLN269      0.0394
     84  CG        23.3000  371.8020  329.8770 C.3   269  GLN269      0.0908
     85  CD        24.2550  371.0790  328.9430 C.2   269  GLN269      0.2608
     86  OE1       25.3870  371.5090  328.7480 O.2   269  GLN269     -0.2717
     87  NE2       23.7950  369.9810  328.3540 N.am  269  GLN269     -0.0878
@<TRIPOS>BOND
     1    28    27    1
     2    27    26   ar
     3    27    25   ar
     4    26    24   ar
     5    25    23   ar
     6    24    22   ar
     7    52    50   ar
     8    52    51   ar
     9    23    22   ar
    10    50    48   ar
    11    22    21    1
    12    20    19    2
    13    51    49   ar
    14    30    31    1
    15    30    29    1
    16    32    31    2
    17    19    29   am
    18    19    18    1
    19    48    47   ar
    20    40    39    2
    21    21    18    1
    22    62    61   ar
    23    62    60   ar
    24    49    47   ar
    25    41    39   am
    26    61    59   ar
    27    18    17    1
    28    47    46    1
    29    39    38    1
    30    70    68   ar
    31    60    58   ar
    32    69    68   ar
    33    68    67    1
    34    59    58   ar
    35    78    76   am
    36    58    57    1
    37     8     6   ar
    38    12    11    2
    39    17    11   am
    40    46    43    1
    41    38    37    1
    42    57    54    1
    43    67    64    1
    44    11    10    1
    45     7     6   ar
    46     6     5    1
    47    76    75    1
    48    76    77    2
    49    43    44    1
    50    43    42    1
    51    37    34    1
    52    75    72    1
    53    44    45    2
    54    64    63    1
    55    64    65    1
    56    54    53    1
    57    54    55    1
    58    87    85   am
    59     5     2    1
    60    10     9    1
    61    10    13    1
    62    86    85    2
    63    14    13    1
    64    14    16    1
    65    14    15    1
    66    85    84    1
    67    34    33    1
    68    34    35    1
    69     9     3   am
    70    55    56    2
    71    71    72    1
    72    72    73    1
    73    65    66    2
    74     3     2    1
    75     3     4    2
    76    35    36    2
    77     2     1    1
    78    84    83    1
    79    73    74    2
    80    73    79   am
    81    79    80    1
    82    83    80    1
    83    80    81    1
    84    81    82    2
