@<TRIPOS>MOLECULE
tmp/5bqxA00.pdb
 119 115 0 0 0
SMALL
GASTEIGER

@<TRIPOS>ATOM
      1  N        -24.3010   27.2250   -3.8860 N.3    11  SER11      -0.1202
      2  CA       -23.9610   25.8740   -4.3220 C.3    11  SER11       0.2020
      3  C        -22.4480   25.6110   -4.2940 C.2    11  SER11       0.2618
      4  O        -21.9750   24.5450   -3.8770 O.2    11  SER11      -0.2717
      5  CB       -24.4920   25.6480   -5.7440 C.3    11  SER11       0.2103
      6  OG       -24.1360   24.3620   -6.2000 O.3    11  SER11      -0.2182
      7  N        -21.7000   26.5890   -4.7820 N.am   12  TYR12      -0.1975
      8  CA       -20.2440   26.5260   -4.7720 C.3    12  TYR12       0.1639
      9  C        -19.7410   26.3810   -3.3270 C.2    12  TYR12       0.2290
     10  O        -18.8380   25.6020   -3.0420 O.2    12  TYR12      -0.2864
     11  CB       -19.6800   27.7840   -5.4410 C.3    12  TYR12       0.0560
     12  CG       -18.2110   27.7470   -5.7870 C.ar   12  TYR12      -0.0198
     13  CD1      -17.6760   26.7190   -6.5640 C.ar   12  TYR12      -0.0009
     14  CD2      -17.3630   28.7840   -5.3730 C.ar   12  TYR12      -0.0009
     15  CE1      -16.3150   26.7100   -6.8930 C.ar   12  TYR12       0.0417
     16  CE2      -16.0290   28.7760   -5.6800 C.ar   12  TYR12       0.0417
     17  CZ       -15.5060   27.7440   -6.4370 C.ar   12  TYR12       0.1957
     18  OH       -14.1660   27.7670   -6.7400 O.3    12  TYR12      -0.2866
     19  N        -21.5370   22.7880   -1.7450 N.3    15  GLY15      -0.1210
     20  CA       -21.1690   21.5160   -2.3580 C.3    15  GLY15       0.1956
     21  C        -19.6840   21.3850   -2.6600 C.2    15  GLY15       0.2611
     22  O        -19.2220   20.3630   -3.1890 O.2    15  GLY15      -0.2717
     23  N        -18.9160   22.4050   -2.3040 N.am   16  TYR16      -0.1976
     24  CA       -17.4830   22.3750   -2.6010 C.3    16  TYR16       0.1639
     25  C        -16.5810   23.0030   -1.5440 C.2    16  TYR16       0.2290
     26  O        -15.8430   22.3120   -0.8260 O.2    16  TYR16      -0.2864
     27  CB       -17.2380   23.0780   -3.9380 C.3    16  TYR16       0.0560
     28  CG       -15.8080   22.9850   -4.3840 C.ar   16  TYR16      -0.0198
     29  CD1      -15.1930   21.7540   -4.5130 C.ar   16  TYR16      -0.0009
     30  CD2      -15.0720   24.1240   -4.6670 C.ar   16  TYR16      -0.0009
     31  CE1      -13.8800   21.6530   -4.9110 C.ar   16  TYR16       0.0417
     32  CE2      -13.7590   24.0360   -5.0810 C.ar   16  TYR16       0.0417
     33  CZ       -13.1660   22.7960   -5.2010 C.ar   16  TYR16       0.1957
     34  OH       -11.8500   22.6870   -5.6070 O.3    16  TYR16      -0.2866
     35  N        -20.7260   10.6320   -1.5750 N.3    78  ARG78      -0.1245
     36  CA       -21.4680   11.8640   -1.8290 C.3    78  ARG78       0.1563
     37  C        -22.7370   11.5810   -2.6450 C.2    78  ARG78       0.2260
     38  O        -22.6750   11.3240   -3.8450 O.2    78  ARG78      -0.2867
     39  CB       -20.5850   12.8900   -2.5510 C.3    78  ARG78       0.0307
     40  CG       -19.3600   13.3440   -1.7500 C.3    78  ARG78       0.0489
     41  CD       -19.7030   14.5110   -0.8120 C.3    78  ARG78       0.2205
     42  NE       -20.2470   15.6160   -1.5990 N.pl3  78  ARG78      -0.0865
     43  CZ       -21.4540   16.1520   -1.4400 C.cat  78  ARG78       0.5346
     44  NH1      -22.2720   15.7280   -0.4730 N.pl3  78  ARG78       0.1354
     45  NH2      -21.8330   17.1290   -2.2440 N.pl3  78  ARG78       0.1354
     46  N        -22.7220    8.4120   -4.5760 N.3    81  ILE81      -0.1245
     47  CA       -21.4860    8.1370   -5.2900 C.3    81  ILE81       0.1561
     48  C        -20.4040    7.6990   -4.3060 C.2    81  ILE81       0.2260
     49  O        -19.9930    8.4790   -3.4600 O.2    81  ILE81      -0.2867
     50  CB       -20.9950    9.3680   -6.0760 C.3    81  ILE81       0.0252
     51  CG1      -22.0530    9.8040   -7.0840 C.3    81  ILE81       0.0019
     52  CG2      -19.6570    9.0680   -6.7860 C.3    81  ILE81       0.0019
     53  CD1      -22.3840    8.7520   -8.1020 C.3    81  ILE81       0.0001
     54  N        -16.4880    9.7130   -4.1020 N.3    84  ARG84      -0.1231
     55  CA       -16.4080   10.8160   -5.0460 C.3    84  ARG84       0.1694
     56  C        -15.0550   11.5290   -4.8640 C.2    84  ARG84       0.2592
     57  O        -14.5870   11.7150   -3.7450 O.2    84  ARG84      -0.2718
     58  CB       -17.5800   11.7870   -4.8730 C.3    84  ARG84       0.0321
     59  CG       -17.4310   13.0230   -5.7700 C.3    84  ARG84       0.0489
     60  CD       -18.7410   13.7310   -6.0410 C.3    84  ARG84       0.2205
     61  NE       -18.5300   15.0670   -6.6030 N.pl3  84  ARG84      -0.0865
     62  CZ       -19.4780   16.0000   -6.6820 C.cat  84  ARG84       0.5346
     63  NH1      -20.7070   15.7420   -6.2410 N.pl3  84  ARG84       0.1354
     64  NH2      -19.1970   17.1930   -7.1900 N.pl3  84  ARG84       0.1354
     65  N        -14.4300   11.9160   -5.9690 N.am   85  VAL85      -0.1966
     66  CA       -13.0830   12.4690   -5.9150 C.3    85  VAL85       0.1727
     67  C        -13.0830   13.9860   -6.1100 C.2    85  VAL85       0.2616
     68  O        -13.6680   14.5020   -7.0720 O.2    85  VAL85      -0.2715
     69  CB       -12.1660   11.8250   -6.9780 C.3    85  VAL85       0.0290
     70  CG1      -10.7600   12.4650   -6.9480 C.3    85  VAL85       0.0023
     71  CG2      -12.0720   10.3290   -6.7510 C.3    85  VAL85       0.0023
     72  N        -12.4340   14.6940   -5.1890 N.am   86  TYR86      -0.1960
     73  CA       -12.2230   16.1380   -5.3430 C.3    86  TYR86       0.1771
     74  C        -10.7530   16.4050   -5.6150 C.2    86  TYR86       0.2620
     75  O         -9.8750   15.9790   -4.8680 O.2    86  TYR86      -0.2715
     76  CB       -12.6970   16.8910   -4.1050 C.3    86  TYR86       0.0574
     77  CG       -14.1910   16.6890   -3.8700 C.ar   86  TYR86      -0.0198
     78  CD1      -14.6710   15.5590   -3.1990 C.ar   86  TYR86      -0.0009
     79  CD2      -15.1140   17.6110   -4.3440 C.ar   86  TYR86      -0.0009
     80  CE1      -16.0460   15.3690   -2.9830 C.ar   86  TYR86       0.0417
     81  CE2      -16.4990   17.4290   -4.1390 C.ar   86  TYR86       0.0417
     82  CZ       -16.9520   16.3080   -3.4630 C.ar   86  TYR86       0.1957
     83  OH       -18.3060   16.1320   -3.2630 O.3    86  TYR86      -0.2866
     84  N        -10.4990   17.1030   -6.7060 N.am   87  SER87      -0.1950
     85  CA        -9.1640   17.2440   -7.2360 C.3    87  SER87       0.1924
     86  C         -8.7820   18.7000   -7.2650 C.2    87  SER87       0.2314
     87  O         -9.6350   19.5660   -7.5040 O.2    87  SER87      -0.2863
     88  CB        -9.0850   16.6630   -8.6470 C.3    87  SER87       0.2116
     89  OG        -9.8290   15.4700   -8.7520 O.3    87  SER87      -0.2180
     90  N         -7.2640   27.6740   -9.2400 N.3   106  GLU106     -0.1245
     91  CA        -8.2800   27.2200  -10.1840 C.3   106  GLU106      0.1567
     92  C         -9.2700   28.3280  -10.5000 C.2   106  GLU106      0.2260
     93  O         -9.3300   29.3320   -9.7870 O.2   106  GLU106     -0.2867
     94  CB        -9.0240   26.0130   -9.6190 C.3   106  GLU106      0.0388
     95  CG        -9.7710   26.3160   -8.3570 C.3   106  GLU106      0.1160
     96  CD       -10.1350   25.0560   -7.5890 C.2   106  GLU106      0.3649
     97  OE1       -9.2500   24.1900   -7.4250 O.co2 106  GLU106     -0.2457
     98  OE2      -11.3000   24.9320   -7.1520 O.co2 106  GLU106     -0.2457
     99  N        -15.6190   27.4380  -11.2540 N.3   109  THR109     -0.1204
    100  CA       -16.3630   26.7340  -12.3070 C.3   109  THR109      0.1979
    101  C        -17.7870   27.2720  -12.5580 C.2   109  THR109      0.2459
    102  O        -18.2310   27.3130  -13.7010 O.2   109  THR109     -0.2732
    103  CB       -16.4440   25.2100  -11.9900 C.3   109  THR109      0.1783
    104  OG1      -15.1390   24.7170  -11.6630 O.3   109  THR109     -0.2211
    105  CG2      -16.9620   24.4420  -13.1770 C.3   109  THR109      0.0376
    106  N        -18.5000   27.7150  -11.5050 N.am  110  PRO110     -0.2728
    107  CA       -19.8450   28.2550  -11.7810 C.3   110  PRO110      0.1401
    108  C        -19.8870   29.4070  -12.7960 C.2   110  PRO110      0.2269
    109  O        -20.9540   29.6350  -13.4020 O.2   110  PRO110     -0.2865
    110  CB       -20.3140   28.7320  -10.4100 C.3   110  PRO110      0.0296
    111  CG       -19.6560   27.7880   -9.4570 C.3   110  PRO110      0.0237
    112  CD       -18.2940   27.4700  -10.0670 C.3   110  PRO110      0.0939
    113  N        -20.9660   28.0700  -15.9250 N.3   113  THR113     -0.1218
    114  CA       -22.4020   27.8380  -16.0610 C.3   113  THR113      0.1862
    115  C        -23.1030   29.1130  -16.4960 C.2   113  THR113      0.2287
    116  O        -24.0190   29.0740  -17.3220 O.2   113  THR113     -0.2866
    117  CB       -23.0540   27.3380  -14.7510 C.3   113  THR113      0.1770
    118  OG1      -22.8330   25.9340  -14.6140 O.3   113  THR113     -0.2211
    119  CG2      -24.5540   27.5670  -14.7850 C.3   113  THR113      0.0375
@<TRIPOS>BOND
     1   116   115    2
     2   115   114    1
     3   114   113    1
     4   114   117    1
     5   119   117    1
     6   117   118    1
     7   102   101    2
     8   109   108    2
     9   105   103    1
    10   108   107    1
    11   101   100    1
    12   101   106   am
    13   100   103    1
    14   100    99    1
    15   103   104    1
    16   107   106    1
    17   107   110    1
    18   106   112    1
    19    92    91    1
    20    92    93    2
    21   110   111    1
    22    91    94    1
    23    91    90    1
    24   112   111    1
    25    94    95    1
    26    89    88    1
    27    88    85    1
    28    95    96    1
    29    53    51    1
    30    96    97   ar
    31    96    98   ar
    32    87    86    2
    33    86    85    1
    34    85    84    1
    35    64    62    1
    36    51    50    1
    37    68    67    2
    38    69    70    1
    39    69    71    1
    40    69    66    1
    41    15    13   ar
    42    15    17   ar
    43    52    50    1
    44    18    17    1
    45    84    74   am
    46    62    61    2
    47    62    63    1
    48    61    60    1
    49    13    12   ar
    50    17    16   ar
    51     6     5    1
    52    67    66    1
    53    67    72   am
    54    50    47    1
    55    60    59    1
    56    65    66    1
    57    65    56   am
    58    12    11    1
    59    12    14   ar
    60    59    58    1
    61     5     2    1
    62    16    14   ar
    63    74    73    1
    64    74    75    2
    65    34    33    1
    66    11     8    1
    67    73    72    1
    68    73    76    1
    69    47    46    1
    70    47    48    1
    71    33    32   ar
    72    33    31   ar
    73    32    30   ar
    74    55    58    1
    75    55    56    1
    76    55    54    1
    77    31    29   ar
    78    56    57    2
    79     7     8    1
    80     7     3   am
    81     8     9    1
    82    30    28   ar
    83    29    28   ar
    84    28    27    1
    85    79    81   ar
    86    79    77   ar
    87     2     3    1
    88     2     1    1
    89    48    49    2
    90     3     4    2
    91    81    82   ar
    92    76    77    1
    93    27    24    1
    94    77    78   ar
    95    38    37    2
    96    82    83    1
    97    82    80   ar
    98     9    10    2
    99    78    80   ar
   100    22    21    2
   101    21    20    1
   102    21    23   am
   103    37    36    1
   104    24    23    1
   105    24    25    1
   106    39    36    1
   107    39    40    1
   108    20    19    1
   109    45    43    1
   110    36    35    1
   111    40    41    1
   112    42    43    2
   113    42    41    1
   114    25    26    2
   115    43    44    1
