@<TRIPOS>MOLECULE
tmp/5br7A01.pdb
 123 118 0 0 0
SMALL
GASTEIGER

@<TRIPOS>ATOM
      1  N         69.4120   55.9220   45.0480 N.3    59  ALA59      -0.1245
      2  CA        69.1930   57.0520   45.9440 C.3    59  ALA59       0.1562
      3  C         70.3690   57.1340   46.9140 C.2    59  ALA59       0.2260
      4  O         70.8550   56.1120   47.3850 O.2    59  ALA59      -0.2867
      5  CB        67.8820   56.9140   46.6960 C.3    59  ALA59       0.0290
      6  N         71.8140   58.5820   50.4620 N.3    61  LEU61      -0.1245
      7  CA        71.5280   59.1530   51.7800 C.3    61  LEU61       0.1561
      8  C         72.8370   59.3270   52.5320 C.2    61  LEU61       0.2260
      9  O         73.5910   58.3610   52.6920 O.2    61  LEU61      -0.2867
     10  CB        70.5880   58.2510   52.5920 C.3    61  LEU61       0.0270
     11  CG        69.1070   58.1260   52.2180 C.3    61  LEU61       0.0019
     12  CD1       68.4760   59.4980   52.0240 C.3    61  LEU61       0.0001
     13  CD2       68.9290   57.2630   50.9750 C.3    61  LEU61       0.0001
     14  N         75.1120   59.9420   55.8230 N.3    63  HIS63      -0.1241
     15  CA        75.0930   59.7650   57.2670 C.3    63  HIS63       0.1621
     16  C         76.4760   59.3210   57.7560 C.2    63  HIS63       0.2264
     17  O         77.1290   58.5050   57.1020 O.2    63  HIS63      -0.2867
     18  CB        74.0270   58.7280   57.6520 C.3    63  HIS63       0.0745
     19  CG        74.2790   57.3700   57.0650 C.ar   63  HIS63       0.0817
     20  ND1       74.8920   56.3550   57.7720 N.ar   63  HIS63      -0.2268
     21  CD2       74.0380   56.8750   55.8260 C.ar   63  HIS63       0.1154
     22  CE1       75.0020   55.2880   56.9980 C.ar   63  HIS63       0.1986
     23  NE2       74.4890   55.5770   55.8120 N.ar   63  HIS63      -0.2212
     24  N         66.3870   59.9590   57.6170 N.3    84  HIS84      -0.1241
     25  CA        65.7880   58.8860   56.8350 C.3    84  HIS84       0.1621
     26  C         64.9000   57.9980   57.7070 C.2    84  HIS84       0.2264
     27  O         65.2910   57.6140   58.8160 O.2    84  HIS84      -0.2867
     28  CB        66.8650   58.0370   56.1780 C.3    84  HIS84       0.0745
     29  CG        66.3410   57.1790   55.0710 C.ar   84  HIS84       0.0817
     30  ND1       65.4850   57.6640   54.1030 N.ar   84  HIS84      -0.2268
     31  CD2       66.5350   55.8710   54.7830 C.ar   84  HIS84       0.1154
     32  CE1       65.1900   56.6940   53.2570 C.ar   84  HIS84       0.1986
     33  NE2       65.8150   55.5970   53.6450 N.ar   84  HIS84      -0.2212
     34  N         61.9590   54.6650   56.9360 N.3    86  VAL86      -0.1245
     35  CA        61.4490   53.7080   55.9530 C.3    86  VAL86       0.1561
     36  C         60.2140   53.0030   56.5050 C.2    86  VAL86       0.2260
     37  O         60.1400   52.7360   57.7000 O.2    86  VAL86      -0.2867
     38  CB        62.5280   52.6570   55.5940 C.3    86  VAL86       0.0252
     39  CG1       61.9630   51.5440   54.6670 C.3    86  VAL86       0.0019
     40  CG2       63.7460   53.3340   54.9580 C.3    86  VAL86       0.0019
     41  N         66.0150   55.3890   60.5360 N.3   186  TYR186     -0.1227
     42  CA        66.6160   54.2700   59.8250 C.3   186  TYR186      0.1736
     43  C         68.1030   54.1260   60.1590 C.2   186  TYR186      0.2595
     44  O         68.6080   53.0130   60.3120 O.2   186  TYR186     -0.2718
     45  CB        66.4410   54.4140   58.3170 C.3   186  TYR186      0.0548
     46  CG        66.7820   53.1620   57.5670 C.ar  186  TYR186     -0.0200
     47  CD1       65.8900   52.1010   57.5270 C.ar  186  TYR186     -0.0009
     48  CD2       67.9860   53.0350   56.8880 C.ar  186  TYR186     -0.0009
     49  CE1       66.1880   50.9380   56.8480 C.ar  186  TYR186      0.0417
     50  CE2       68.2850   51.8770   56.1950 C.ar  186  TYR186      0.0417
     51  CZ        67.3780   50.8310   56.1830 C.ar  186  TYR186      0.1957
     52  OH        67.6670   49.6630   55.5070 O.3   186  TYR186     -0.2866
     53  N         68.8120   55.2430   60.2360 N.am  187  PHE187     -0.1976
     54  CA        70.2520   55.1830   60.4890 C.3   187  PHE187      0.1639
     55  C         70.5730   55.4870   61.9500 C.2   187  PHE187      0.2290
     56  O         69.8130   56.1700   62.6260 O.2   187  PHE187     -0.2864
     57  CB        71.0140   56.1620   59.5820 C.3   187  PHE187      0.0560
     58  CG        70.9120   55.8360   58.1110 C.ar  187  PHE187     -0.0200
     59  CD1       71.4870   54.6750   57.6080 C.ar  187  PHE187     -0.0042
     60  CD2       70.2690   56.7010   57.2400 C.ar  187  PHE187     -0.0042
     61  CE1       71.4110   54.3700   56.2510 C.ar  187  PHE187     -0.0003
     62  CE2       70.1830   56.4040   55.8790 C.ar  187  PHE187     -0.0003
     63  CZ        70.7580   55.2440   55.3890 C.ar  187  PHE187     -0.0000
     64  N         60.3980   56.3950   51.0340 N.3   275  VAL275     -0.1245
     65  CA        60.6890   55.0100   50.6670 C.3   275  VAL275      0.1561
     66  C         59.7260   54.0270   51.2980 C.2   275  VAL275      0.2260
     67  O         59.5060   54.0320   52.5130 O.2   275  VAL275     -0.2867
     68  CB        62.1220   54.5910   51.0690 C.3   275  VAL275      0.0252
     69  CG1       62.3410   53.1020   50.7610 C.3   275  VAL275      0.0019
     70  CG2       63.1660   55.4430   50.3360 C.3   275  VAL275      0.0019
     71  N         61.5470   47.8940   46.5000 N.3   287  ARG287     -0.1245
     72  CA        61.0140   49.1030   47.1140 C.3   287  ARG287      0.1563
     73  C         60.7130   50.1880   46.0830 C.2   287  ARG287      0.2260
     74  O         61.1720   50.1360   44.9370 O.2   287  ARG287     -0.2867
     75  CB        61.9990   49.6300   48.1720 C.3   287  ARG287      0.0307
     76  CG        63.3730   49.8650   47.6220 C.3   287  ARG287      0.0489
     77  CD        64.4450   49.9820   48.7060 C.3   287  ARG287      0.2205
     78  NE        65.7560   50.0710   48.0710 N.pl3 287  ARG287     -0.0865
     79  CZ        66.9040   50.2330   48.7140 C.cat 287  ARG287      0.5346
     80  NH1       66.9150   50.3270   50.0370 N.pl3 287  ARG287      0.1354
     81  NH2       68.0390   50.2950   48.0260 N.pl3 287  ARG287      0.1354
     82  N         60.9180   54.3640   45.6540 N.3   289  HIS289     -0.1241
     83  CA        61.3570   55.6800   46.1140 C.3   289  HIS289      0.1621
     84  C         60.4400   56.7350   45.5150 C.2   289  HIS289      0.2264
     85  O         60.1580   56.6920   44.3170 O.2   289  HIS289     -0.2867
     86  CB        62.8070   55.9690   45.6910 C.3   289  HIS289      0.0745
     87  CG        63.8250   55.0780   46.3350 C.ar  289  HIS289      0.0817
     88  ND1       64.0830   53.7990   45.8960 N.ar  289  HIS289     -0.2268
     89  CD2       64.6680   55.2970   47.3710 C.ar  289  HIS289      0.1154
     90  CE1       65.0310   53.2610   46.6440 C.ar  289  HIS289      0.1986
     91  NE2       65.4030   54.1490   47.5470 N.ar  289  HIS289     -0.2212
     92  N         77.2360   46.2490   43.6440 N.3   325  TYR325     -0.1241
     93  CA        77.6440   45.5570   44.8750 C.3   325  TYR325      0.1605
     94  C         78.4630   44.3020   44.5980 C.2   325  TYR325      0.2264
     95  O         78.0340   43.4370   43.8430 O.2   325  TYR325     -0.2867
     96  CB        76.4120   45.1910   45.7040 C.3   325  TYR325      0.0534
     97  CG        75.5820   46.3960   46.0350 C.ar  325  TYR325     -0.0201
     98  CD1       75.9150   47.2110   47.1110 C.ar  325  TYR325     -0.0009
     99  CD2       74.4930   46.7500   45.2490 C.ar  325  TYR325     -0.0009
    100  CE1       75.1660   48.3290   47.4030 C.ar  325  TYR325      0.0417
    101  CE2       73.7420   47.8700   45.5270 C.ar  325  TYR325      0.0417
    102  CZ        74.0820   48.6560   46.6030 C.ar  325  TYR325      0.1957
    103  OH        73.3340   49.7700   46.8930 O.3   325  TYR325     -0.2866
    104  N         82.1510   47.5400   48.4950 N.3   363  TYR363     -0.1241
    105  CA        81.1060   48.5510   48.5850 C.3   363  TYR363      0.1605
    106  C         81.5360   49.5660   49.6250 C.2   363  TYR363      0.2264
    107  O         81.9920   49.1920   50.6990 O.2   363  TYR363     -0.2867
    108  CB        79.7350   47.9760   48.9480 C.3   363  TYR363      0.0534
    109  CG        78.7730   49.1180   49.1690 C.ar  363  TYR363     -0.0201
    110  CD1       78.2170   49.7940   48.0900 C.ar  363  TYR363     -0.0009
    111  CD2       78.4780   49.5680   50.4470 C.ar  363  TYR363     -0.0009
    112  CE1       77.3700   50.8700   48.2870 C.ar  363  TYR363      0.0417
    113  CE2       77.6400   50.6450   50.6540 C.ar  363  TYR363      0.0417
    114  CZ        77.0890   51.2930   49.5720 C.ar  363  TYR363      0.1957
    115  OH        76.2480   52.3640   49.7800 O.3   363  TYR363     -0.2866
    116  N         80.0970   53.2550   51.3940 N.3   365  ASP365     -0.1239
    117  CA        79.2330   54.4270   51.5290 C.3   365  ASP365      0.1674
    118  C         80.0600   55.6870   51.2770 C.2   365  ASP365      0.2266
    119  O         81.2900   55.6470   51.3180 O.2   365  ASP365     -0.2867
    120  CB        78.5960   54.5210   52.9200 C.3   365  ASP365      0.1410
    121  CG        77.4130   53.5820   53.0980 C.2   365  ASP365      0.3668
    122  OD1       76.6470   53.3720   52.1340 O.co2 365  ASP365     -0.2456
    123  OD2       77.2590   53.0620   54.2190 O.co2 365  ASP365     -0.2456
@<TRIPOS>BOND
     1    92    93    1
     2    95    94    2
     3    85    84    2
     4    94    93    1
     5    93    96    1
     6    74    73    2
     7     1     2    1
     8    99   101   ar
     9    99    97   ar
    10    84    83    1
    11   101   102   ar
    12    82    83    1
    13    86    83    1
    14    86    87    1
    15    96    97    1
    16    88    87   ar
    17    88    90   ar
    18     2     5    1
    19     2     3    1
    20    97    98   ar
    21    73    72    1
    22    87    89   ar
    23    71    72    1
    24   102   103    1
    25   102   100   ar
    26    90    91   ar
    27     3     4    2
    28    98   100   ar
    29    72    75    1
    30    89    91   ar
    31    76    75    1
    32    76    77    1
    33    81    79    1
    34    78    77    1
    35    78    79    2
    36   110   112   ar
    37   110   109   ar
    38   112   114   ar
    39   104   105    1
    40   105   108    1
    41   105   106    1
    42    79    80    1
    43   108   109    1
    44   109   111   ar
    45   114   115    1
    46   114   113   ar
    47   106   107    2
    48    70    68    1
    49   111   113   ar
    50     6     7    1
    51    65    64    1
    52    65    68    1
    53    65    66    1
    54    69    68    1
    55    13    11    1
    56   118   119    2
    57   118   117    1
    58    66    67    2
    59   116   117    1
    60   117   120    1
    61     7     8    1
    62     7    10    1
    63    12    11    1
    64   122   121   ar
    65    11    10    1
    66     8     9    2
    67   120   121    1
    68   121   123   ar
    69    32    33   ar
    70    32    30   ar
    71    33    31   ar
    72    30    29   ar
    73    39    38    1
    74    31    29   ar
    75    40    38    1
    76    29    28    1
    77    63    62   ar
    78    63    61   ar
    79    52    51    1
    80    38    35    1
    81    23    21   ar
    82    23    22   ar
    83    14    15    1
    84    21    19   ar
    85    62    60   ar
    86    35    36    1
    87    35    34    1
    88    28    25    1
    89    51    50   ar
    90    51    49   ar
    91    50    48   ar
    92    61    59   ar
    93    36    37    2
    94    25    24    1
    95    25    26    1
    96    49    47   ar
    97    48    46   ar
    98    22    20   ar
    99    19    18    1
   100    19    20   ar
   101    17    16    2
   102    60    58   ar
   103    15    18    1
   104    15    16    1
   105    47    46   ar
   106    46    45    1
   107    59    58   ar
   108    26    27    2
   109    58    57    1
   110    45    42    1
   111    57    54    1
   112    42    43    1
   113    42    41    1
   114    43    53   am
   115    43    44    2
   116    53    54    1
   117    54    55    1
   118    55    56    2
