@<TRIPOS>MOLECULE
tmp/5brdA00.pdb
 135 131 0 0 0
SMALL
GASTEIGER

@<TRIPOS>ATOM
      1  N          9.7420  -14.5800   28.2310 N.3    92  PRO92      -0.2102
      2  CA         9.6890  -13.4710   29.2020 C.3    92  PRO92       0.1504
      3  C          8.5940  -13.5410   30.2730 C.2    92  PRO92       0.2576
      4  O          7.8290  -12.6020   30.4030 O.2    92  PRO92      -0.2718
      5  CB         9.4290  -12.2650   28.3120 C.3    92  PRO92       0.0282
      6  CG         8.6610  -12.8110   27.1730 C.3    92  PRO92       0.0208
      7  CD         9.1900  -14.1860   26.9220 C.3    92  PRO92       0.0893
      8  N          8.5320  -14.6230   31.0350 N.am   93  GLY93      -0.1943
      9  CA         7.5630  -14.7520   32.1120 C.3    93  GLY93       0.1998
     10  C          8.0510  -15.7970   33.0980 C.2    93  GLY93       0.2480
     11  O          9.1210  -16.3610   32.9140 O.2    93  GLY93      -0.2729
     12  N          7.2830  -16.0560   34.1600 N.am   94  PRO94      -0.2726
     13  CA         7.6500  -17.1490   35.0780 C.3    94  PRO94       0.1402
     14  C          7.5710  -18.5330   34.3980 C.2    94  PRO94       0.2269
     15  O          6.6380  -18.8050   33.6310 O.2    94  PRO94      -0.2865
     16  CB         6.5980  -17.0390   36.1910 C.3    94  PRO94       0.0296
     17  CG         6.1200  -15.6120   36.1190 C.3    94  PRO94       0.0237
     18  CD         6.1510  -15.2610   34.6580 C.3    94  PRO94       0.0939
     19  N          2.0830  -17.0440   33.3940 N.3   103  PRO103     -0.2102
     20  CA         1.4930  -16.2010   32.3470 C.3   103  PRO103      0.1504
     21  C          2.4740  -15.1160   31.9120 C.2   103  PRO103      0.2576
     22  O          3.4320  -14.8570   32.6370 O.2   103  PRO103     -0.2718
     23  CB         0.3090  -15.5630   33.0680 C.3   103  PRO103      0.0282
     24  CG         0.8150  -15.3620   34.4720 C.3   103  PRO103      0.0208
     25  CD         1.7140  -16.5730   34.7460 C.3   103  PRO103      0.0893
     26  N          2.2390  -14.4810   30.7690 N.am  104  PHE104     -0.1963
     27  CA         3.1610  -13.4480   30.2880 C.3   104  PHE104      0.1771
     28  C          2.5840  -12.0280   30.3100 C.2   104  PHE104      0.2620
     29  O          1.4640  -11.8090   29.8600 O.2   104  PHE104     -0.2715
     30  CB         3.6120  -13.7960   28.8770 C.3   104  PHE104      0.0574
     31  CG         4.4020  -15.0670   28.7960 C.ar  104  PHE104     -0.0200
     32  CD1        5.7630  -15.0680   29.0650 C.ar  104  PHE104     -0.0042
     33  CD2        3.7900  -16.2590   28.4490 C.ar  104  PHE104     -0.0042
     34  CE1        6.4960  -16.2260   28.9810 C.ar  104  PHE104     -0.0003
     35  CE2        4.5210  -17.4260   28.3690 C.ar  104  PHE104     -0.0003
     36  CZ         5.8740  -17.4130   28.6350 C.ar  104  PHE104     -0.0000
     37  N          3.3530  -11.0670   30.8240 N.am  105  ASN105     -0.1958
     38  CA         2.9290   -9.6560   30.8070 C.3   105  ASN105      0.1819
     39  C          2.7970   -9.0990   29.3830 C.2   105  ASN105      0.2621
     40  O          1.9920   -8.2000   29.1510 O.2   105  ASN105     -0.2715
     41  CB         3.8650   -8.7430   31.6320 C.3   105  ASN105      0.1195
     42  CG         3.5320   -8.7180   33.1410 C.2   105  ASN105      0.2630
     43  OD1        2.3860   -8.9170   33.5490 O.2   105  ASN105     -0.2716
     44  ND2        4.5510   -8.4530   33.9670 N.am  105  ASN105     -0.0877
     45  N          3.5820   -9.6260   28.4380 N.am  106  ASN106     -0.1972
     46  CA         3.5250   -9.1720   27.0380 C.3   106  ASN106      0.1688
     47  C          2.5230   -9.9380   26.1980 C.2   106  ASN106      0.2292
     48  O          1.5900   -9.3700   25.6340 O.2   106  ASN106     -0.2864
     49  CB         4.8740   -9.3360   26.3310 C.3   106  ASN106      0.1181
     50  CG         6.0440   -8.9760   27.1990 C.2   106  ASN106      0.2629
     51  OD1        6.6440   -9.8460   27.8370 O.2   106  ASN106     -0.2716
     52  ND2        6.3990   -7.6920   27.2130 N.am  106  ASN106     -0.0877
     53  N         13.2840  -19.0010   32.0420 N.3   130  ASN130     -0.1225
     54  CA        12.9230  -17.5760   32.1540 C.3   130  ASN130      0.1785
     55  C         14.0180  -16.7120   31.4690 C.2   130  ASN130      0.2597
     56  O         15.1940  -17.0660   31.4680 O.2   130  ASN130     -0.2718
     57  CB        12.6980  -17.1860   33.6250 C.3   130  ASN130      0.1169
     58  CG        12.6950  -15.6660   33.8640 C.2   130  ASN130      0.2627
     59  OD1       13.7020  -15.0860   34.2710 O.2   130  ASN130     -0.2716
     60  ND2       11.5530  -15.0350   33.6600 N.am  130  ASN130     -0.0877
     61  N         13.6380  -15.6080   30.8510 N.am  131  ASP131     -0.1960
     62  CA        14.6240  -14.8120   30.1240 C.3   131  ASP131      0.1840
     63  C         15.8230  -14.3830   30.9700 C.2   131  ASP131      0.2621
     64  O         16.9430  -14.3770   30.4820 O.2   131  ASP131     -0.2715
     65  CB        13.9890  -13.6230   29.3750 C.3   131  ASP131      0.1450
     66  CG        13.3100  -12.5960   30.2980 C.2   131  ASP131      0.3671
     67  OD1       13.1580  -12.8230   31.5200 O.co2 131  ASP131     -0.2456
     68  OD2       12.9000  -11.5360   29.7600 O.co2 131  ASP131     -0.2456
     69  N         15.5940  -14.0750   32.2420 N.am  132  LEU132     -0.1977
     70  CA        16.6790  -13.6490   33.1080 C.3   132  LEU132      0.1596
     71  C         17.4210  -14.8230   33.7150 C.2   132  LEU132      0.2287
     72  O         18.5570  -14.6620   34.1590 O.2   132  LEU132     -0.2864
     73  CB        16.2060  -12.6830   34.1890 C.3   132  LEU132      0.0297
     74  CG        16.5400  -11.2330   33.8350 C.3   132  LEU132      0.0022
     75  CD1       18.0560  -10.9800   33.8330 C.3   132  LEU132      0.0001
     76  CD2       15.9100  -10.8320   32.4990 C.3   132  LEU132      0.0001
     77  N         17.6830   -6.6150   34.8350 N.3   182  ALA182     -0.1245
     78  CA        17.5430   -6.1600   33.4590 C.3   182  ALA182      0.1562
     79  C         16.3840   -5.1530   33.3310 C.2   182  ALA182      0.2260
     80  O         15.2620   -5.5400   33.0400 O.2   182  ALA182     -0.2867
     81  CB        17.3440   -7.3460   32.5210 C.3   182  ALA182      0.0290
     82  N         10.0140   -4.7290   30.5680 N.3   186  GLY186     -0.1210
     83  CA         9.7300   -5.1440   31.9340 C.3   186  GLY186      0.1956
     84  C         11.0080   -5.0660   32.7610 C.2   186  GLY186      0.2612
     85  O         12.0690   -4.7580   32.2190 O.2   186  GLY186     -0.2717
     86  N         10.9240   -5.3300   34.0630 N.am  187  LEU187     -0.1965
     87  CA        12.1200   -5.3920   34.9130 C.3   187  LEU187      0.1728
     88  C         12.5220   -6.8500   35.2620 C.2   187  LEU187      0.2617
     89  O         11.8740   -7.4990   36.0620 O.2   187  LEU187     -0.2715
     90  CB        11.9110   -4.5350   36.1770 C.3   187  LEU187      0.0311
     91  CG        12.9680   -4.5520   37.2950 C.3   187  LEU187      0.0022
     92  CD1       14.3360   -3.9970   36.8400 C.3   187  LEU187      0.0001
     93  CD2       12.4480   -3.8310   38.5580 C.3   187  LEU187      0.0001
     94  N         13.5820   -7.3670   34.6510 N.am  188  GLY188     -0.1940
     95  CA        13.9950   -8.7520   34.8850 C.3   188  GLY188      0.2014
     96  C         14.9760   -8.9140   36.0350 C.2   188  GLY188      0.2639
     97  O         15.7480   -8.0180   36.3490 O.2   188  GLY188     -0.2714
     98  N         14.9610  -10.0610   36.6800 N.am  189  SER189     -0.1949
     99  CA        15.8490  -10.2760   37.8110 C.3   189  SER189      0.1924
    100  C         16.2080  -11.7530   38.0160 C.2   189  SER189      0.2314
    101  O         15.3190  -12.6080   38.0610 O.2   189  SER189     -0.2863
    102  CB        15.2090   -9.7460   39.0850 C.3   189  SER189      0.2116
    103  OG        14.0780  -10.5230   39.4310 O.3   189  SER189     -0.2180
    104  N         14.1790  -15.0060   39.6270 N.3   206  LEU206     -0.1231
    105  CA        13.4590  -14.2230   40.6200 C.3   206  LEU206      0.1693
    106  C         12.3800  -13.4580   39.9060 C.2   206  LEU206      0.2591
    107  O         12.4270  -13.3460   38.6840 O.2   206  LEU206     -0.2718
    108  CB        14.3980  -13.2310   41.3240 C.3   206  LEU206      0.0284
    109  CG        15.5490  -13.8630   42.1230 C.3   206  LEU206      0.0019
    110  CD1       16.5260  -12.8140   42.6020 C.3   206  LEU206      0.0001
    111  CD2       15.0060  -14.6870   43.2760 C.3   206  LEU206      0.0001
    112  N         11.4080  -12.9520   40.6700 N.am  207  GLU207     -0.1979
    113  CA        10.4610  -11.9410   40.1800 C.3   207  GLU207      0.1602
    114  C         10.4120  -10.7310   41.1190 C.2   207  GLU207      0.2287
    115  O          9.3410  -10.3720   41.6350 O.2   207  GLU207     -0.2864
    116  CB         9.0540  -12.5390   39.9920 C.3   207  GLU207      0.0415
    117  CG         8.9640  -13.5520   38.8670 C.3   207  GLU207      0.1163
    118  CD         9.0580  -12.9190   37.4940 C.2   207  GLU207      0.3649
    119  OE1        8.8510  -11.6830   37.3700 O.co2 207  GLU207     -0.2457
    120  OE2        9.3390  -13.6560   36.5260 O.co2 207  GLU207     -0.2457
    121  N          7.8800   -7.6130   40.7960 N.3   210  SER210     -0.1217
    122  CA         6.4660   -7.6580   41.1710 C.3   210  SER210      0.1889
    123  C          6.2310   -7.4450   42.6660 C.2   210  SER210      0.2288
    124  O          5.0950   -7.3730   43.1230 O.2   210  SER210     -0.2866
    125  CB         5.8360   -8.9570   40.6980 C.3   210  SER210      0.2089
    126  OG         5.8730   -9.0540   39.2960 O.3   210  SER210     -0.2183
    127  N          8.4260   -2.8170   39.1340 N.3   236  GLU236     -0.1245
    128  CA         8.2710   -2.6890   37.7010 C.3   236  GLU236      0.1567
    129  C          7.3710   -1.4870   37.2680 C.2   236  GLU236      0.2260
    130  O          7.6130   -0.8940   36.2120 O.2   236  GLU236     -0.2867
    131  CB         7.7980   -3.9940   37.0670 C.3   236  GLU236      0.0388
    132  CG         7.8270   -3.9330   35.5420 C.3   236  GLU236      0.1160
    133  CD         7.5530   -5.2660   34.8850 C.2   236  GLU236      0.3649
    134  OE1        6.3850   -5.5690   34.5780 O.co2 236  GLU236     -0.2457
    135  OE2        8.5100   -6.0190   34.6560 O.co2 236  GLU236     -0.2457
@<TRIPOS>BOND
     1    48    47    2
     2    47    46    1
     3    49    46    1
     4    49    50    1
     5     7     6    1
     6     7     1    1
     7    46    45    1
     8     6     5    1
     9    50    52   am
    10    50    51    2
    11     1     2    1
    12     5     2    1
    13    35    33   ar
    14    35    36   ar
    15    45    39   am
    16    33    31   ar
    17    36    34   ar
    18    31    30    1
    19    31    32   ar
    20    30    27    1
    21    34    32   ar
    22    40    39    2
    23     2     3    1
    24    65    62    1
    25    65    66    1
    26    39    38    1
    27    68    66   ar
    28    29    28    2
    29    62    61    1
    30    62    63    1
    31     3     4    2
    32     3     8   am
    33    27    28    1
    34    27    26    1
    35    66    67   ar
    36    28    37   am
    37    64    63    2
    38    82    83    1
    39    26    21   am
    40    38    37    1
    41    38    41    1
    42    61    55   am
    43    63    69   am
    44     8     9    1
    45    56    55    2
    46    55    54    1
    47    41    42    1
    48    21    20    1
    49    21    22    2
    50    83    84    1
    51    53    54    1
    52     9    10    1
    53    54    57    1
    54    85    84    2
    55    69    70    1
    56    20    23    1
    57    20    19    1
    58    76    74    1
    59    81    78    1
    60    84    86   am
    61    11    10    2
    62    80    79    2
    63    23    24    1
    64    10    12   am
    65    70    71    1
    66    70    73    1
    67    42    43    2
    68    42    44   am
    69    79    78    1
    70    19    25    1
    71    78    77    1
    72    57    58    1
    73    15    14    2
    74    60    58   am
    75    71    72    2
    76    75    74    1
    77    74    73    1
    78    58    59    2
    79    86    87    1
    80    12    18    1
    81    12    13    1
    82    14    13    1
    83    24    25    1
    84   134   133   ar
    85    94    95    1
    86    94    88   am
    87   135   133   ar
    88    18    17    1
    89   133   132    1
    90    95    96    1
    91    87    88    1
    92    87    90    1
    93    13    16    1
    94    88    89    2
    95   132   131    1
    96    96    97    2
    97    96    98   am
    98    17    16    1
    99    90    91    1
   100   130   129    2
   101   120   118   ar
   102    98    99    1
   103    92    91    1
   104   131   128    1
   105   129   128    1
   106    91    93    1
   107   119   118   ar
   108   118   117    1
   109   128   127    1
   110    99   100    1
   111    99   102    1
   112   100   101    2
   113   107   106    2
   114   117   116    1
   115   102   103    1
   116   126   125    1
   117   104   105    1
   118   106   105    1
   119   106   112   am
   120   116   113    1
   121   113   112    1
   122   113   114    1
   123   105   108    1
   124   125   122    1
   125   121   122    1
   126   114   115    2
   127   122   123    1
   128   108   109    1
   129   109   110    1
   130   109   111    1
   131   123   124    2
