@<TRIPOS>MOLECULE
tmp/5breB01.pdb
 127 123 0 0 0
SMALL
GASTEIGER

@<TRIPOS>ATOM
      1  N         -7.7990  -17.3670   26.2350 N.3    92  PRO92      -0.2102
      2  CA        -9.0020  -16.5930   25.8910 C.3    92  PRO92       0.1504
      3  C         -8.7080  -15.3080   25.1390 C.2    92  PRO92       0.2576
      4  O         -9.1060  -14.2380   25.6100 O.2    92  PRO92      -0.2718
      5  CB        -9.6150  -16.2780   27.2610 C.3    92  PRO92       0.0282
      6  CG        -8.4430  -16.2780   28.2100 C.3    92  PRO92       0.0208
      7  CD        -7.3930  -17.1930   27.6460 C.3    92  PRO92       0.0893
      8  N         -8.0420  -15.4060   23.9890 N.am   93  GLY93      -0.1943
      9  CA        -7.6770  -14.2240   23.2170 C.3    93  GLY93       0.1998
     10  C         -7.3200  -14.5130   21.7680 C.2    93  GLY93       0.2480
     11  O         -7.2110  -15.6660   21.3710 O.2    93  GLY93      -0.2729
     12  N         -7.1520  -13.4590   20.9640 N.am   94  PRO94      -0.2726
     13  CA        -6.7570  -13.6980   19.5710 C.3    94  PRO94       0.1402
     14  C         -5.3810  -14.3560   19.5650 C.2    94  PRO94       0.2269
     15  O         -4.5310  -13.9930   20.3730 O.2    94  PRO94      -0.2865
     16  CB        -6.6530  -12.2780   18.9730 C.3    94  PRO94       0.0296
     17  CG        -7.2780  -11.3550   19.9730 C.3    94  PRO94       0.0237
     18  CD        -7.1640  -12.0250   21.3140 C.3    94  PRO94       0.0939
     19  N         -3.4340   -9.0320   22.4870 N.3   103  PRO103     -0.2102
     20  CA        -3.6540   -8.7800   23.9150 C.3   103  PRO103      0.1504
     21  C         -5.0010   -9.3100   24.3650 C.2   103  PRO103      0.2576
     22  O         -5.9170   -9.4270   23.5380 O.2   103  PRO103     -0.2718
     23  CB        -3.6710   -7.2470   23.9930 C.3   103  PRO103      0.0282
     24  CG        -4.1540   -6.8080   22.6340 C.3   103  PRO103      0.0208
     25  CD        -3.5020   -7.7880   21.6930 C.3   103  PRO103      0.0893
     26  N         -5.1170   -9.6080   25.6580 N.am  104  PHE104     -0.1963
     27  CA        -6.3420  -10.1710   26.2120 C.3   104  PHE104      0.1771
     28  C         -7.2130   -9.1020   26.8670 C.2   104  PHE104      0.2619
     29  O         -6.7280   -8.0300   27.2350 O.2   104  PHE104     -0.2715
     30  CB        -5.9990  -11.2650   27.2160 C.3   104  PHE104      0.0574
     31  CG        -5.1900  -12.3840   26.6280 C.ar  104  PHE104     -0.0200
     32  CD1       -3.8110  -12.2740   26.5040 C.ar  104  PHE104     -0.0042
     33  CD2       -5.8130  -13.5490   26.1840 C.ar  104  PHE104     -0.0042
     34  CE1       -3.0650  -13.3090   25.9500 C.ar  104  PHE104     -0.0003
     35  CE2       -5.0770  -14.5890   25.6370 C.ar  104  PHE104     -0.0003
     36  CZ        -3.6940  -14.4670   25.5170 C.ar  104  PHE104     -0.0000
     37  N         -8.5010   -9.4010   26.9990 N.am  105  ASN105     -0.1972
     38  CA        -9.4720   -8.4790   27.5850 C.3   105  ASN105      0.1688
     39  C         -9.5770   -8.6630   29.0980 C.2   105  ASN105      0.2292
     40  O         -9.7020   -7.6970   29.8570 O.2   105  ASN105     -0.2864
     41  CB       -10.8460   -8.7030   26.9320 C.3   105  ASN105      0.1181
     42  CG       -11.9600   -7.9040   27.5960 C.2   105  ASN105      0.2629
     43  OD1      -11.7240   -6.8340   28.1700 O.2   105  ASN105     -0.2716
     44  ND2      -13.1860   -8.4200   27.5150 N.am  105  ASN105     -0.0877
     45  N         -6.7970  -20.2310   20.1700 N.3   130  ASN130     -0.1225
     46  CA        -7.8120  -19.4300   20.8530 C.3   130  ASN130      0.1785
     47  C         -8.8000  -20.3940   21.5330 C.2   130  ASN130      0.2597
     48  O         -8.9610  -21.5340   21.0780 O.2   130  ASN130     -0.2718
     49  CB        -8.5120  -18.4710   19.8730 C.3   130  ASN130      0.1169
     50  CG        -9.8040  -17.9160   20.4220 C.2   130  ASN130      0.2627
     51  OD1      -10.8480  -18.5810   20.3700 O.2   130  ASN130     -0.2716
     52  ND2       -9.7460  -16.6980   20.9720 N.am  130  ASN130     -0.0877
     53  N         -9.4550  -19.9640   22.6070 N.am  131  ASP131     -0.1960
     54  CA       -10.3540  -20.8620   23.3300 C.3   131  ASP131      0.1840
     55  C        -11.5010  -21.4330   22.4850 C.2   131  ASP131      0.2621
     56  O        -11.8810  -22.5900   22.6640 O.2   131  ASP131     -0.2715
     57  CB       -10.8770  -20.2180   24.6260 C.3   131  ASP131      0.1450
     58  CG       -11.6250  -18.9090   24.3870 C.2   131  ASP131      0.3671
     59  OD1      -11.4260  -18.2580   23.3320 O.co2 131  ASP131     -0.2456
     60  OD2      -12.4080  -18.5090   25.2800 O.co2 131  ASP131     -0.2456
     61  N        -12.0240  -20.6370   21.5510 N.am  132  LEU132     -0.1977
     62  CA       -13.1190  -21.0900   20.6900 C.3   132  LEU132      0.1596
     63  C        -12.5880  -21.8210   19.4600 C.2   132  LEU132      0.2287
     64  O        -13.3130  -22.5610   18.8100 O.2   132  LEU132     -0.2864
     65  CB       -14.0430  -19.9280   20.2900 C.3   132  LEU132      0.0297
     66  CG       -15.3610  -19.7910   21.0700 C.3   132  LEU132      0.0022
     67  CD1      -16.2790  -20.9550   20.7770 C.3   132  LEU132      0.0001
     68  CD2      -15.1300  -19.6750   22.5850 C.3   132  LEU132      0.0001
     69  N        -19.9660  -18.8720   21.8910 N.3   182  ALA182     -0.1245
     70  CA       -19.8950  -19.1780   23.3320 C.3   182  ALA182      0.1562
     71  C        -20.1710  -17.9330   24.1280 C.2   182  ALA182      0.2260
     72  O        -19.2360  -17.2210   24.5060 O.2   182  ALA182     -0.2867
     73  CB       -18.5350  -19.7050   23.7030 C.3   182  ALA182      0.0290
     74  N        -17.1270  -13.7250   28.2520 N.3   186  GLY186     -0.1210
     75  CA       -16.9290  -12.9970   27.0270 C.3   186  GLY186      0.1956
     76  C        -17.7630  -13.6430   25.9470 C.2   186  GLY186      0.2612
     77  O        -18.3600  -14.7140   26.1600 O.2   186  GLY186     -0.2717
     78  N        -17.8270  -12.9880   24.7920 N.am  187  LEU187     -0.1965
     79  CA       -18.4930  -13.5800   23.6330 C.3   187  LEU187      0.1728
     80  C        -17.4470  -14.1720   22.7030 C.2   187  LEU187      0.2617
     81  O        -16.7220  -13.4380   22.0210 O.2   187  LEU187     -0.2715
     82  CB       -19.3570  -12.5530   22.8930 C.3   187  LEU187      0.0311
     83  CG       -20.0980  -13.0350   21.6460 C.3   187  LEU187      0.0022
     84  CD1      -20.9710  -14.2390   21.9870 C.3   187  LEU187      0.0001
     85  CD2      -20.9460  -11.9090   21.0390 C.3   187  LEU187      0.0001
     86  N        -17.3710  -15.5000   22.6870 N.am  188  GLY188     -0.1940
     87  CA       -16.4320  -16.2010   21.8250 C.3   188  GLY188      0.2014
     88  C        -17.1000  -16.6320   20.5280 C.2   188  GLY188      0.2639
     89  O        -18.3360  -16.7910   20.4600 O.2   188  GLY188     -0.2714
     90  N        -16.2860  -16.8270   19.4980 N.am  189  SER189     -0.1949
     91  CA       -16.7970  -17.1890   18.1930 C.3   189  SER189      0.1924
     92  C        -15.6960  -17.8100   17.3660 C.2   189  SER189      0.2314
     93  O        -14.5810  -17.2990   17.3140 O.2   189  SER189     -0.2863
     94  CB       -17.3280  -15.9590   17.4720 C.3   189  SER189      0.2116
     95  OG       -16.3080  -14.9800   17.3470 O.3   189  SER189     -0.2180
     96  N        -12.5090  -16.5510   15.0560 N.3   206  LEU206     -0.1231
     97  CA       -13.0400  -15.2230   14.7430 C.3   206  LEU206      0.1693
     98  C        -13.1110  -14.3540   16.0010 C.2   206  LEU206      0.2591
     99  O        -13.0310  -14.8660   17.1290 O.2   206  LEU206     -0.2718
    100  CB       -14.4320  -15.3380   14.1320 C.3   206  LEU206      0.0284
    101  CG       -14.5640  -16.2930   12.9360 C.3   206  LEU206      0.0019
    102  CD1      -16.0270  -16.4430   12.5150 C.3   206  LEU206      0.0001
    103  CD2      -13.6920  -15.8180   11.7710 C.3   206  LEU206      0.0001
    104  N        -13.2560  -13.0440   15.8080 N.am  207  GLU207     -0.1979
    105  CA       -13.5580  -12.1580   16.9230 C.3   207  GLU207      0.1602
    106  C        -14.8480  -11.3620   16.6510 C.2   207  GLU207      0.2287
    107  O        -14.8200  -10.1340   16.6270 O.2   207  GLU207     -0.2864
    108  CB       -12.3770  -11.2180   17.2030 C.3   207  GLU207      0.0415
    109  CG       -11.0870  -11.9320   17.6370 C.3   207  GLU207      0.1163
    110  CD       -11.1340  -12.5430   19.0660 C.2   207  GLU207      0.3649
    111  OE1      -11.9700  -12.1100   19.9030 O.co2 207  GLU207     -0.2457
    112  OE2      -10.3170  -13.4600   19.3600 O.co2 207  GLU207     -0.2457
    113  N        -16.2760   -8.3310   19.1070 N.3   210  SER210     -0.1217
    114  CA       -15.7460   -6.9730   19.1560 C.3   210  SER210      0.1889
    115  C        -16.0710   -6.1340   17.9190 C.2   210  SER210      0.2288
    116  O        -15.4190   -5.1030   17.6750 O.2   210  SER210     -0.2866
    117  CB       -14.2300   -7.0150   19.3190 C.3   210  SER210      0.2089
    118  OG       -13.8160   -8.0800   20.1600 O.3   210  SER210     -0.2183
    119  N        -20.3590   -7.7750   22.2710 N.3   236  GLU236     -0.1245
    120  CA       -19.9360   -8.2750   23.5700 C.3   236  GLU236      0.1567
    121  C        -20.4630   -7.3890   24.7160 C.2   236  GLU236      0.2260
    122  O        -20.8670   -7.8900   25.7730 O.2   236  GLU236     -0.2867
    123  CB       -18.4090   -8.3870   23.6030 C.3   236  GLU236      0.0388
    124  CG       -17.8380   -9.0790   24.8450 C.3   236  GLU236      0.1160
    125  CD       -16.6790  -10.0110   24.5060 C.2   236  GLU236      0.3649
    126  OE1      -16.3020  -10.1190   23.3070 O.co2 236  GLU236     -0.2457
    127  OE2      -16.1430  -10.6530   25.4230 O.co2 236  GLU236     -0.2457
@<TRIPOS>BOND
     1   103   101    1
     2   102   101    1
     3   101   100    1
     4   100    97    1
     5    97    96    1
     6    97    98    1
     7   104    98   am
     8   104   105    1
     9    98    99    2
    10   107   106    2
    11   106   105    1
    12   105   108    1
    13   108   109    1
    14    93    92    2
    15    95    94    1
    16    92    91    1
    17    94    91    1
    18   109   110    1
    19   116   115    2
    20   115   114    1
    21    91    90    1
    22    64    63    2
    23    16    13    1
    24    16    17    1
    25   110   112   ar
    26   110   111   ar
    27   113   114    1
    28   114   117    1
    29   117   118    1
    30    63    62    1
    31    90    88   am
    32    14    13    1
    33    14    15    2
    34    13    12    1
    35    49    50    1
    36    49    46    1
    37    17    18    1
    38    45    46    1
    39    65    62    1
    40    65    66    1
    41    51    50    2
    42    50    52   am
    43    89    88    2
    44    88    87    1
    45    62    61    1
    46    67    66    1
    47    46    47    1
    48    12    18    1
    49    12    10   am
    50    85    83    1
    51    66    68    1
    52    48    47    2
    53    11    10    2
    54    47    53   am
    55    61    55   am
    56    83    84    1
    57    83    82    1
    58    25    19    1
    59    25    24    1
    60    10     9    1
    61    87    86    1
    62    69    70    1
    63    81    80    2
    64   119   120    1
    65    55    56    2
    66    55    54    1
    67    19    20    1
    68    53    54    1
    69    24    23    1
    70    86    80   am
    71    80    79    1
    72    82    79    1
    73     9     8    1
    74   126   125   ar
    75    54    57    1
    76    70    73    1
    77    70    71    1
    78    59    58   ar
    79    22    21    2
    80   120   123    1
    81   120   121    1
    82   123   124    1
    83    79    78    1
    84    20    23    1
    85    20    21    1
    86     8     3   am
    87    71    72    2
    88    21    26   am
    89    58    57    1
    90    58    60   ar
    91   125   124    1
    92   125   127   ar
    93   121   122    2
    94    78    76   am
    95     3     4    2
    96     3     2    1
    97    36    35   ar
    98    36    34   ar
    99    35    33   ar
   100    26    27    1
   101     2     1    1
   102     2     5    1
   103    76    77    2
   104    76    75    1
   105    34    32   ar
   106    33    31   ar
   107    27    28    1
   108    27    30    1
   109     1     7    1
   110    32    31   ar
   111    31    30    1
   112    28    37   am
   113    28    29    2
   114    41    38    1
   115    41    42    1
   116    37    38    1
   117    75    74    1
   118     5     6    1
   119    44    42   am
   120    38    39    1
   121    42    43    2
   122     7     6    1
   123    39    40    2
