@<TRIPOS>MOLECULE
tmp/5brfB01.pdb
 131 127 0 0 0
SMALL
GASTEIGER

@<TRIPOS>ATOM
      1  N         23.4080  -17.8020   64.2970 N.3    89  PRO89      -0.2102
      2  CA        22.2380  -16.9390   64.1300 C.3    89  PRO89       0.1504
      3  C         22.5110  -15.6210   63.4030 C.2    89  PRO89       0.2576
      4  O         22.0180  -14.5830   63.8550 O.2    89  PRO89      -0.2718
      5  CB        21.8380  -16.6420   65.5780 C.3    89  PRO89       0.0282
      6  CG        23.1380  -16.6150   66.2930 C.3    89  PRO89       0.0208
      7  CD        23.9510  -17.7110   65.6670 C.3    89  PRO89       0.0893
      8  N         23.2570  -15.6520   62.2990 N.am   90  GLY90      -0.1943
      9  CA        23.4650  -14.4550   61.4930 C.3    90  GLY90       0.1998
     10  C         23.9290  -14.8380   60.0980 C.2    90  GLY90       0.2480
     11  O         24.1650  -16.0190   59.8550 O.2    90  GLY90      -0.2729
     12  N         24.0640  -13.8500   59.1840 N.am   91  PRO91      -0.2726
     13  CA        24.5570  -14.0730   57.8110 C.3    91  PRO91       0.1402
     14  C         25.9080  -14.7720   57.8020 C.2    91  PRO91       0.2269
     15  O         26.7250  -14.5430   58.6920 O.2    91  PRO91      -0.2865
     16  CB        24.7410  -12.6510   57.2670 C.3    91  PRO91       0.0296
     17  CG        23.8190  -11.8100   58.0510 C.3    91  PRO91       0.0237
     18  CD        23.7360  -12.4310   59.4300 C.3    91  PRO91       0.0939
     19  N         28.7720  -10.3310   61.3610 N.3   100  PRO100     -0.2102
     20  CA        28.2770   -9.9170   62.6900 C.3   100  PRO100      0.1504
     21  C         26.8450  -10.3360   63.0500 C.2   100  PRO100      0.2576
     22  O         25.9570  -10.3410   62.1920 O.2   100  PRO100     -0.2718
     23  CB        28.3490   -8.3850   62.6220 C.3   100  PRO100      0.0282
     24  CG        29.4310   -8.1030   61.6350 C.3   100  PRO100      0.0208
     25  CD        29.3190   -9.1910   60.6010 C.3   100  PRO100      0.0893
     26  N         26.6360  -10.6560   64.3270 N.am  101  PHE101     -0.1963
     27  CA        25.3440  -11.1240   64.8240 C.3   101  PHE101      0.1771
     28  C         24.5920  -10.0720   65.6380 C.2   101  PHE101      0.2619
     29  O         25.1970   -9.3060   66.3850 O.2   101  PHE101     -0.2715
     30  CB        25.5530  -12.3500   65.7030 C.3   101  PHE101      0.0574
     31  CG        26.4140  -13.4010   65.0800 C.ar  101  PHE101     -0.0200
     32  CD1       25.8910  -14.2720   64.1370 C.ar  101  PHE101     -0.0042
     33  CD2       27.7430  -13.5340   65.4520 C.ar  101  PHE101     -0.0042
     34  CE1       26.6820  -15.2480   63.5690 C.ar  101  PHE101     -0.0003
     35  CE2       28.5420  -14.5110   64.8850 C.ar  101  PHE101     -0.0003
     36  CZ        28.0110  -15.3670   63.9380 C.ar  101  PHE101     -0.0000
     37  N         23.2680  -10.0530   65.5060 N.am  102  ASN102     -0.1972
     38  CA        22.4200   -9.1770   66.3180 C.3   102  ASN102      0.1688
     39  C         22.4550   -9.5490   67.8070 C.2   102  ASN102      0.2292
     40  O         22.2880   -8.6900   68.6740 O.2   102  ASN102     -0.2864
     41  CB        20.9680   -9.2000   65.8050 C.3   102  ASN102      0.1181
     42  CG        20.0810   -8.1400   66.4770 C.2   102  ASN102      0.2629
     43  OD1       20.5770   -7.2020   67.1070 O.2   102  ASN102     -0.2716
     44  ND2       18.7640   -8.2870   66.3340 N.am  102  ASN102     -0.0877
     45  N         24.3440  -20.4840   58.0140 N.3   127  ASN127     -0.1225
     46  CA        23.3570  -19.6260   58.6510 C.3   127  ASN127      0.1785
     47  C         22.3030  -20.5360   59.3100 C.2   127  ASN127      0.2597
     48  O         22.1030  -21.6640   58.8470 O.2   127  ASN127     -0.2718
     49  CB        22.7470  -18.6760   57.6080 C.3   127  ASN127      0.1169
     50  CG        21.4640  -18.0410   58.0700 C.2   127  ASN127      0.2627
     51  OD1       20.3730  -18.6030   57.8760 O.2   127  ASN127     -0.2716
     52  ND2       21.5690  -16.8560   58.6850 N.am  127  ASN127     -0.0877
     53  N         21.6470  -20.0780   60.3810 N.am  128  ASP128     -0.1960
     54  CA        20.6930  -20.9310   61.0950 C.3   128  ASP128      0.1840
     55  C         19.5680  -21.4930   60.2090 C.2   128  ASP128      0.2621
     56  O         19.2650  -22.6860   60.2800 O.2   128  ASP128     -0.2715
     57  CB        20.1370  -20.2440   62.3640 C.3   128  ASP128      0.1450
     58  CG        19.4600  -18.8970   62.0860 C.2   128  ASP128      0.3671
     59  OD1       19.5840  -18.3380   60.9730 O.co2 128  ASP128     -0.2456
     60  OD2       18.8150  -18.3660   63.0120 O.co2 128  ASP128     -0.2456
     61  N         18.9730  -20.6380   59.3700 N.am  129  LEU129     -0.1977
     62  CA        17.8710  -21.0520   58.4900 C.3   129  LEU129      0.1596
     63  C         18.3980  -21.8110   57.2750 C.2   129  LEU129      0.2287
     64  O         17.6670  -22.5710   56.6360 O.2   129  LEU129     -0.2864
     65  CB        17.0320  -19.8410   58.0530 C.3   129  LEU129      0.0297
     66  CG        15.7500  -19.6540   58.8670 C.3   129  LEU129      0.0022
     67  CD1       14.8080  -20.8170   58.6020 C.3   129  LEU129      0.0001
     68  CD2       16.0490  -19.5520   60.3790 C.3   129  LEU129      0.0001
     69  N         10.9110  -18.8700   59.5020 N.3   179  ALA179     -0.1245
     70  CA        10.9880  -19.1850   60.9320 C.3   179  ALA179      0.1562
     71  C         10.6690  -17.9600   61.7600 C.2   179  ALA179      0.2260
     72  O         11.5780  -17.2600   62.2070 O.2   179  ALA179     -0.2867
     73  CB        12.3800  -19.6850   61.2830 C.3   179  ALA179      0.0290
     74  N         13.7750  -13.7260   66.1200 N.3   183  GLY183     -0.1210
     75  CA        13.9820  -13.0260   64.8680 C.3   183  GLY183      0.1956
     76  C         13.1120  -13.6550   63.7950 C.2   183  GLY183      0.2612
     77  O         12.4030  -14.6340   64.0470 O.2   183  GLY183     -0.2717
     78  N         13.1430  -13.0870   62.5960 N.am  184  LEU184     -0.1965
     79  CA        12.4590  -13.6970   61.4670 C.3   184  LEU184      0.1728
     80  C         13.5190  -14.2540   60.5260 C.2   184  LEU184      0.2617
     81  O         14.3400  -13.5070   59.9820 O.2   184  LEU184     -0.2715
     82  CB        11.5460  -12.6830   60.7660 C.3   184  LEU184      0.0311
     83  CG        10.8310  -13.1150   59.4810 C.3   184  LEU184      0.0022
     84  CD1       10.1110  -14.4390   59.6810 C.3   184  LEU184      0.0001
     85  CD2        9.8480  -12.0420   59.0150 C.3   184  LEU184      0.0001
     86  N         13.5240  -15.5700   60.3680 N.am  185  GLY185     -0.1940
     87  CA        14.4870  -16.2270   59.5070 C.3   185  GLY185      0.2014
     88  C         13.8080  -16.6840   58.2350 C.2   185  GLY185      0.2639
     89  O         12.5770  -16.8550   58.1940 O.2   185  GLY185     -0.2714
     90  N         14.6110  -16.8810   57.1970 N.am  186  SER186     -0.1949
     91  CA        14.0950  -17.2120   55.8850 C.3   186  SER186      0.1924
     92  C         15.2080  -17.8380   55.0630 C.2   186  SER186      0.2314
     93  O         16.3370  -17.3590   55.1030 O.2   186  SER186     -0.2863
     94  CB        13.6340  -15.9370   55.1900 C.3   186  SER186      0.2116
     95  OG        14.7190  -15.0230   55.0780 O.3   186  SER186     -0.2180
     96  N         18.5130  -16.4410   52.9000 N.3   203  LEU203     -0.1231
     97  CA        17.8140  -15.2060   52.5940 C.3   203  LEU203      0.1693
     98  C         17.7570  -14.3660   53.8530 C.2   203  LEU203      0.2591
     99  O         17.8370  -14.9020   54.9710 O.2   203  LEU203     -0.2718
    100  CB        16.3700  -15.4930   52.1650 C.3   203  LEU203      0.0284
    101  CG        16.1300  -16.3190   50.8970 C.3   203  LEU203      0.0019
    102  CD1       14.6200  -16.4530   50.6080 C.3   203  LEU203      0.0001
    103  CD2       16.8650  -15.7030   49.7030 C.3   203  LEU203      0.0001
    104  N         17.6000  -13.0570   53.6640 N.am  204  GLU204     -0.1979
    105  CA        17.3460  -12.1310   54.7490 C.3   204  GLU204      0.1602
    106  C         16.0740  -11.3500   54.4350 C.2   204  GLU204      0.2287
    107  O         16.1120  -10.1250   54.3820 O.2   204  GLU204     -0.2864
    108  CB        18.5260  -11.1530   54.9270 C.3   204  GLU204      0.0415
    109  CG        19.8570  -11.8070   55.3570 C.3   204  GLU204      0.1163
    110  CD        19.8460  -12.3120   56.8050 C.2   204  GLU204      0.3649
    111  OE1       19.1110  -11.7450   57.6440 O.co2 204  GLU204     -0.2457
    112  OE2       20.5650  -13.2840   57.1140 O.co2 204  GLU204     -0.2457
    113  N         13.4820  -10.9090   56.2700 N.3   206  GLY206     -0.1210
    114  CA        13.0450  -10.1580   57.4320 C.3   206  GLY206      0.1956
    115  C         13.4470   -8.6900   57.4110 C.2   206  GLY206      0.2612
    116  O         12.7130   -7.8430   57.9310 O.2   206  GLY206     -0.2717
    117  N         14.5880   -8.3800   56.7970 N.am  207  SER207     -0.1952
    118  CA        15.1190   -7.0130   56.8580 C.3   207  SER207      0.1924
    119  C         14.6970   -6.1380   55.6760 C.2   207  SER207      0.2314
    120  O         15.2080   -5.0150   55.5140 O.2   207  SER207     -0.2863
    121  CB        16.6470   -7.0420   56.9460 C.3   207  SER207      0.2116
    122  OG        17.0760   -7.7630   58.0810 O.3   207  SER207     -0.2180
    123  N         10.5090   -7.8840   59.9110 N.3   233  GLU233     -0.1245
    124  CA        10.8770   -8.3960   61.2220 C.3   233  GLU233      0.1567
    125  C         10.3490   -7.4950   62.3460 C.2   233  GLU233      0.2260
    126  O          9.9640   -7.9880   63.4010 O.2   233  GLU233     -0.2867
    127  CB        12.3970   -8.5810   61.3360 C.3   233  GLU233      0.0388
    128  CG        12.8390   -9.2940   62.6210 C.3   233  GLU233      0.1160
    129  CD        14.3310   -9.6300   62.6380 C.2   233  GLU233      0.3649
    130  OE1       15.1560   -8.6960   62.6220 O.co2 233  GLU233     -0.2457
    131  OE2       14.6810  -10.8300   62.6650 O.co2 233  GLU233     -0.2457
@<TRIPOS>BOND
     1   103   101    1
     2   102   101    1
     3   101   100    1
     4   100    97    1
     5    97    96    1
     6    97    98    1
     7   104    98   am
     8   104   105    1
     9    98    99    2
    10   107   106    2
    11   106   105    1
    12   105   108    1
    13   108   109    1
    14    92    93    2
    15    92    91    1
    16    95    94    1
    17    94    91    1
    18   109   110    1
    19   120   119    2
    20   119   118    1
    21    91    90    1
    22   113   114    1
    23    64    63    2
    24   117   118    1
    25   117   115   am
    26   110   112   ar
    27   110   111   ar
    28   118   121    1
    29   121   122    1
    30    90    88   am
    31    16    13    1
    32    16    17    1
    33    63    62    1
    34   115   114    1
    35   115   116    2
    36    49    50    1
    37    49    46    1
    38    14    13    1
    39    14    15    2
    40    13    12    1
    41    51    50    2
    42    45    46    1
    43    17    18    1
    44    65    62    1
    45    65    66    1
    46    50    52   am
    47    89    88    2
    48    88    87    1
    49    62    61    1
    50    67    66    1
    51    46    47    1
    52    48    47    2
    53    66    68    1
    54    85    83    1
    55    12    18    1
    56    12    10   am
    57    47    53   am
    58    61    55   am
    59    83    84    1
    60    83    82    1
    61    69    70    1
    62    87    86    1
    63    11    10    2
    64   123   124    1
    65    81    80    2
    66    10     9    1
    67    55    56    2
    68    55    54    1
    69    86    80   am
    70    53    54    1
    71    80    79    1
    72    25    19    1
    73    25    24    1
    74    82    79    1
    75    70    73    1
    76    70    71    1
    77    59    58   ar
    78    54    57    1
    79   124   127    1
    80   124   125    1
    81   127   128    1
    82    19    20    1
    83    79    78    1
    84     9     8    1
    85    24    23    1
    86    71    72    2
    87    58    57    1
    88    58    60   ar
    89    22    21    2
    90     8     3   am
    91   125   126    2
    92    78    76   am
    93   128   129    1
    94    23    20    1
    95   130   129   ar
    96   129   131   ar
    97    20    21    1
    98    21    26   am
    99     3     4    2
   100     3     2    1
   101    34    36   ar
   102    34    32   ar
   103    76    77    2
   104    76    75    1
   105    36    35   ar
   106     2     1    1
   107     2     5    1
   108    32    31   ar
   109     1     7    1
   110    26    27    1
   111    27    28    1
   112    27    30    1
   113    75    74    1
   114    35    33   ar
   115    31    33   ar
   116    31    30    1
   117    37    28   am
   118    37    38    1
   119     5     6    1
   120    28    29    2
   121     7     6    1
   122    41    38    1
   123    41    42    1
   124    38    39    1
   125    44    42   am
   126    42    43    2
   127    39    40    2
