@<TRIPOS>MOLECULE
tmp/5brhA00.pdb
 135 130 0 0 0
SMALL
GASTEIGER

@<TRIPOS>ATOM
      1  N          9.6780  -14.6940   27.3620 N.3    92  PRO92      -0.2102
      2  CA         9.6340  -13.5010   28.2210 C.3    92  PRO92       0.1504
      3  C          8.6180  -13.5790   29.3620 C.2    92  PRO92       0.2576
      4  O          7.8580  -12.6290   29.5700 O.2    92  PRO92      -0.2718
      5  CB         9.2230  -12.3950   27.2410 C.3    92  PRO92       0.0282
      6  CG         8.3540  -13.0980   26.2580 C.3    92  PRO92       0.0208
      7  CD         8.9890  -14.4700   26.0760 C.3    92  PRO92       0.0893
      8  N          8.6130  -14.6750   30.1100 N.am   93  GLY93      -0.1943
      9  CA         7.7180  -14.8060   31.2490 C.3    93  GLY93       0.1998
     10  C          8.1950  -15.9380   32.1430 C.2    93  GLY93       0.2480
     11  O          9.1810  -16.5950   31.8170 O.2    93  GLY93      -0.2729
     12  N          7.5050  -16.1690   33.2730 N.am   94  PRO94      -0.2726
     13  CA         7.9480  -17.1990   34.2260 C.3    94  PRO94       0.1402
     14  C          7.8900  -18.5940   33.5970 C.2    94  PRO94       0.2269
     15  O          6.9880  -18.8600   32.7920 O.2    94  PRO94      -0.2865
     16  CB         6.9070  -17.1140   35.3580 C.3    94  PRO94       0.0296
     17  CG         6.2220  -15.7710   35.1830 C.3    94  PRO94       0.0237
     18  CD         6.2690  -15.4880   33.7060 C.3    94  PRO94       0.0939
     19  N          1.7780  -17.6810   31.7700 N.3   103  PRO103     -0.2102
     20  CA         1.3630  -16.8550   30.6320 C.3   103  PRO103      0.1504
     21  C          2.2380  -15.6160   30.4730 C.2   103  PRO103      0.2576
     22  O          3.0070  -15.2610   31.3780 O.2   103  PRO103     -0.2718
     23  CB        -0.0780  -16.4440   30.9920 C.3   103  PRO103      0.0282
     24  CG        -0.3670  -17.0540   32.3690 C.3   103  PRO103      0.0208
     25  CD         0.9560  -17.4260   32.9640 C.3   103  PRO103      0.0893
     26  N          2.1410  -14.9810   29.3150 N.am  104  PHE104     -0.1963
     27  CA         2.9600  -13.8170   29.0360 C.3   104  PHE104      0.1771
     28  C          2.0770  -12.5880   28.9240 C.2   104  PHE104      0.2619
     29  O          0.9040  -12.6930   28.5730 O.2   104  PHE104     -0.2715
     30  CB         3.7490  -14.0470   27.7540 C.3   104  PHE104      0.0574
     31  CG         4.4780  -15.3570   27.7390 C.ar  104  PHE104     -0.0200
     32  CD1        5.6530  -15.5120   28.4630 C.ar  104  PHE104     -0.0042
     33  CD2        3.9820  -16.4390   27.0210 C.ar  104  PHE104     -0.0042
     34  CE1        6.3280  -16.7170   28.4670 C.ar  104  PHE104     -0.0003
     35  CE2        4.6520  -17.6570   27.0170 C.ar  104  PHE104     -0.0003
     36  CZ         5.8270  -17.7980   27.7450 C.ar  104  PHE104     -0.0000
     37  N          2.6230  -11.4180   29.2310 N.am  105  ASN105     -0.1972
     38  CA         1.7930  -10.2250   29.1800 C.3   105  ASN105      0.1688
     39  C          1.7980   -9.5420   27.8120 C.2   105  ASN105      0.2292
     40  O          1.0900   -8.5570   27.5980 O.2   105  ASN105     -0.2864
     41  CB         2.1400   -9.2580   30.3100 C.3   105  ASN105      0.1181
     42  CG         3.1430   -8.2120   29.9020 C.2   105  ASN105      0.2629
     43  OD1        4.2010   -8.5320   29.3560 O.2   105  ASN105     -0.2716
     44  ND2        2.8230   -6.9450   30.1720 N.am  105  ASN105     -0.0877
     45  N         13.3720  -18.9930   31.4350 N.3   130  ASN130     -0.1225
     46  CA        12.9350  -17.6020   31.5060 C.3   130  ASN130      0.1785
     47  C         14.0170  -16.7380   30.8280 C.2   130  ASN130      0.2597
     48  O         15.2070  -17.0930   30.8600 O.2   130  ASN130     -0.2718
     49  CB        12.7180  -17.2260   32.9740 C.3   130  ASN130      0.1169
     50  CG        12.6420  -15.7310   33.2010 C.2   130  ASN130      0.2627
     51  OD1       13.6430  -15.0890   33.5310 O.2   130  ASN130     -0.2716
     52  ND2       11.4420  -15.1750   33.0790 N.am  130  ASN130     -0.0877
     53  N         13.6260  -15.6380   30.1840 N.am  131  ASP131     -0.1960
     54  CA        14.6060  -14.7990   29.4900 C.3   131  ASP131      0.1840
     55  C         15.7860  -14.3530   30.3600 C.2   131  ASP131      0.2621
     56  O         16.9310  -14.3670   29.8870 O.2   131  ASP131     -0.2715
     57  CB        13.9490  -13.6090   28.7680 C.3   131  ASP131      0.1450
     58  CG        13.2160  -12.6570   29.7100 C.2   131  ASP131      0.3671
     59  OD1       12.9740  -13.0170   30.8840 O.co2 131  ASP131     -0.2456
     60  OD2       12.8520  -11.5400   29.2550 O.co2 131  ASP131     -0.2456
     61  N         15.5350  -13.9770   31.6220 N.am  132  LEU132     -0.1977
     62  CA        16.6480  -13.5410   32.4710 C.3   132  LEU132      0.1596
     63  C         17.3740  -14.7300   33.1020 C.2   132  LEU132      0.2287
     64  O         18.5100  -14.6010   33.5410 O.2   132  LEU132     -0.2864
     65  CB        16.2030  -12.5410   33.5430 C.3   132  LEU132      0.0297
     66  CG        16.4650  -11.1020   33.1180 C.3   132  LEU132      0.0022
     67  CD1       17.9780  -10.8660   33.0390 C.3   132  LEU132      0.0001
     68  CD2       15.8340  -10.8230   31.7590 C.3   132  LEU132      0.0001
     69  N         17.5570   -6.5170   34.3230 N.3   182  ALA182     -0.1245
     70  CA        17.4210   -6.0760   32.9370 C.3   182  ALA182      0.1562
     71  C         16.2090   -5.1760   32.8050 C.2   182  ALA182      0.2260
     72  O         15.0960   -5.6430   32.5810 O.2   182  ALA182     -0.2867
     73  CB        17.2850   -7.2680   31.9970 C.3   182  ALA182      0.0290
     74  N          9.8830   -5.1390   30.0080 N.3   186  GLY186     -0.1210
     75  CA         9.5770   -5.5020   31.3780 C.3   186  GLY186      0.1956
     76  C         10.8600   -5.4370   32.1930 C.2   186  GLY186      0.2612
     77  O         11.9590   -5.3320   31.6320 O.2   186  GLY186     -0.2717
     78  N         10.7370   -5.5070   33.5130 N.am  187  LEU187     -0.1965
     79  CA        11.9230   -5.4980   34.3600 C.3   187  LEU187      0.1728
     80  C         12.2990   -6.9370   34.7030 C.2   187  LEU187      0.2617
     81  O         11.5830   -7.6100   35.4490 O.2   187  LEU187     -0.2715
     82  CB        11.6680   -4.7020   35.6390 C.3   187  LEU187      0.0311
     83  CG        12.7500   -4.7660   36.7170 C.3   187  LEU187      0.0022
     84  CD1       14.0790   -4.2920   36.1600 C.3   187  LEU187      0.0001
     85  CD2       12.3290   -3.9230   37.9420 C.3   187  LEU187      0.0001
     86  N         13.4180   -7.3960   34.1630 N.am  188  GLY188     -0.1940
     87  CA        13.8450   -8.7660   34.3910 C.3   188  GLY188      0.2014
     88  C         14.8450   -8.9070   35.5200 C.2   188  GLY188      0.2639
     89  O         15.6040   -7.9750   35.8040 O.2   188  GLY188     -0.2714
     90  N         14.8570  -10.0790   36.1610 N.am  189  SER189     -0.1949
     91  CA        15.7910  -10.3140   37.2490 C.3   189  SER189      0.1924
     92  C         16.1060  -11.8020   37.3900 C.2   189  SER189      0.2314
     93  O         15.2150  -12.6440   37.2620 O.2   189  SER189     -0.2863
     94  CB        15.2140   -9.8110   38.5640 C.3   189  SER189      0.2116
     95  OG        13.9550  -10.4300   38.8460 O.3   189  SER189     -0.2180
     96  N         14.0310  -15.1120   39.0250 N.3   206  LEU206     -0.1231
     97  CA        13.3360  -14.3210   40.0210 C.3   206  LEU206      0.1693
     98  C         12.2690  -13.5020   39.3110 C.2   206  LEU206      0.2591
     99  O         12.3290  -13.3460   38.0930 O.2   206  LEU206     -0.2718
    100  CB        14.3260  -13.3570   40.6910 C.3   206  LEU206      0.0284
    101  CG        15.5170  -13.9150   41.4720 C.3   206  LEU206      0.0019
    102  CD1       16.3760  -12.7360   41.9570 C.3   206  LEU206      0.0001
    103  CD2       15.0600  -14.7690   42.6360 C.3   206  LEU206      0.0001
    104  N         11.3180  -12.9690   40.0810 N.am  207  GLU207     -0.1979
    105  CA        10.3360  -12.0110   39.5720 C.3   207  GLU207      0.1602
    106  C         10.3340  -10.7890   40.4810 C.2   207  GLU207      0.2287
    107  O          9.2950  -10.3990   41.0290 O.2   207  GLU207     -0.2864
    108  CB         8.9290  -12.6340   39.5150 C.3   207  GLU207      0.0415
    109  CG         8.8110  -13.7690   38.4730 C.3   207  GLU207      0.1163
    110  CD         8.8510  -13.2520   37.0590 C.2   207  GLU207      0.3649
    111  OE1        8.5160  -12.0640   36.8570 O.co2 207  GLU207     -0.2457
    112  OE2        9.2040  -14.0280   36.1340 O.co2 207  GLU207     -0.2457
    113  N          7.8460   -7.6250   40.0180 N.3   210  SER210     -0.1217
    114  CA         6.4320   -7.6460   40.3900 C.3   210  SER210      0.1889
    115  C          6.1810   -7.4940   41.8900 C.2   210  SER210      0.2288
    116  O          5.0360   -7.5910   42.3330 O.2   210  SER210     -0.2866
    117  CB         5.7680   -8.9130   39.8300 C.3   210  SER210      0.2089
    118  OG         5.8060   -8.8790   38.4130 O.3   210  SER210     -0.2183
    119  N          4.2010   -1.7020   41.5180 N.3   234  ASN234     -0.1240
    120  CA         5.3330   -2.5880   41.7180 C.3   234  ASN234      0.1653
    121  C          6.5450   -1.9550   41.0620 C.2   234  ASN234      0.2266
    122  O          6.4280   -0.8800   40.4470 O.2   234  ASN234     -0.2867
    123  CB         5.0500   -4.0080   41.1810 C.3   234  ASN234      0.1155
    124  CG         4.7690   -4.0550   39.6880 C.2   234  ASN234      0.2627
    125  OD1        5.3050   -3.2650   38.9030 O.2   234  ASN234     -0.2716
    126  ND2        3.9400   -5.0330   39.2760 N.am  234  ASN234     -0.0877
    127  N          8.3210   -2.8260   38.4620 N.3   236  GLU236     -0.1245
    128  CA         8.1810   -2.7390   37.0180 C.3   236  GLU236      0.1567
    129  C          7.3080   -1.5500   36.5630 C.2   236  GLU236      0.2260
    130  O          7.5570   -0.9740   35.5040 O.2   236  GLU236     -0.2867
    131  CB         7.6170   -4.0390   36.4450 C.3   236  GLU236      0.0388
    132  CG         7.6500   -4.0720   34.9330 C.3   236  GLU236      0.1160
    133  CD         7.2110   -5.4300   34.4130 C.2   236  GLU236      0.3649
    134  OE1        5.9850   -5.6860   34.3800 O.co2 236  GLU236     -0.2457
    135  OE2        8.0920   -6.2380   34.0630 O.co2 236  GLU236     -0.2457
@<TRIPOS>BOND
     1     7     6    1
     2     7     1    1
     3     6     5    1
     4    35    33   ar
     5    35    36   ar
     6    33    31   ar
     7     5     2    1
     8     1     2    1
     9    40    39    2
    10    31    30    1
    11    31    32   ar
    12    36    34   ar
    13    30    27    1
    14    39    38    1
    15     2     3    1
    16    32    34   ar
    17    29    28    2
    18    57    54    1
    19    57    58    1
    20    28    27    1
    21    28    37   am
    22    27    26    1
    23    38    37    1
    24    38    41    1
    25    60    58   ar
    26    26    21   am
    27    43    42    2
    28     3     4    2
    29     3     8   am
    30    54    53    1
    31    54    55    1
    32    58    59   ar
    33    56    55    2
    34    42    44   am
    35    42    41    1
    36    74    75    1
    37     8     9    1
    38    53    47   am
    39    55    61   am
    40    21    20    1
    41    21    22    2
    42    20    23    1
    43    20    19    1
    44    47    48    2
    45    47    46    1
    46    23    24    1
    47     9    10    1
    48    75    76    1
    49    45    46    1
    50    46    49    1
    51    61    62    1
    52    77    76    2
    53    68    66    1
    54    19    25    1
    55    11    10    2
    56    73    70    1
    57    10    12   am
    58    76    78   am
    59    24    25    1
    60    62    63    1
    61    62    65    1
    62    72    71    2
    63    15    14    2
    64    71    70    1
    65    70    69    1
    66    49    50    1
    67    67    66    1
    68    52    50   am
    69    63    64    2
    70    66    65    1
    71    50    51    2
    72    12    18    1
    73    12    13    1
    74    78    79    1
    75    14    13    1
    76    18    17    1
    77   135   133   ar
    78    86    87    1
    79    86    80   am
    80    13    16    1
    81    79    80    1
    82    79    82    1
    83   134   133   ar
    84    87    88    1
    85   133   132    1
    86    80    81    2
    87   132   131    1
    88    17    16    1
    89   130   129    2
    90    88    89    2
    91    88    90   am
    92    82    83    1
    93   112   110   ar
    94    84    83    1
    95    90    91    1
    96   131   128    1
    97   129   128    1
    98    83    85    1
    99   111   110   ar
   100   128   127    1
   101   110   109    1
   102    91    92    1
   103    91    94    1
   104    93    92    2
   105    99    98    2
   106   118   117    1
   107   109   108    1
   108    94    95    1
   109   125   124    2
   110    96    97    1
   111   126   124   am
   112    98    97    1
   113    98   104   am
   114   108   105    1
   115   105   104    1
   116   105   106    1
   117   124   123    1
   118   117   114    1
   119   113   114    1
   120    97   100    1
   121   114   115    1
   122   122   121    2
   123   106   107    2
   124   100   101    1
   125   121   120    1
   126   123   120    1
   127   101   102    1
   128   101   103    1
   129   119   120    1
   130   115   116    2
