@<TRIPOS>MOLECULE
tmp/5brmD00.pdb
 120 116 0 0 0
SMALL
GASTEIGER

@<TRIPOS>ATOM
      1  N         14.1740  -11.0400    9.9530 N.3    96  TYR96      -0.1227
      2  CA        14.4020  -11.8240   11.1600 C.3    96  TYR96       0.1736
      3  C         13.0990  -12.0210   11.9370 C.2    96  TYR96       0.2595
      4  O         12.7780  -13.1280   12.3610 O.2    96  TYR96      -0.2718
      5  CB        15.4350  -11.1380   12.0590 C.3    96  TYR96       0.0548
      6  CG        16.8770  -11.4930   11.7630 C.ar   96  TYR96      -0.0200
      7  CD1       17.3680  -12.7670   12.0120 C.ar   96  TYR96      -0.0009
      8  CD2       17.7550  -10.5420   11.2570 C.ar   96  TYR96      -0.0009
      9  CE1       18.6880  -13.0900   11.7490 C.ar   96  TYR96       0.0417
     10  CE2       19.0750  -10.8540   10.9930 C.ar   96  TYR96       0.0417
     11  CZ        19.5370  -12.1280   11.2410 C.ar   96  TYR96       0.1957
     12  OH        20.8530  -12.4380   10.9780 O.3    96  TYR96      -0.2866
     13  N         12.3380  -10.9470   12.1030 N.am   97  HIS97      -0.1975
     14  CA        11.1420  -10.9860   12.9380 C.3    97  HIS97       0.1656
     15  C          9.9520  -11.6840   12.2890 C.2    97  HIS97       0.2291
     16  O          9.2330  -12.4390   12.9460 O.2    97  HIS97      -0.2864
     17  CB        10.7310   -9.5670   13.3270 C.3    97  HIS97       0.0771
     18  CG        11.4700   -9.0310   14.5060 C.ar   97  HIS97       0.0820
     19  ND1       12.5860   -8.2390   14.3860 N.ar   97  HIS97      -0.2267
     20  CD2       11.2550   -9.1770   15.8410 C.ar   97  HIS97       0.1154
     21  CE1       13.0320   -7.9130   15.5890 C.ar   97  HIS97       0.1986
     22  NE2       12.2360   -8.4740   16.4850 N.ar   97  HIS97      -0.2212
     23  N         11.7300  -15.4370    9.4680 N.3   100  PHE100     -0.1227
     24  CA        12.8960  -16.2810    9.7500 C.3   100  PHE100      0.1736
     25  C         12.6250  -17.7780    9.6170 C.2   100  PHE100      0.2595
     26  O         13.5220  -18.5420    9.2590 O.2   100  PHE100     -0.2718
     27  CB        13.4290  -16.0020   11.1530 C.3   100  PHE100      0.0547
     28  CG        14.7990  -16.5630   11.4010 C.ar  100  PHE100     -0.0202
     29  CD1       15.9150  -15.9550   10.8540 C.ar  100  PHE100     -0.0042
     30  CD2       14.9720  -17.6990   12.1720 C.ar  100  PHE100     -0.0042
     31  CE1       17.1780  -16.4660   11.0750 C.ar  100  PHE100     -0.0003
     32  CE2       16.2350  -18.2140   12.3980 C.ar  100  PHE100     -0.0003
     33  CZ        17.3390  -17.5970   11.8470 C.ar  100  PHE100     -0.0000
     34  N         11.3990  -18.1970    9.9110 N.am  101  ASP101     -0.1974
     35  CA        11.0220  -19.6010    9.7780 C.3   101  ASP101      0.1709
     36  C         11.1080  -20.0300    8.3190 C.2   101  ASP101      0.2293
     37  O         11.6230  -21.1010    7.9980 O.2   101  ASP101     -0.2864
     38  CB         9.6140  -19.8460   10.3230 C.3   101  ASP101      0.1436
     39  CG         9.5020  -19.5420   11.8050 C.2   101  ASP101      0.3671
     40  OD1       10.1850  -18.6090   12.2770 O.co2 101  ASP101     -0.2456
     41  OD2        8.7340  -20.2410   12.4980 O.co2 101  ASP101     -0.2456
     42  N         14.8510  -20.6250    6.9720 N.3   104  MET104     -0.1245
     43  CA        15.4580  -21.9270    7.2350 C.3   104  MET104      0.1570
     44  C         14.8610  -23.0050    6.3450 C.2   104  MET104      0.2261
     45  O         15.5740  -23.9080    5.9050 O.2   104  MET104     -0.2867
     46  CB        15.3320  -22.3110    8.7080 C.3   104  MET104      0.0387
     47  CG        16.2480  -21.4960    9.6060 C.3   104  MET104      0.0595
     48  SD        16.2640  -22.0460   11.3210 S.3   104  MET104     -0.1393
     49  CE        14.7010  -21.4100   11.8960 C.3   104  MET104      0.0692
     50  N         19.5820  -19.4030    6.3300 N.3   109  GLU109     -0.1231
     51  CA        19.8710  -18.7960    7.6220 C.3   109  GLU109      0.1699
     52  C         21.3500  -18.4260    7.6710 C.2   109  GLU109      0.2592
     53  O         21.7220  -17.3710    8.1870 O.2   109  GLU109     -0.2718
     54  CB        19.5030  -19.7330    8.7810 C.3   109  GLU109      0.0402
     55  CG        20.2460  -21.0700    8.8200 C.3   109  GLU109      0.1161
     56  CD        19.6250  -22.1250    7.9290 C.2   109  GLU109      0.3649
     57  OE1       18.8300  -21.7590    7.0390 O.co2 109  GLU109     -0.2457
     58  OE2       19.9350  -23.3210    8.1160 O.co2 109  GLU109     -0.2457
     59  N         22.1880  -19.3000    7.1230 N.am  110  ALA110     -0.1980
     60  CA        23.6240  -19.0800    7.1120 C.3   110  ALA110      0.1597
     61  C         23.9870  -17.8460    6.2920 C.2   110  ALA110      0.2287
     62  O         24.8180  -17.0380    6.7040 O.2   110  ALA110     -0.2864
     63  CB        24.3300  -20.3030    6.5600 C.3   110  ALA110      0.0319
     64  N         22.7410  -14.5690    8.0650 N.3   113  ASN113     -0.1240
     65  CA        23.5780  -14.2710    9.2220 C.3   113  ASN113      0.1653
     66  C         24.9510  -13.7520    8.8120 C.2   113  ASN113      0.2266
     67  O         25.4770  -12.8160    9.4180 O.2   113  ASN113     -0.2867
     68  CB        23.7400  -15.5150   10.0990 C.3   113  ASN113      0.1155
     69  CG        22.4370  -15.9570   10.7290 C.2   113  ASN113      0.2627
     70  OD1       21.5410  -15.1480   10.9610 O.2   113  ASN113     -0.2716
     71  ND2       22.3260  -17.2490   11.0150 N.am  113  ASN113     -0.0877
     72  N         15.8200   -3.1960   17.6160 N.3   136  PRO136     -0.2102
     73  CA        14.9900   -4.3720   17.3170 C.3   136  PRO136      0.1504
     74  C         15.7540   -5.6950   17.2320 C.2   136  PRO136      0.2575
     75  O         15.1390   -6.7500   17.3670 O.2   136  PRO136     -0.2718
     76  CB        14.3810   -4.0310   15.9510 C.3   136  PRO136      0.0282
     77  CG        14.4650   -2.5540   15.8430 C.3   136  PRO136      0.0208
     78  CD        15.7120   -2.1740   16.5600 C.3   136  PRO136      0.0893
     79  N         17.0710   -5.6380   17.0620 N.am  137  LEU137     -0.1980
     80  CA        17.8870   -6.8420   16.9150 C.3   137  LEU137      0.1596
     81  C         19.0320   -6.8010   17.9150 C.2   137  LEU137      0.2287
     82  O         20.0750   -7.4220   17.7120 O.2   137  LEU137     -0.2864
     83  CB        18.4380   -6.9530   15.4900 C.3   137  LEU137      0.0297
     84  CG        17.4370   -7.0930   14.3400 C.3   137  LEU137      0.0022
     85  CD1       18.1810   -7.1360   13.0130 C.3   137  LEU137      0.0001
     86  CD2       16.5600   -8.3220   14.5060 C.3   137  LEU137      0.0001
     87  N         19.5370   -7.9870   20.9090 N.3   139  GLU139     -0.1231
     88  CA        19.9250   -9.2410   21.5470 C.3   139  GLU139      0.1699
     89  C         20.8050  -10.1120   20.6430 C.2   139  GLU139      0.2592
     90  O         21.7360  -10.7620   21.1170 O.2   139  GLU139     -0.2718
     91  CB        18.6800  -10.0210   21.9910 C.3   139  GLU139      0.0402
     92  CG        17.8220   -9.3090   23.0430 C.3   139  GLU139      0.1161
     93  CD        16.8620   -8.2810   22.4690 C.2   139  GLU139      0.3649
     94  OE1       16.8970   -8.0350   21.2460 O.co2 139  GLU139     -0.2457
     95  OE2       16.0760   -7.7050   23.2540 O.co2 139  GLU139     -0.2457
     96  N         20.4990  -10.1300   19.3490 N.am  140  LEU140     -0.1980
     97  CA        21.2730  -10.9000   18.3750 C.3   140  LEU140      0.1596
     98  C         22.7050  -10.3900   18.2230 C.2   140  LEU140      0.2287
     99  O         23.6500  -11.1750   18.1820 O.2   140  LEU140     -0.2864
    100  CB        20.5740  -10.8760   17.0080 C.3   140  LEU140      0.0297
    101  CG        21.2830  -11.5140   15.8110 C.3   140  LEU140      0.0022
    102  CD1       21.6720  -12.9540   16.0970 C.3   140  LEU140      0.0001
    103  CD2       20.3860  -11.4400   14.5830 C.3   140  LEU140      0.0001
    104  N         25.6450  -11.4490   20.5170 N.3   143  LYS143     -0.1231
    105  CA        25.9550  -12.8650   20.3530 C.3   143  LYS143      0.1693
    106  C         26.9120  -13.0620   19.1760 C.2   143  LYS143      0.2591
    107  O         27.5590  -14.1030   19.0570 O.2   143  LYS143     -0.2718
    108  CB        24.6690  -13.6720   20.1340 C.3   143  LYS143      0.0285
    109  CG        24.8100  -15.1810   20.3310 C.3   143  LYS143      0.0035
    110  CD        25.0390  -15.5750   21.7860 C.3   143  LYS143      0.0206
    111  CE        25.1830  -17.0870   21.9240 C.3   143  LYS143      0.1093
    112  NZ        25.4870  -17.5120   23.3200 N.3   143  LYS143     -0.1314
    113  N         27.0040  -12.0510   18.3160 N.am  144  LEU144     -0.1980
    114  CA        27.8530  -12.1130   17.1310 C.3   144  LEU144      0.1596
    115  C         29.2740  -11.6670   17.4590 C.2   144  LEU144      0.2287
    116  O         29.5100  -11.0030   18.4690 O.2   144  LEU144     -0.2864
    117  CB        27.2880  -11.2250   16.0200 C.3   144  LEU144      0.0297
    118  CG        25.8510  -11.4840   15.5650 C.3   144  LEU144      0.0022
    119  CD1       25.4150  -10.4050   14.5860 C.3   144  LEU144      0.0001
    120  CD2       25.7120  -12.8600   14.9390 C.3   144  LEU144      0.0001
@<TRIPOS>BOND
     1    45    44    2
     2    61    62    2
     3    61    60    1
     4    50    51    1
     5    44    43    1
     6    63    60    1
     7    42    43    1
     8    57    56   ar
     9    60    59    1
    10    59    52   am
    11    43    46    1
    12    51    52    1
    13    51    54    1
    14    52    53    2
    15    56    58   ar
    16    56    55    1
    17    37    36    2
    18    64    65    1
    19    36    35    1
    20    46    47    1
    21    54    55    1
    22    66    65    1
    23    66    67    2
    24    65    68    1
    25    26    25    2
    26    23    24    1
    27    47    48    1
    28    25    24    1
    29    25    34   am
    30    24    27    1
    31    35    34    1
    32    35    38    1
    33     1     2    1
    34    68    69    1
    35    38    39    1
    36    69    70    2
    37    69    71   am
    38    29    31   ar
    39    29    28   ar
    40    12    11    1
    41    10    11   ar
    42    10     8   ar
    43    31    33   ar
    44    27    28    1
    45     2     3    1
    46     2     5    1
    47    11     9   ar
    48     8     6   ar
    49    48    49    1
    50    28    30   ar
    51     9     7   ar
    52     6     7   ar
    53     6     5    1
    54    39    40   ar
    55    39    41   ar
    56    33    32   ar
    57     3    13   am
    58     3     4    2
    59    13    14    1
    60    30    32   ar
    61    15    14    1
    62    15    16    2
    63    14    17    1
    64    85    84    1
    65    17    18    1
    66    84    86    1
    67    84    83    1
    68    19    18   ar
    69    19    21   ar
    70    18    20   ar
    71   103   101    1
    72   119   118    1
    73   120   118    1
    74    83    80    1
    75   118   117    1
    76    21    22   ar
    77   101   102    1
    78   101   100    1
    79    20    22   ar
    80    77    76    1
    81    77    78    1
    82    76    73    1
    83   117   114    1
    84    78    72    1
    85    80    79    1
    86    80    81    1
    87   100    97    1
    88    79    74   am
    89   114   115    1
    90   114   113    1
    91    74    73    1
    92    74    75    2
    93    73    72    1
    94   115   116    2
    95    82    81    2
    96    99    98    2
    97    98    97    1
    98   113   106   am
    99    97    96    1
   100   107   106    2
   101   106   105    1
   102    96    89   am
   103   108   109    1
   104   108   105    1
   105   109   110    1
   106   105   104    1
   107    89    90    2
   108    89    88    1
   109    87    88    1
   110    94    93   ar
   111    88    91    1
   112   110   111    1
   113   111   112    1
   114    91    92    1
   115    93    92    1
   116    93    95   ar
