@<TRIPOS>MOLECULE
tmp/5brmF00.pdb
 131 128 0 0 0
SMALL
GASTEIGER

@<TRIPOS>ATOM
      1  N         -3.3520  -16.9420   -9.4990 N.3    40  PRO40      -0.2116
      2  CA        -3.2210  -15.8340  -10.4520 C.3    40  PRO40       0.1372
      3  C         -1.7570  -15.5400  -10.7660 C.2    40  PRO40       0.2244
      4  O         -1.4180  -15.1110  -11.8700 O.2    40  PRO40      -0.2868
      5  CB        -3.8610  -14.6540   -9.7130 C.3    40  PRO40       0.0268
      6  CG        -4.7430  -15.2740   -8.6850 C.3    40  PRO40       0.0207
      7  CD        -4.0160  -16.5110   -8.2580 C.3    40  PRO40       0.0892
      8  N         -4.5230  -27.9070   -5.9270 N.3   112  TYR112     -0.1227
      9  CA        -4.6440  -27.1650   -4.6750 C.3   112  TYR112      0.1736
     10  C         -5.2370  -25.7640   -4.8650 C.2   112  TYR112      0.2595
     11  O         -6.1040  -25.3440   -4.1010 O.2   112  TYR112     -0.2718
     12  CB        -3.2770  -27.0550   -3.9930 C.3   112  TYR112      0.0548
     13  CG        -2.9750  -28.1790   -3.0270 C.ar  112  TYR112     -0.0200
     14  CD1       -3.6580  -28.2820   -1.8220 C.ar  112  TYR112     -0.0009
     15  CD2       -2.0140  -29.1370   -3.3170 C.ar  112  TYR112     -0.0009
     16  CE1       -3.3900  -29.3010   -0.9330 C.ar  112  TYR112      0.0417
     17  CE2       -1.7400  -30.1630   -2.4340 C.ar  112  TYR112      0.0417
     18  CZ        -2.4310  -30.2410   -1.2440 C.ar  112  TYR112      0.1957
     19  OH        -2.1590  -31.2640   -0.3620 O.3   112  TYR112     -0.2866
     20  N         -4.7720  -25.0420   -5.8800 N.am  113  HIS113     -0.1975
     21  CA        -5.1720  -23.6480   -6.0520 C.3   113  HIS113      0.1656
     22  C         -6.5870  -23.4610   -6.6060 C.2   113  HIS113      0.2291
     23  O         -7.3230  -22.5970   -6.1310 O.2   113  HIS113     -0.2864
     24  CB        -4.1680  -22.9320   -6.9600 C.3   113  HIS113      0.0771
     25  CG        -2.9630  -22.4170   -6.2360 C.ar  113  HIS113      0.0820
     26  ND1       -2.9650  -21.2220   -5.5470 N.ar  113  HIS113     -0.2267
     27  CD2       -1.7210  -22.9340   -6.0820 C.ar  113  HIS113      0.1154
     28  CE1       -1.7780  -21.0240   -5.0070 C.ar  113  HIS113      0.1986
     29  NE2       -1.0020  -22.0500   -5.3160 N.ar  113  HIS113     -0.2212
     30  N         -9.5190  -27.2730   -5.0280 N.3   116  PHE116     -0.1227
     31  CA        -9.5080  -27.8310   -3.6830 C.3   116  PHE116      0.1736
     32  C        -10.9410  -27.9720   -3.1850 C.2   116  PHE116      0.2595
     33  O        -11.2320  -28.8200   -2.3420 O.2   116  PHE116     -0.2718
     34  CB        -8.6900  -26.9710   -2.7240 C.3   116  PHE116      0.0547
     35  CG        -8.3440  -27.6710   -1.4400 C.ar  116  PHE116     -0.0202
     36  CD1       -7.3730  -28.6600   -1.4230 C.ar  116  PHE116     -0.0042
     37  CD2       -8.9800  -27.3430   -0.2540 C.ar  116  PHE116     -0.0042
     38  CE1       -7.0450  -29.3130   -0.2510 C.ar  116  PHE116     -0.0003
     39  CE2       -8.6540  -27.9930    0.9240 C.ar  116  PHE116     -0.0003
     40  CZ        -7.6840  -28.9790    0.9240 C.ar  116  PHE116     -0.0000
     41  N        -11.8290  -27.1290   -3.7050 N.am  117  ASP117     -0.1974
     42  CA       -13.2400  -27.1750   -3.3370 C.3   117  ASP117      0.1709
     43  C        -13.8500  -28.5190   -3.7140 C.2   117  ASP117      0.2293
     44  O        -14.5620  -29.1330   -2.9200 O.2   117  ASP117     -0.2864
     45  CB       -14.0140  -26.0510   -4.0300 C.3   117  ASP117      0.1436
     46  CG       -13.5200  -24.6720   -3.6420 C.2   117  ASP117      0.3671
     47  OD1      -12.3020  -24.5180   -3.4110 O.co2 117  ASP117     -0.2456
     48  OD2      -14.3490  -23.7400   -3.5740 O.co2 117  ASP117     -0.2456
     49  N        -12.4670  -31.3680   -1.4980 N.3   120  MET120     -0.1245
     50  CA       -13.1050  -31.4310   -0.1940 C.3   120  MET120      0.1570
     51  C        -14.4770  -32.0670   -0.2880 C.2   120  MET120      0.2261
     52  O        -14.7990  -32.9030    0.5450 O.2   120  MET120     -0.2867
     53  CB       -13.2360  -30.0420    0.4390 C.3   120  MET120      0.0387
     54  CG       -11.9220  -29.4330    0.8930 C.3   120  MET120      0.0595
     55  SD       -12.1620  -27.9000    1.8130 S.3   120  MET120     -0.1393
     56  CE       -12.5790  -26.7560    0.4980 C.3   120  MET120      0.0692
     57  N         -9.2070  -35.0620    0.6310 N.3   125  GLU125     -0.1245
     58  CA        -8.0860  -34.2000    1.0120 C.3   125  GLU125      0.1567
     59  C         -6.8980  -34.9600    1.6110 C.2   125  GLU125      0.2260
     60  O         -5.7450  -34.6260    1.3310 O.2   125  GLU125     -0.2867
     61  CB        -8.5450  -33.1090    1.9920 C.3   125  GLU125      0.0388
     62  CG        -9.1840  -33.6000    3.2890 C.3   125  GLU125      0.1160
     63  CD       -10.6760  -33.8560    3.1560 C.2   125  GLU125      0.3649
     64  OE1      -11.1660  -33.9720    2.0130 O.co2 125  GLU125     -0.2457
     65  OE2      -11.3610  -33.9310    4.1980 O.co2 125  GLU125     -0.2457
     66  N         -3.1110  -34.7300    0.4450 N.3   129  ASN129     -0.1240
     67  CA        -2.1440  -34.2630    1.4320 C.3   129  ASN129      0.1653
     68  C         -1.0640  -35.3010    1.7020 C.2   129  ASN129      0.2266
     69  O          0.1160  -34.9690    1.8090 O.2   129  ASN129     -0.2867
     70  CB        -2.8500  -33.9100    2.7440 C.3   129  ASN129      0.1155
     71  CG        -3.7980  -32.7340    2.6030 C.2   129  ASN129      0.2627
     72  OD1       -3.6110  -31.8660    1.7510 O.2   129  ASN129     -0.2716
     73  ND2       -4.8230  -32.6990    3.4460 N.am  129  ASN129     -0.0877
     74  N          4.8530  -21.6960   -5.5280 N.3   152  PRO152     -0.2102
     75  CA         3.3890  -21.6270   -5.4120 C.3   152  PRO152      0.1504
     76  C          2.7760  -22.2780   -4.1660 C.2   152  PRO152      0.2576
     77  O          1.6210  -21.9810   -3.8590 O.2   152  PRO152     -0.2718
     78  CB         2.9080  -22.3660   -6.6690 C.3   152  PRO152      0.0282
     79  CG         4.0450  -22.3220   -7.6100 C.3   152  PRO152      0.0208
     80  CD         5.2670  -22.3810   -6.7650 C.3   152  PRO152      0.0893
     81  N          3.5160  -23.1410   -3.4740 N.am  153  LEU153     -0.1966
     82  CA         2.9800  -23.8550   -2.3110 C.3   153  LEU153      0.1728
     83  C          3.8780  -23.7760   -1.0760 C.2   153  LEU153      0.2616
     84  O          3.8160  -24.6420   -0.2050 O.2   153  LEU153     -0.2715
     85  CB         2.7400  -25.3210   -2.6770 C.3   153  LEU153      0.0311
     86  CG         1.6880  -25.5930   -3.7540 C.3   153  LEU153      0.0022
     87  CD1        1.6240  -27.0800   -4.0550 C.3   153  LEU153      0.0001
     88  CD2        0.3220  -25.0850   -3.3250 C.3   153  LEU153      0.0001
     89  N          4.6930  -22.7300   -0.9920 N.am  154  GLN154     -0.1963
     90  CA         5.7180  -22.6330    0.0460 C.3   154  GLN154      0.1733
     91  C          5.1670  -22.6620    1.4740 C.2   154  GLN154      0.2616
     92  O          5.7360  -23.3190    2.3450 O.2   154  GLN154     -0.2715
     93  CB         6.5150  -21.3450   -0.1410 C.3   154  GLN154      0.0408
     94  CG         7.8060  -21.2720    0.6540 C.3   154  GLN154      0.0908
     95  CD         8.8730  -22.1930    0.1030 C.2   154  GLN154      0.2608
     96  OE1        9.3870  -21.9730   -0.9930 O.2   154  GLN154     -0.2717
     97  NE2        9.2130  -23.2310    0.8590 N.am  154  GLN154     -0.0878
     98  N          4.0690  -21.9510    1.7150 N.am  155  GLU155     -0.1963
     99  CA         3.4940  -21.8750    3.0580 C.3   155  GLU155      0.1733
    100  C          2.9750  -23.2350    3.5140 C.2   155  GLU155      0.2616
    101  O          3.1170  -23.6090    4.6780 O.2   155  GLU155     -0.2715
    102  CB         2.3680  -20.8400    3.1090 C.3   155  GLU155      0.0429
    103  CG         1.8220  -20.6000    4.5120 C.3   155  GLU155      0.1163
    104  CD         0.7540  -19.5240    4.5550 C.2   155  GLU155      0.3649
    105  OE1        0.4570  -18.9340    3.4950 O.co2 155  GLU155     -0.2457
    106  OE2        0.2110  -19.2700    5.6510 O.co2 155  GLU155     -0.2457
    107  N          2.3710  -23.9680    2.5880 N.am  156  LEU156     -0.1977
    108  CA         1.8640  -25.3010    2.8740 C.3   156  LEU156      0.1596
    109  C          3.0250  -26.2250    3.2170 C.2   156  LEU156      0.2287
    110  O          2.9660  -26.9890    4.1780 O.2   156  LEU156     -0.2864
    111  CB         1.0790  -25.8380    1.6730 C.3   156  LEU156      0.0297
    112  CG         0.5820  -27.2860    1.7260 C.3   156  LEU156      0.0022
    113  CD1       -0.2530  -27.5500    2.9710 C.3   156  LEU156      0.0001
    114  CD2       -0.2100  -27.6080    0.4660 C.3   156  LEU156      0.0001
    115  N          4.3890  -25.9980    6.7860 N.3   159  LYS159     -0.1231
    116  CA         3.5490  -26.5360    7.8490 C.3   159  LYS159      0.1693
    117  C          3.7600  -28.0400    8.0090 C.2   159  LYS159      0.2591
    118  O          3.4000  -28.6210    9.0330 O.2   159  LYS159     -0.2718
    119  CB         2.0790  -26.2210    7.5750 C.3   159  LYS159      0.0285
    120  CG         1.7280  -24.7480    7.7400 C.3   159  LYS159      0.0035
    121  CD         0.2300  -24.5300    7.5690 C.3   159  LYS159      0.0206
    122  CE        -0.1730  -23.0610    7.7220 C.3   159  LYS159      0.1093
    123  NZ         0.0190  -22.5460    9.1100 N.3   159  LYS159     -0.1314
    124  N          4.3560  -28.6610    6.9950 N.am  160  LEU160     -0.1980
    125  CA         4.5820  -30.1010    6.9910 C.3   160  LEU160      0.1596
    126  C          5.8930  -30.4520    7.6890 C.2   160  LEU160      0.2287
    127  O          6.7680  -29.6010    7.8610 O.2   160  LEU160     -0.2864
    128  CB         4.6170  -30.6190    5.5540 C.3   160  LEU160      0.0297
    129  CG         3.3980  -30.3030    4.6870 C.3   160  LEU160      0.0022
    130  CD1        3.6510  -30.7300    3.2490 C.3   160  LEU160      0.0001
    131  CD2        2.1430  -30.9630    5.2310 C.3   160  LEU160      0.0001
@<TRIPOS>BOND
     1     4     3    2
     2     3     2    1
     3     2     5    1
     4     2     1    1
     5     5     6    1
     6     1     7    1
     7     6     7    1
     8    79    80    1
     9    79    78    1
    10    24    25    1
    11    24    21    1
    12    80    74    1
    13    78    75    1
    14    22    23    2
    15    22    21    1
    16    25    27   ar
    17    25    26   ar
    18    27    29   ar
    19    21    20    1
    20     8     9    1
    21    20    10   am
    22    26    28   ar
    23    74    75    1
    24    75    76    1
    25    29    28   ar
    26    30    31    1
    27    10     9    1
    28    10    11    2
    29     9    12    1
    30    76    77    2
    31    76    81   am
    32    87    86    1
    33    45    46    1
    34    45    42    1
    35    12    13    1
    36    86    88    1
    37    86    85    1
    38    43    42    1
    39    43    44    2
    40    41    42    1
    41    41    32   am
    42    31    32    1
    43    31    34    1
    44    46    48   ar
    45    46    47   ar
    46    81    82    1
    47    15    13   ar
    48    15    17   ar
    49    32    33    2
    50    13    14   ar
    51    34    35    1
    52    85    82    1
    53    17    18   ar
    54    82    83    1
    55    14    16   ar
    56    49    50    1
    57    35    36   ar
    58    35    37   ar
    59    36    38   ar
    60    18    16   ar
    61    18    19    1
    62    83    89   am
    63    83    84    2
    64    96    95    2
    65    89    90    1
    66    51    50    1
    67    51    52    2
    68    37    39   ar
    69    38    40   ar
    70    50    53    1
    71    93    90    1
    72    93    94    1
    73    90    91    1
    74    95    94    1
    75    95    97   am
    76    53    54    1
    77    66    67    1
    78   114   112    1
    79    56    55    1
    80    57    58    1
    81    54    55    1
    82    39    40   ar
    83    58    59    1
    84    58    61    1
    85    60    59    2
    86    67    68    1
    87    67    70    1
    88    91    98   am
    89    91    92    2
    90   111   112    1
    91   111   108    1
    92    68    69    2
    93    98    99    1
    94   112   113    1
    95    72    71    2
    96    61    62    1
    97    64    63   ar
    98   107   108    1
    99   107   100   am
   100    71    70    1
   101    71    73   am
   102   108   109    1
   103    99   102    1
   104    99   100    1
   105   102   103    1
   106    63    62    1
   107    63    65   ar
   108   109   110    2
   109   130   129    1
   110   105   104   ar
   111   100   101    2
   112   103   104    1
   113   104   106   ar
   114   129   131    1
   115   129   128    1
   116   128   125    1
   117   115   116    1
   118   125   124    1
   119   125   126    1
   120   124   117   am
   121   121   122    1
   122   121   120    1
   123   119   120    1
   124   119   116    1
   125   126   127    2
   126   122   123    1
   127   116   117    1
   128   117   118    2
