@<TRIPOS>MOLECULE
tmp/5brmD01.pdb
 170 163 0 0 0
SMALL
GASTEIGER

@<TRIPOS>ATOM
      1  N         30.9500    3.7370    0.3420 N.3     7  ALA7       -0.1231
      2  CA        30.1820    3.6730   -0.8970 C.3     7  ALA7        0.1694
      3  C         30.0830    2.2330   -1.3850 C.2     7  ALA7        0.2591
      4  O         28.9910    1.7250   -1.6380 O.2     7  ALA7       -0.2718
      5  CB        30.8150    4.5520   -1.9640 C.3     7  ALA7        0.0304
      6  N         31.2340    1.5840   -1.5180 N.am    8  VAL8       -0.1980
      7  CA        31.2910    0.2170   -2.0170 C.3     8  VAL8        0.1595
      8  C         30.5500   -0.7250   -1.0810 C.2     8  VAL8        0.2287
      9  O         29.8770   -1.6450   -1.5360 O.2     8  VAL8       -0.2864
     10  CB        32.7470   -0.2430   -2.2020 C.3     8  VAL8        0.0276
     11  CG1       32.8270   -1.7380   -2.5170 C.3     8  VAL8        0.0022
     12  CG2       33.3890    0.5640   -3.3030 C.3     8  VAL8        0.0022
     13  N         26.8350   -0.1020   -1.6090 N.3    11  VAL11      -0.1231
     14  CA        26.4350   -0.7320   -2.8650 C.3    11  VAL11       0.1692
     15  C         26.3990   -2.2480   -2.7270 C.2    11  VAL11       0.2592
     16  O         25.4850   -2.9080   -3.2190 O.2    11  VAL11      -0.2718
     17  CB        27.3940   -0.3540   -4.0160 C.3    11  VAL11       0.0266
     18  CG1       27.1660   -1.2470   -5.2400 C.3    11  VAL11       0.0020
     19  CG2       27.2320    1.1060   -4.3860 C.3    11  VAL11       0.0020
     20  N         27.4170   -2.7940   -2.0750 N.am   12  ASP12      -0.1974
     21  CA        27.5400   -4.2350   -1.9120 C.3    12  ASP12       0.1709
     22  C         26.3920   -4.7740   -1.0800 C.2    12  ASP12       0.2293
     23  O         25.8070   -5.8010   -1.4170 O.2    12  ASP12      -0.2864
     24  CB        28.8800   -4.5930   -1.2730 C.3    12  ASP12       0.1436
     25  CG        30.0370   -4.4660   -2.2460 C.2    12  ASP12       0.3671
     26  OD1       29.8100   -4.0070   -3.3850 O.co2  12  ASP12      -0.2456
     27  OD2       31.1790   -4.7870   -1.8620 O.co2  12  ASP12      -0.2456
     28  N         23.5160   -3.2970   -0.5880 N.3    14  PHE14      -0.1227
     29  CA        22.2990   -3.0850   -1.3680 C.3    14  PHE14       0.1736
     30  C         22.0220   -4.3060   -2.2370 C.2    14  PHE14       0.2595
     31  O         20.8810   -4.7520   -2.3510 O.2    14  PHE14      -0.2718
     32  CB        22.4130   -1.8380   -2.2490 C.3    14  PHE14       0.0547
     33  CG        21.3430   -1.7410   -3.3040 C.ar   14  PHE14      -0.0202
     34  CD1       20.0320   -1.4470   -2.9640 C.ar   14  PHE14      -0.0042
     35  CD2       21.6490   -1.9630   -4.6370 C.ar   14  PHE14      -0.0042
     36  CE1       19.0520   -1.3610   -3.9370 C.ar   14  PHE14      -0.0003
     37  CE2       20.6730   -1.8800   -5.6130 C.ar   14  PHE14      -0.0003
     38  CZ        19.3740   -1.5790   -5.2620 C.ar   14  PHE14      -0.0000
     39  N         23.0780   -4.8480   -2.8340 N.am   15  ASN15      -0.1974
     40  CA        22.9610   -6.0380   -3.6620 C.3    15  ASN15       0.1688
     41  C         22.5240   -7.2360   -2.8250 C.2    15  ASN15       0.2292
     42  O         21.6500   -8.0090   -3.2280 O.2    15  ASN15      -0.2864
     43  CB        24.2960   -6.3430   -4.3400 C.3    15  ASN15       0.1181
     44  CG        24.6720   -5.3120   -5.3840 C.2    15  ASN15       0.2629
     45  OD1       23.8100   -4.7020   -6.0140 O.2    15  ASN15      -0.2716
     46  ND2       25.9700   -5.1050   -5.5650 N.am   15  ASN15      -0.0877
     47  N         18.7470   -7.0580   -1.5620 N.3    18  ASN18      -0.1225
     48  CA        17.7990   -7.3330   -2.6330 C.3    18  ASN18       0.1785
     49  C         17.7710   -8.8170   -2.9850 C.2    18  ASN18       0.2597
     50  O         16.7090   -9.3780   -3.2520 O.2    18  ASN18      -0.2718
     51  CB        18.1230   -6.4890   -3.8630 C.3    18  ASN18       0.1169
     52  CG        17.3850   -5.1680   -3.8610 C.2    18  ASN18       0.2627
     53  OD1       16.3670   -5.0060   -4.5330 O.2    18  ASN18      -0.2716
     54  ND2       17.8940   -4.2160   -3.0890 N.am   18  ASN18      -0.0877
     55  N         18.9390   -9.4530   -2.9760 N.am   19  MET19      -0.1979
     56  CA        19.0190  -10.8920   -3.1990 C.3    19  MET19       0.1605
     57  C         18.3290  -11.6510   -2.0750 C.2    19  MET19       0.2287
     58  O         17.5230  -12.5470   -2.3250 O.2    19  MET19      -0.2864
     59  CB        20.4810  -11.3350   -3.3230 C.3    19  MET19       0.0413
     60  CG        20.6690  -12.8390   -3.4770 C.3    19  MET19       0.0598
     61  SD        20.5900  -13.7010   -1.8900 S.3    19  MET19      -0.1393
     62  CE        20.8080  -15.4010   -2.3990 C.3    19  MET19       0.0692
     63  N         16.1170  -10.5770    0.2880 N.3    21  TYR21      -0.1227
     64  CA        14.6790  -10.3240    0.2820 C.3    21  TYR21       0.1736
     65  C         14.0450  -11.0370   -0.9040 C.2    21  TYR21       0.2596
     66  O         12.9030  -11.4900   -0.8340 O.2    21  TYR21      -0.2718
     67  CB        14.3680   -8.8280    0.2130 C.3    21  TYR21       0.0548
     68  CG        12.8870   -8.5230    0.3200 C.ar   21  TYR21      -0.0200
     69  CD1       12.1980   -8.7310    1.5090 C.ar   21  TYR21      -0.0009
     70  CD2       12.1730   -8.0490   -0.7740 C.ar   21  TYR21      -0.0009
     71  CE1       10.8440   -8.4600    1.6100 C.ar   21  TYR21       0.0417
     72  CE2       10.8190   -7.7770   -0.6830 C.ar   21  TYR21       0.0417
     73  CZ        10.1610   -7.9850    0.5120 C.ar   21  TYR21       0.1957
     74  OH         8.8150   -7.7170    0.6070 O.3    21  TYR21      -0.2866
     75  N         14.8000  -11.1220   -1.9950 N.am   22  GLY22      -0.1957
     76  CA        14.3390  -11.7680   -3.2080 C.3    22  GLY22       0.1869
     77  C         13.8750  -13.1960   -2.9980 C.2    22  GLY22       0.2309
     78  O         12.9400  -13.6480   -3.6600 O.2    22  GLY22      -0.2863
     79  N         10.2500  -12.6140   -1.4640 N.3    25  THR25      -0.1218
     80  CA         9.4090  -11.4810   -1.8560 C.3    25  THR25       0.1862
     81  C          7.9490  -11.8880   -2.0460 C.2    25  THR25       0.2287
     82  O          7.0280  -11.1090   -1.7890 O.2    25  THR25      -0.2866
     83  CB         9.9170  -10.8270   -3.1620 C.3    25  THR25       0.1770
     84  OG1        9.0780   -9.7170   -3.5030 O.3    25  THR25      -0.2211
     85  CG2        9.9260  -11.8300   -4.3140 C.3    25  THR25       0.0375
     86  N          9.6700   -1.4330    1.3940 N.3    54  ILE54      -0.1231
     87  CA        10.9240   -1.9110    0.8220 C.3    54  ILE54       0.1692
     88  C         11.0100   -1.6150   -0.6700 C.2    54  ILE54       0.2592
     89  O         12.0850   -1.3160   -1.1820 O.2    54  ILE54      -0.2718
     90  CB        11.0950   -3.4240    1.0680 C.3    54  ILE54       0.0266
     91  CG1       11.2610   -3.6700    2.5640 C.3    54  ILE54       0.0019
     92  CG2       12.3110   -3.9750    0.3300 C.3    54  ILE54       0.0020
     93  CD1       11.1130   -5.1160    2.9910 C.3    54  ILE54       0.0001
     94  N          9.8840   -1.6800   -1.3690 N.am   55  ASP55      -0.1974
     95  CA         9.8800   -1.3410   -2.7840 C.3    55  ASP55       0.1709
     96  C         10.1460    0.1520   -2.9260 C.2    55  ASP55       0.2293
     97  O         10.9760    0.5700   -3.7350 O.2    55  ASP55      -0.2864
     98  CB         8.5660   -1.7220   -3.4570 C.3    55  ASP55       0.1436
     99  CG         8.6040   -1.5000   -4.9560 C.2    55  ASP55       0.3671
    100  OD1        9.6360   -1.8350   -5.5760 O.co2  55  ASP55      -0.2456
    101  OD2        7.6120   -0.9880   -5.5140 O.co2  55  ASP55      -0.2456
    102  N         13.9540    0.5360   -2.0120 N.3    58  MET58      -0.1230
    103  CA        14.9730    0.0830   -2.9610 C.3    58  MET58       0.1702
    104  C         14.9900    0.8890   -4.2610 C.2    58  MET58       0.2593
    105  O         16.0530    1.0970   -4.8460 O.2    58  MET58      -0.2718
    106  CB        14.7780   -1.4040   -3.2710 C.3    58  MET58       0.0401
    107  CG        14.9630   -2.2950   -2.0500 C.3    58  MET58       0.0596
    108  SD        16.5910   -2.1440   -1.2940 S.3    58  MET58      -0.1393
    109  CE        16.3150   -2.9800    0.2650 C.3    58  MET58       0.0692
    110  N         13.8240    1.3320   -4.7200 N.am   59  THR59      -0.1953
    111  CA        13.7580    2.1770   -5.9110 C.3    59  THR59       0.1897
    112  C         14.3960    3.5310   -5.5870 C.2    59  THR59       0.2313
    113  O         15.0950    4.1180   -6.4150 O.2    59  THR59      -0.2863
    114  CB        12.3000    2.3430   -6.4250 C.3    59  THR59       0.1794
    115  OG1       12.3160    2.8860   -7.7510 O.3    59  THR59      -0.2208
    116  CG2       11.4760    3.2500   -5.5230 C.3    59  THR59       0.0378
    117  N         18.1350    3.0190   -5.3590 N.3    62  GLN62      -0.1245
    118  CA        18.6660    2.8370   -6.7080 C.3    62  GLN62       0.1566
    119  C         18.9340    4.1770   -7.3820 C.2    62  GLN62       0.2260
    120  O         19.9260    4.3360   -8.0940 O.2    62  GLN62      -0.2867
    121  CB        17.6870    2.0250   -7.5610 C.3    62  GLN62       0.0367
    122  CG        18.1500    1.7880   -8.9940 C.3    62  GLN62       0.0905
    123  CD        17.5370    0.5460   -9.6170 C.2    62  GLN62       0.2608
    124  OE1       16.4830    0.0770   -9.1890 O.2    62  GLN62      -0.2717
    125  NE2       18.1780    0.0310  -10.6610 N.am   62  GLN62      -0.0878
    126  N         22.2910    5.6620   -5.8100 N.3    65  LEU65      -0.1231
    127  CA        23.5030    4.9870   -6.2580 C.3    65  LEU65       0.1693
    128  C         23.8520    5.3860   -7.6910 C.2    65  LEU65       0.2592
    129  O         25.0250    5.4280   -8.0630 O.2    65  LEU65      -0.2718
    130  CB        23.3400    3.4680   -6.1280 C.3    65  LEU65       0.0284
    131  CG        23.1040    2.9650   -4.6940 C.3    65  LEU65       0.0019
    132  CD1       22.9900    1.4480   -4.6360 C.3    65  LEU65       0.0001
    133  CD2       24.1890    3.4360   -3.7340 C.3    65  LEU65       0.0001
    134  N         22.8270    5.6780   -8.4870 N.am   66  ASP66      -0.1974
    135  CA        23.0190    6.0910   -9.8740 C.3    66  ASP66       0.1709
    136  C         23.2570    7.5970  -10.0030 C.2    66  ASP66       0.2293
    137  O         23.4220    8.1080  -11.1110 O.2    66  ASP66      -0.2864
    138  CB        21.8100    5.6860  -10.7210 C.3    66  ASP66       0.1436
    139  CG        21.6320    4.1810  -10.8050 C.2    66  ASP66       0.3671
    140  OD1       22.6400    3.4530  -10.6920 O.co2  66  ASP66      -0.2456
    141  OD2       20.4830    3.7270  -10.9900 O.co2  66  ASP66      -0.2456
    142  N         27.3180    9.6320   -5.8490 N.3    71  PHE71      -0.1228
    143  CA        28.1830    8.4640   -5.9670 C.3    71  PHE71       0.1721
    144  C         28.9210    8.4700   -7.3060 C.2    71  PHE71       0.2437
    145  O         28.4540    7.8610   -8.2690 O.2    71  PHE71      -0.2733
    146  CB        27.3560    7.1860   -5.8150 C.3    71  PHE71       0.0547
    147  CG        26.8670    6.9540   -4.4130 C.ar   71  PHE71      -0.0202
    148  CD1       25.8140    7.6960   -3.9030 C.ar   71  PHE71      -0.0042
    149  CD2       27.4610    6.0020   -3.6030 C.ar   71  PHE71      -0.0042
    150  CE1       25.3620    7.4920   -2.6150 C.ar   71  PHE71      -0.0003
    151  CE2       27.0120    5.7940   -2.3130 C.ar   71  PHE71      -0.0003
    152  CZ        25.9620    6.5400   -1.8190 C.ar   71  PHE71      -0.0000
    153  N         30.0710    9.1660   -7.3730 N.am   72  PRO72      -0.2729
    154  CA        30.8620    9.2800   -8.6070 C.3    72  PRO72       0.1401
    155  C         31.1490    7.9370   -9.2730 C.2    72  PRO72       0.2269
    156  O         31.2990    7.9000  -10.4940 O.2    72  PRO72      -0.2865
    157  CB        32.1630    9.9270   -8.1240 C.3    72  PRO72       0.0296
    158  CG        31.7740   10.6890   -6.9150 C.3    72  PRO72       0.0237
    159  CD        30.7220    9.8590   -6.2480 C.3    72  PRO72       0.0939
    160  N         33.3870   13.6490   -3.6360 N.3    73  PHE73      -0.1241
    161  CA        32.1710   13.3630   -2.8870 C.3    73  PHE73       0.1605
    162  C         31.5970   14.6500   -2.3060 C.2    73  PHE73       0.2264
    163  O         32.3540   15.5300   -1.8950 O.2    73  PHE73      -0.2867
    164  CB        32.4560   12.3730   -1.7560 C.3    73  PHE73       0.0534
    165  CG        32.7320   10.9750   -2.2250 C.ar   73  PHE73      -0.0203
    166  CD1       31.7040   10.1600   -2.6660 C.ar   73  PHE73      -0.0042
    167  CD2       34.0200   10.4710   -2.2140 C.ar   73  PHE73      -0.0042
    168  CE1       31.9580    8.8710   -3.0920 C.ar   73  PHE73      -0.0003
    169  CE2       34.2800    9.1850   -2.6390 C.ar   73  PHE73      -0.0003
    170  CZ        33.2480    8.3830   -3.0790 C.ar   73  PHE73      -0.0000
@<TRIPOS>BOND
     1   137   136    2
     2   141   139   ar
     3   139   138    1
     4   139   140   ar
     5   138   135    1
     6   125   123   am
     7   156   155    2
     8   136   135    1
     9   135   134    1
    10   123   124    2
    11   123   122    1
    12   155   154    1
    13   122   121    1
    14   154   157    1
    15   154   153    1
    16   134   128   am
    17   145   144    2
    18   157   158    1
    19   120   119    2
    20   129   128    2
    21   115   114    1
    22   128   127    1
    23   121   118    1
    24   119   118    1
    25   153   144   am
    26   153   159    1
    27   144   143    1
    28   158   159    1
    29   118   117    1
    30   114   111    1
    31   114   116    1
    32   113   112    2
    33   127   130    1
    34   127   126    1
    35   130   131    1
    36    45    44    2
    37   143   142    1
    38   143   146    1
    39   111   112    1
    40   111   110    1
    41   146   147    1
    42    37    38   ar
    43    37    35   ar
    44   100    99   ar
    45    46    44   am
    46   101    99   ar
    47    44    43    1
    48    38    36   ar
    49    18    17    1
    50    99    98    1
    51   105   104    2
    52   110   104   am
    53   131   132    1
    54   131   133    1
    55    35    33   ar
    56    53    52    2
    57   147   148   ar
    58   147   149   ar
    59    19    17    1
    60    43    40    1
    61    85    83    1
    62   104   103    1
    63    17    14    1
    64    36    34   ar
    65   148   150   ar
    66    51    52    1
    67    51    48    1
    68    52    54   am
    69    97    96    2
    70    40    39    1
    71    40    41    1
    72    78    77    2
    73   160   161    1
    74   149   151   ar
    75    84    83    1
    76    60    59    1
    77    60    61    1
    78    98    95    1
    79    26    25   ar
    80    59    56    1
    81    33    34   ar
    82    33    32    1
    83    12    10    1
    84   106   103    1
    85   106   107    1
    86    50    49    2
    87    42    41    2
    88    16    15    2
    89    76    77    1
    90    76    75    1
    91    56    55    1
    92    56    57    1
    93    83    80    1
    94   168   170   ar
    95   168   166   ar
    96   170   169   ar
    97    49    55   am
    98    49    48    1
    99   103   102    1
   100    96    95    1
   101   161   162    1
   102   161   164    1
   103    14    15    1
   104    14    13    1
   105    39    30   am
   106    95    94    1
   107    15    20   am
   108   166   165   ar
   109   169   167   ar
   110    48    47    1
   111   150   152   ar
   112    11    10    1
   113    62    61    1
   114    31    30    2
   115    58    57    2
   116   151   152   ar
   117   162   163    2
   118    32    29    1
   119    25    27   ar
   120    25    24    1
   121    30    29    1
   122   165   167   ar
   123   165   164    1
   124    10     7    1
   125    20    21    1
   126   107   108    1
   127    81    80    1
   128    81    82    2
   129     7     6    1
   130     7     8    1
   131    75    65   am
   132     5     2    1
   133    21    24    1
   134    21    22    1
   135    80    79    1
   136     4     3    2
   137     9     8    2
   138     6     3   am
   139    23    22    2
   140     3     2    1
   141    94    88   am
   142    29    28    1
   143   108   109    1
   144    89    88    2
   145    65    66    2
   146    65    64    1
   147     2     1    1
   148    70    72   ar
   149    70    68   ar
   150    72    73   ar
   151    88    87    1
   152    67    64    1
   153    67    68    1
   154    64    63    1
   155    68    69   ar
   156    92    90    1
   157    73    74    1
   158    73    71   ar
   159    87    90    1
   160    87    86    1
   161    90    91    1
   162    69    71   ar
   163    91    93    1
