@<TRIPOS>MOLECULE
tmp/5brnC00.pdb
 130 126 0 0 0
SMALL
GASTEIGER

@<TRIPOS>ATOM
      1  N        -24.7800    0.9640   18.8760 N.3   111  GLU111     -0.1231
      2  CA       -25.1910    2.2060   19.5200 C.3   111  GLU111      0.1699
      3  C        -25.3100    3.3470   18.5110 C.2   111  GLU111      0.2592
      4  O        -24.6450    3.3430   17.4760 O.2   111  GLU111     -0.2718
      5  CB       -24.1960    2.5690   20.6300 C.3   111  GLU111      0.0402
      6  CG       -24.4670    3.8770   21.3780 C.3   111  GLU111      0.1161
      7  CD       -25.6890    3.8210   22.2840 C.2   111  GLU111      0.3649
      8  OE1      -26.7940    3.4890   21.8040 O.co2 111  GLU111     -0.2457
      9  OE2      -25.5430    4.1180   23.4870 O.co2 111  GLU111     -0.2457
     10  N        -26.1690    4.3180   18.8100 N.am  112  ASP112     -0.1960
     11  CA       -26.3240    5.4870   17.9530 C.3   112  ASP112      0.1840
     12  C        -25.1390    6.4470   18.0850 C.2   112  ASP112      0.2622
     13  O        -24.5460    6.8530   17.0860 O.2   112  ASP112     -0.2715
     14  CB       -27.6330    6.2160   18.2740 C.3   112  ASP112      0.1450
     15  CG       -27.7320    6.6310   19.7310 C.2   112  ASP112      0.3671
     16  OD1      -27.0170    6.0450   20.5700 O.co2 112  ASP112     -0.2456
     17  OD2      -28.5240    7.5480   20.0370 O.co2 112  ASP112     -0.2456
     18  N        -24.7880    6.7970   19.3190 N.am  113  ILE113     -0.1963
     19  CA       -23.7660    7.8080   19.5540 C.3   113  ILE113      0.1727
     20  C        -23.0430    7.5910   20.8840 C.2   113  ILE113      0.2616
     21  O        -23.6300    7.1190   21.8590 O.2   113  ILE113     -0.2715
     22  CB       -24.3810    9.2310   19.5240 C.3   113  ILE113      0.0290
     23  CG1      -23.2900   10.3040   19.5340 C.3   113  ILE113      0.0022
     24  CG2      -25.3690    9.4240   20.6720 C.3   113  ILE113      0.0023
     25  CD1      -23.8220   11.7130   19.4170 C.3   113  ILE113      0.0001
     26  N        -21.7570    7.9230   20.9040 N.am  114  ILE114     -0.1963
     27  CA       -20.9690    7.8880   22.1270 C.3   114  ILE114      0.1727
     28  C        -20.4660    9.2860   22.4710 C.2   114  ILE114      0.2616
     29  O        -19.6790    9.8730   21.7280 O.2   114  ILE114     -0.2715
     30  CB       -19.7800    6.9210   22.0030 C.3   114  ILE114      0.0290
     31  CG1      -20.2870    5.4990   21.7560 C.3   114  ILE114      0.0022
     32  CG2      -18.9120    6.9790   23.2460 C.3   114  ILE114      0.0023
     33  CD1      -19.2040    4.4530   21.7690 C.3   114  ILE114      0.0001
     34  N        -20.9350    9.8190   23.5940 N.am  115  ASP115     -0.1957
     35  CA       -20.5470   11.1550   24.0280 C.3   115  ASP115      0.1840
     36  C        -19.4310   11.0660   25.0630 C.2   115  ASP115      0.2623
     37  O        -18.2540   11.0030   24.7100 O.2   115  ASP115     -0.2715
     38  CB       -21.7530   11.9060   24.5980 C.3   115  ASP115      0.1450
     39  CG       -21.5030   13.3960   24.7390 C.2   115  ASP115      0.3671
     40  OD1      -20.3640   13.8430   24.4910 O.co2 115  ASP115     -0.2456
     41  OD2      -22.4540   14.1210   25.0980 O.co2 115  ASP115     -0.2456
     42  N        -19.8070   11.0630   26.3390 N.am  116  THR116     -0.1937
     43  CA       -18.8380   10.9100   27.4180 C.3   116  THR116      0.2028
     44  C        -18.2340    9.5110   27.3810 C.2   116  THR116      0.2643
     45  O        -17.0480    9.3280   27.6500 O.2   116  THR116     -0.2714
     46  CB       -19.4740   11.1610   28.7980 C.3   116  THR116      0.1808
     47  OG1      -20.4690   10.1640   29.0570 O.3   116  THR116     -0.2208
     48  CG2      -20.1150   12.5370   28.8440 C.3   116  THR116      0.0379
     49  N        -19.0610    8.5250   27.0470 N.am  117  GLY117     -0.1939
     50  CA       -18.5870    7.1700   26.8400 C.3   117  GLY117      0.2014
     51  C        -18.8130    6.2110   27.9920 C.2   117  GLY117      0.2639
     52  O        -18.5160    5.0220   27.8740 O.2   117  GLY117     -0.2714
     53  N        -19.3390    6.7110   29.1050 N.am  118  LYS118     -0.1963
     54  CA       -19.5230    5.8660   30.2820 C.3   118  LYS118      0.1728
     55  C        -20.8430    5.0950   30.2520 C.2   118  LYS118      0.2617
     56  O        -21.0680    4.2200   31.0850 O.2   118  LYS118     -0.2715
     57  CB       -19.4210    6.6950   31.5680 C.3   118  LYS118      0.0311
     58  CG       -19.8950    8.1330   31.4610 C.3   118  LYS118      0.0038
     59  CD       -19.4370    8.9270   32.6780 C.3   118  LYS118      0.0206
     60  CE       -19.8280   10.3910   32.5850 C.3   118  LYS118      0.1093
     61  NZ       -21.3010   10.5820   32.6470 N.3   118  LYS118     -0.1314
     62  N        -21.7100    5.4110   29.2940 N.am  119  THR119     -0.1937
     63  CA       -22.9000    4.5970   29.0700 C.3   119  THR119      0.2028
     64  C        -22.4780    3.2170   28.5870 C.2   119  THR119      0.2642
     65  O        -22.9880    2.1960   29.0500 O.2   119  THR119     -0.2714
     66  CB       -23.8560    5.2270   28.0360 C.3   119  THR119      0.1808
     67  OG1      -24.3600    6.4710   28.5370 O.3   119  THR119     -0.2208
     68  CG2      -25.0210    4.2920   27.7400 C.3   119  THR119      0.0379
     69  N        -21.5270    3.2010   27.6600 N.am  120  MET120     -0.1976
     70  CA       -21.0340    1.9590   27.0830 C.3   120  MET120      0.1605
     71  C        -20.1710    1.1890   28.0760 C.2   120  MET120      0.2287
     72  O        -20.2690   -0.0340   28.1690 O.2   120  MET120     -0.2864
     73  CB       -20.2440    2.2430   25.8040 C.3   120  MET120      0.0413
     74  CG       -20.0590    1.0250   24.9150 C.3   120  MET120      0.0598
     75  SD       -21.6280    0.2530   24.4650 S.3   120  MET120     -0.1393
     76  CE       -22.4940    1.6400   23.7350 C.3   120  MET120      0.0692
     77  N        -18.5280   11.6850   19.4290 N.3   143  LYS143     -0.1245
     78  CA       -18.2720   13.1130   19.5620 C.3   143  LYS143      0.1561
     79  C        -16.8520   13.3970   20.0320 C.2   143  LYS143      0.2260
     80  O        -16.2990   12.6620   20.8490 O.2   143  LYS143     -0.2867
     81  CB       -19.2600   13.7510   20.5390 C.3   143  LYS143      0.0271
     82  CG       -20.6300   14.0500   19.9660 C.3   143  LYS143      0.0035
     83  CD       -21.4420   14.8630   20.9610 C.3   143  LYS143      0.0206
     84  CE       -22.7840   15.2740   20.3940 C.3   143  LYS143      0.1093
     85  NZ       -23.5600   16.0850   21.3730 N.3   143  LYS143     -0.1314
     86  N        -15.4710   16.1470   27.6330 N.3   147  ARG147     -0.1245
     87  CA       -16.1630   15.4450   28.7080 C.3   147  ARG147      0.1563
     88  C        -16.0170   13.9310   28.5720 C.2   147  ARG147      0.2260
     89  O        -16.5650   13.1700   29.3690 O.2   147  ARG147     -0.2867
     90  CB       -17.6450   15.8280   28.7260 C.3   147  ARG147      0.0307
     91  CG       -17.9240   17.2370   29.2280 C.3   147  ARG147      0.0489
     92  CD       -19.2330   17.7870   28.6710 C.3   147  ARG147      0.2205
     93  NE       -20.2800   16.7730   28.5760 N.pl3 147  ARG147     -0.0865
     94  CZ       -20.7680   16.3060   27.4300 C.cat 147  ARG147      0.5346
     95  NH1      -20.3040   16.7620   26.2740 N.pl3 147  ARG147      0.1354
     96  NH2      -21.7210   15.3830   27.4380 N.pl3 147  ARG147      0.1354
     97  N        -24.8430   19.1630   19.3480 N.3   164  PHE164     -0.1227
     98  CA       -25.9410   18.2150   19.5070 C.3   164  PHE164      0.1736
     99  C        -26.5990   17.9030   18.1650 C.2   164  PHE164      0.2595
    100  O        -27.0810   18.8000   17.4730 O.2   164  PHE164     -0.2718
    101  CB       -26.9800   18.7520   20.4930 C.3   164  PHE164      0.0547
    102  CG       -27.8310   17.6810   21.1120 C.ar  164  PHE164     -0.0202
    103  CD1      -28.9020   17.1400   20.4210 C.ar  164  PHE164     -0.0042
    104  CD2      -27.5560   17.2110   22.3870 C.ar  164  PHE164     -0.0042
    105  CE1      -29.6830   16.1500   20.9870 C.ar  164  PHE164     -0.0003
    106  CE2      -28.3350   16.2210   22.9590 C.ar  164  PHE164     -0.0003
    107  CZ       -29.4000   15.6900   22.2580 C.ar  164  PHE164     -0.0000
    108  N        -26.6200   16.6230   17.8060 N.am  165  VAL165     -0.1980
    109  CA       -27.1790   16.1990   16.5290 C.3   165  VAL165      0.1595
    110  C        -28.4910   15.4370   16.6930 C.2   165  VAL165      0.2287
    111  O        -28.7590   14.8550   17.7430 O.2   165  VAL165     -0.2864
    112  CB       -26.1880   15.3140   15.7500 C.3   165  VAL165      0.0276
    113  CG1      -25.0090   16.1420   15.2650 C.3   165  VAL165      0.0022
    114  CG2      -25.7200   14.1530   16.6140 C.3   165  VAL165      0.0022
    115  N        -31.9170    9.4240   15.9940 N.3   170  LEU170     -0.1231
    116  CA       -31.3700   10.2020   17.1050 C.3   170  LEU170      0.1693
    117  C        -32.2940   11.3620   17.4510 C.2   170  LEU170      0.2592
    118  O        -32.8860   11.9810   16.5670 O.2   170  LEU170     -0.2718
    119  CB       -29.9670   10.7230   16.7890 C.3   170  LEU170      0.0284
    120  CG       -28.8170    9.7360   17.0100 C.3   170  LEU170      0.0019
    121  CD1      -28.6510    8.7970   15.8220 C.3   170  LEU170      0.0001
    122  CD2      -27.5220   10.4710   17.3180 C.3   170  LEU170      0.0001
    123  N        -32.4030   11.6590   18.7420 N.am  171  ASP171     -0.1974
    124  CA       -33.4120   12.5940   19.2190 C.3   171  ASP171      0.1709
    125  C        -32.8680   13.7270   20.0790 C.2   171  ASP171      0.2293
    126  O        -31.7930   13.6250   20.6700 O.2   171  ASP171     -0.2864
    127  CB       -34.4740   11.8460   20.0250 C.3   171  ASP171      0.1436
    128  CG       -33.9690   11.4140   21.3890 C.2   171  ASP171      0.3671
    129  OD1      -33.1530   10.4700   21.4510 O.co2 171  ASP171     -0.2456
    130  OD2      -34.3870   12.0180   22.4000 O.co2 171  ASP171     -0.2456
@<TRIPOS>BOND
     1   113   112    1
     2   112   109    1
     3   112   114    1
     4   121   120    1
     5   115   116    1
     6   109   110    1
     7   109   108    1
     8   118   117    2
     9   110   111    2
    10   119   120    1
    11   119   116    1
    12   120   122    1
    13    13    12    2
    14   116   117    1
    15   117   123   am
    16   100    99    2
    17     4     3    2
    18   108    99   am
    19    11    12    1
    20    11    14    1
    21    11    10    1
    22    12    18   am
    23    99    98    1
    24    14    15    1
    25     3    10   am
    26     3     2    1
    27   123   124    1
    28     1     2    1
    29   124   127    1
    30   124   125    1
    31    18    19    1
    32    97    98    1
    33    25    23    1
    34    77    78    1
    35    98   101    1
    36     2     5    1
    37    22    23    1
    38    22    19    1
    39    22    24    1
    40    19    20    1
    41    78    79    1
    42    78    81    1
    43    15    17   ar
    44    15    16   ar
    45    82    81    1
    46    82    83    1
    47   127   128    1
    48    79    80    2
    49   125   126    2
    50    84    83    1
    51    84    85    1
    52   103   105   ar
    53   103   102   ar
    54   101   102    1
    55     5     6    1
    56    20    26   am
    57    20    21    2
    58    26    27    1
    59   105   107   ar
    60   102   104   ar
    61     6     7    1
    62   128   129   ar
    63   128   130   ar
    64    29    28    2
    65    31    33    1
    66    31    30    1
    67     8     7   ar
    68    30    27    1
    69    30    32    1
    70    27    28    1
    71   107   106   ar
    72     7     9   ar
    73   104   106   ar
    74    28    34   am
    75    34    35    1
    76    76    75    1
    77    35    38    1
    78    35    36    1
    79    75    74    1
    80    40    39   ar
    81    38    39    1
    82    37    36    2
    83    39    41   ar
    84    74    73    1
    85    36    42   am
    86    73    70    1
    87    95    94    1
    88    42    43    1
    89    50    49    1
    90    50    51    1
    91    49    44   am
    92    70    69    1
    93    70    71    1
    94    44    43    1
    95    44    45    2
    96    43    46    1
    97    94    96    1
    98    94    93    2
    99    86    87    1
   100    69    64   am
   101    68    66    1
   102    52    51    2
   103    51    53   am
   104    66    67    1
   105    66    63    1
   106    71    72    2
   107    88    87    1
   108    88    89    2
   109    93    92    1
   110    64    65    2
   111    64    63    1
   112    92    91    1
   113    87    90    1
   114    90    91    1
   115    46    48    1
   116    46    47    1
   117    63    62    1
   118    53    54    1
   119    62    55   am
   120    55    54    1
   121    55    56    2
   122    54    57    1
   123    58    57    1
   124    58    59    1
   125    60    61    1
   126    60    59    1
