@<TRIPOS>MOLECULE
tmp/5brnB00.pdb
 119 116 0 0 0
SMALL
GASTEIGER

@<TRIPOS>ATOM
      1  N        -46.8440   -5.6070   13.5840 N.3   112  GLU112     -0.1231
      2  CA       -46.5610   -6.9740   14.0110 C.3   112  GLU112      0.1699
      3  C        -46.0870   -7.8370   12.8380 C.2   112  GLU112      0.2592
      4  O        -46.3690   -7.5310   11.6790 O.2   112  GLU112     -0.2718
      5  CB       -47.8100   -7.5790   14.6720 C.3   112  GLU112      0.0402
      6  CG       -47.7400   -9.0630   15.0480 C.3   112  GLU112      0.1161
      7  CD       -46.7910   -9.3680   16.2010 C.2   112  GLU112      0.3649
      8  OE1      -45.6440   -8.8710   16.2080 O.co2 112  GLU112     -0.2457
      9  OE2      -47.1970  -10.1230   17.1080 O.co2 112  GLU112     -0.2457
     10  N        -45.3530   -8.9040   13.1420 N.am  113  ASP113     -0.1960
     11  CA       -44.8210   -9.7910   12.1130 C.3   113  ASP113      0.1840
     12  C        -45.8660  -10.7720   11.5710 C.2   113  ASP113      0.2622
     13  O        -46.0210  -10.9030   10.3580 O.2   113  ASP113     -0.2715
     14  CB       -43.6100  -10.5610   12.6530 C.3   113  ASP113      0.1450
     15  CG       -43.9390  -11.3890   13.8830 C.2   113  ASP113      0.3671
     16  OD1      -44.9730  -11.1150   14.5280 O.co2 113  ASP113     -0.2456
     17  OD2      -43.1630  -12.3130   14.2040 O.co2 113  ASP113     -0.2456
     18  N        -46.5830  -11.4550   12.4610 N.am  114  ILE114     -0.1963
     19  CA       -47.5150  -12.4930   12.0300 C.3   114  ILE114      0.1727
     20  C        -48.6500  -12.7230   13.0310 C.2   114  ILE114      0.2616
     21  O        -48.4590  -12.6300   14.2440 O.2   114  ILE114     -0.2715
     22  CB       -46.7700  -13.8310   11.7750 C.3   114  ILE114      0.0290
     23  CG1      -47.6930  -14.8600   11.1150 C.3   114  ILE114      0.0022
     24  CG2      -46.1630  -14.3770   13.0660 C.3   114  ILE114      0.0023
     25  CD1      -46.9700  -16.0850   10.6030 C.3   114  ILE114      0.0001
     26  N        -49.8380  -13.0100   12.5060 N.am  115  ILE115     -0.1963
     27  CA       -50.9960  -13.3200   13.3340 C.3   115  ILE115      0.1727
     28  C        -51.5120  -14.7270   13.0440 C.2   115  ILE115      0.2616
     29  O        -51.7650  -15.0840   11.8920 O.2   115  ILE115     -0.2715
     30  CB       -52.1320  -12.2980   13.1200 C.3   115  ILE115      0.0290
     31  CG1      -51.6860  -10.9120   13.5920 C.3   115  ILE115      0.0022
     32  CG2      -53.4010  -12.7390   13.8410 C.3   115  ILE115      0.0023
     33  CD1      -52.8070   -9.9070   13.6940 C.3   115  ILE115      0.0001
     34  N        -51.6550  -15.5230   14.0990 N.am  116  ASP116     -0.1957
     35  CA       -52.1330  -16.8930   13.9760 C.3   116  ASP116      0.1840
     36  C        -53.4450  -17.0580   14.7390 C.2   116  ASP116      0.2623
     37  O        -54.5260  -16.8960   14.1740 O.2   116  ASP116     -0.2715
     38  CB       -51.0790  -17.8760   14.4970 C.3   116  ASP116      0.1450
     39  CG       -51.3030  -19.2940   14.0050 C.2   116  ASP116      0.3671
     40  OD1      -52.3970  -19.5830   13.4760 O.co2 116  ASP116     -0.2456
     41  OD2      -50.3800  -20.1230   14.1500 O.co2 116  ASP116     -0.2456
     42  N        -53.3420  -17.3680   16.0270 N.am  117  THR117     -0.1937
     43  CA       -54.5200  -17.5260   16.8710 C.3   117  THR117      0.2028
     44  C        -55.1730  -16.1770   17.1580 C.2   117  THR117      0.2643
     45  O        -56.3750  -16.0980   17.4130 O.2   117  THR117     -0.2714
     46  CB       -54.1720  -18.2090   18.2050 C.3   117  THR117      0.1808
     47  OG1      -53.4190  -17.3070   19.0250 O.3   117  THR117     -0.2208
     48  CG2      -53.3600  -19.4720   17.9620 C.3   117  THR117      0.0379
     49  N        -54.3710  -15.1180   17.1150 N.am  118  GLY118     -0.1939
     50  CA       -54.8610  -13.7760   17.3740 C.3   118  GLY118      0.2014
     51  C        -54.8140  -13.4150   18.8460 C.2   118  GLY118      0.2639
     52  O        -55.2150  -12.3200   19.2380 O.2   118  GLY118     -0.2714
     53  N        -54.3200  -14.3420   19.6610 N.am  119  LYS119     -0.1963
     54  CA       -54.2280  -14.1340   21.1010 C.3   119  LYS119      0.1728
     55  C        -53.1750  -13.0840   21.4410 C.2   119  LYS119      0.2617
     56  O        -53.3440  -12.3020   22.3760 O.2   119  LYS119     -0.2715
     57  CB       -53.9180  -15.4450   21.8070 C.3   119  LYS119      0.0311
     58  CG       -54.1850  -15.4280   23.2940 C.3   119  LYS119      0.0038
     59  CD       -55.6480  -15.0850   23.5490 C.3   119  LYS119      0.0206
     60  CE       -56.0500  -15.3720   24.9790 C.3   119  LYS119      0.1093
     61  NZ       -55.2310  -14.5880   25.9410 N.3   119  LYS119     -0.1314
     62  N        -52.0870  -13.0790   20.6760 N.am  120  THR120     -0.1937
     63  CA       -51.0220  -12.1000   20.8570 C.3   120  THR120      0.2028
     64  C        -51.5420  -10.6870   20.6220 C.2   120  THR120      0.2642
     65  O        -51.2370   -9.7640   21.3790 O.2   120  THR120     -0.2714
     66  CB       -49.8410  -12.3680   19.9020 C.3   120  THR120      0.1808
     67  OG1      -49.3240  -13.6850   20.1320 O.3   120  THR120     -0.2208
     68  CG2      -48.7330  -11.3500   20.1130 C.3   120  THR120      0.0379
     69  N        -52.3430  -10.5290   19.5730 N.am  121  MET121     -0.1976
     70  CA       -52.8420   -9.2170   19.1900 C.3   121  MET121      0.1605
     71  C        -53.9860   -8.7590   20.0870 C.2   121  MET121      0.2287
     72  O        -54.1130   -7.5710   20.3780 O.2   121  MET121     -0.2864
     73  CB       -53.2880   -9.2190   17.7280 C.3   121  MET121      0.0413
     74  CG       -53.6200   -7.8370   17.1960 C.3   121  MET121      0.0598
     75  SD       -52.3820   -6.6070   17.6540 S.3   121  MET121     -0.1393
     76  CE       -50.9240   -7.2600   16.8430 C.3   121  MET121      0.0692
     77  N        -52.1750  -15.8760    8.9330 N.3   144  LYS144     -0.1245
     78  CA       -52.3870  -17.2720    8.5790 C.3   144  LYS144      0.1561
     79  C        -53.8650  -17.5960    8.4240 C.2   144  LYS144      0.2260
     80  O        -54.7080  -17.0760    9.1560 O.2   144  LYS144     -0.2867
     81  CB       -51.7660  -18.1970    9.6280 C.3   144  LYS144      0.0271
     82  CG       -50.2480  -18.2120    9.6280 C.3   144  LYS144      0.0035
     83  CD       -49.7160  -19.3480   10.4870 C.3   144  LYS144      0.0206
     84  CE       -48.2110  -19.4890   10.3470 C.3   144  LYS144      0.1093
     85  NZ       -47.6840  -20.6510   11.1130 N.3   144  LYS144     -0.1314
     86  N        -45.4260  -23.2120    8.9250 N.3   163  PHE163     -0.1227
     87  CA       -44.4400  -22.4560    9.6900 C.3   163  PHE163      0.1736
     88  C        -43.3840  -21.8480    8.7740 C.2   163  PHE163      0.2595
     89  O        -42.6580  -22.5650    8.0860 O.2   163  PHE163     -0.2718
     90  CB       -43.7760  -23.3430   10.7450 C.3   163  PHE163      0.0547
     91  CG       -42.9970  -22.5750   11.7760 C.ar  163  PHE163     -0.0202
     92  CD1      -41.6610  -22.2690   11.5730 C.ar  163  PHE163     -0.0042
     93  CD2      -43.6030  -22.1580   12.9510 C.ar  163  PHE163     -0.0042
     94  CE1      -40.9450  -21.5620   12.5200 C.ar  163  PHE163     -0.0003
     95  CE2      -42.8910  -21.4520   13.9030 C.ar  163  PHE163     -0.0003
     96  CZ       -41.5600  -21.1550   13.6870 C.ar  163  PHE163     -0.0000
     97  N        -43.3020  -20.5210    8.7730 N.am  164  VAL164     -0.1980
     98  CA       -42.3550  -19.8150    7.9200 C.3   164  VAL164      0.1595
     99  C        -41.3150  -19.0570    8.7430 C.2   164  VAL164      0.2287
    100  O        -41.5550  -18.7030    9.8970 O.2   164  VAL164     -0.2864
    101  CB       -43.0750  -18.8290    6.9780 C.3   164  VAL164      0.0276
    102  CG1      -44.1190  -19.5620    6.1470 C.3   164  VAL164      0.0022
    103  CG2      -43.7200  -17.7050    7.7740 C.3   164  VAL164      0.0022
    104  N        -38.7320  -12.9140   11.2940 N.3   169  LEU169     -0.1231
    105  CA       -39.4830  -14.0250   11.8790 C.3   169  LEU169      0.1693
    106  C        -38.5310  -15.1840   12.1480 C.2   169  LEU169      0.2592
    107  O        -37.6290  -15.4470   11.3530 O.2   169  LEU169     -0.2718
    108  CB       -40.6290  -14.4750   10.9700 C.3   169  LEU169      0.0284
    109  CG       -41.8650  -13.5740   10.8930 C.3   169  LEU169      0.0019
    110  CD1      -41.6880  -12.4830    9.8460 C.3   169  LEU169      0.0001
    111  CD2      -43.1150  -14.3990   10.6160 C.3   169  LEU169      0.0001
    112  N        -38.7300  -15.8800   13.2620 N.am  170  ASP170     -0.1974
    113  CA       -37.7330  -16.8410   13.7160 C.3   170  ASP170      0.1709
    114  C        -38.2320  -18.2650   13.9080 C.2   170  ASP170      0.2293
    115  O        -39.4320  -18.5400   13.8950 O.2   170  ASP170     -0.2864
    116  CB       -37.1260  -16.3760   15.0390 C.3   170  ASP170      0.1436
    117  CG       -38.0190  -16.6790   16.2280 C.2   170  ASP170      0.3671
    118  OD1      -38.9710  -15.9090   16.4700 O.co2 170  ASP170     -0.2456
    119  OD2      -37.7670  -17.6880   16.9220 O.co2 170  ASP170     -0.2456
@<TRIPOS>BOND
     1   102   101    1
     2   101   103    1
     3   101    98    1
     4    98    99    1
     5    98    97    1
     6    89    88    2
     7    79    78    1
     8    79    80    2
     9    78    77    1
    10    78    81    1
    11    99   100    2
    12    97    88   am
    13    88    87    1
    14    86    87    1
    15    81    82    1
    16    82    83    1
    17    87    90    1
    18   110   109    1
    19    84    83    1
    20    84    85    1
    21    13    12    2
    22    25    23    1
    23   111   109    1
    24    90    91    1
    25   109   108    1
    26   108   105    1
    27    23    22    1
    28   104   105    1
    29   107   106    2
    30    12    11    1
    31    12    18   am
    32    92    91   ar
    33    92    94   ar
    34     4     3    2
    35    22    19    1
    36    22    24    1
    37    91    93   ar
    38   105   106    1
    39    29    28    2
    40    19    18    1
    41    19    20    1
    42    11    14    1
    43    11    10    1
    44   106   112   am
    45    26    20   am
    46    26    27    1
    47    94    96   ar
    48    14    15    1
    49     3    10   am
    50     3     2    1
    51    93    95   ar
    52    20    21    2
    53    28    27    1
    54    28    34   am
    55    30    27    1
    56    30    31    1
    57    30    32    1
    58   112   113    1
    59    40    39   ar
    60     1     2    1
    61    31    33    1
    62    96    95   ar
    63   113   114    1
    64   113   116    1
    65    15    17   ar
    66    15    16   ar
    67   115   114    2
    68    35    34    1
    69    35    38    1
    70    35    36    1
    71    39    41   ar
    72    39    38    1
    73     2     5    1
    74    37    36    2
    75     5     6    1
    76    36    42   am
    77   116   117    1
    78     6     7    1
    79    42    43    1
    80     7     8   ar
    81     7     9   ar
    82   117   118   ar
    83   117   119   ar
    84    76    75    1
    85    43    44    1
    86    43    46    1
    87    49    44   am
    88    49    50    1
    89    44    45    2
    90    74    75    1
    91    74    73    1
    92    50    51    1
    93    73    70    1
    94    48    46    1
    95    46    47    1
    96    51    52    2
    97    51    53   am
    98    70    69    1
    99    70    71    1
   100    69    64   am
   101    53    54    1
   102    66    68    1
   103    66    67    1
   104    66    63    1
   105    71    72    2
   106    64    63    1
   107    64    65    2
   108    62    63    1
   109    62    55   am
   110    54    55    1
   111    54    57    1
   112    55    56    2
   113    57    58    1
   114    58    59    1
   115    59    60    1
   116    60    61    1
