@<TRIPOS>MOLECULE
tmp/5brpC00.pdb
 176 168 0 0 0
SMALL
GASTEIGER

@<TRIPOS>ATOM
      1  N         82.0010  -61.2430  -67.3980 N.3    58  ASP58      -0.1225
      2  CA        81.2420  -61.4990  -66.1780 C.3    58  ASP58       0.1805
      3  C         80.9750  -62.9810  -65.9390 C.2    58  ASP58       0.2597
      4  O         79.8210  -63.4060  -65.8600 O.2    58  ASP58      -0.2718
      5  CB        79.9290  -60.7220  -66.2010 C.3    58  ASP58       0.1424
      6  CG        80.1460  -59.2360  -66.1000 C.2    58  ASP58       0.3668
      7  OD1       80.4660  -58.7570  -64.9850 O.co2  58  ASP58      -0.2456
      8  OD2       80.0160  -58.5580  -67.1400 O.co2  58  ASP58      -0.2456
      9  N         82.0490  -63.7590  -65.8400 N.am   59  ASN59      -0.1974
     10  CA        81.9730  -65.1700  -65.4630 C.3    59  ASN59       0.1688
     11  C         80.9810  -66.0060  -66.2890 C.2    59  ASN59       0.2292
     12  O         80.3940  -66.9720  -65.7890 O.2    59  ASN59      -0.2864
     13  CB        81.6910  -65.2980  -63.9540 C.3    59  ASN59       0.1181
     14  CG        82.1430  -66.6360  -63.3800 C.2    59  ASN59       0.2629
     15  OD1       83.0170  -67.3070  -63.9390 O.2    59  ASN59      -0.2716
     16  ND2       81.5420  -67.0320  -62.2610 N.am   59  ASN59      -0.0877
     17  N         78.1180  -65.1530  -67.5760 N.3    61  TYR61      -0.1241
     18  CA        76.7470  -64.6410  -67.5770 C.3    61  TYR61       0.1605
     19  C         76.5620  -63.4980  -68.5720 C.2    61  TYR61       0.2264
     20  O         75.4680  -62.9420  -68.6960 O.2    61  TYR61      -0.2867
     21  CB        76.3330  -64.2310  -66.1590 C.3    61  TYR61       0.0534
     22  CG        76.2810  -65.4260  -65.2520 C.ar   61  TYR61      -0.0201
     23  CD1       77.4260  -65.8830  -64.5990 C.ar   61  TYR61      -0.0009
     24  CD2       75.1020  -66.1370  -65.0870 C.ar   61  TYR61      -0.0009
     25  CE1       77.3800  -66.9940  -63.7800 C.ar   61  TYR61       0.0417
     26  CE2       75.0490  -67.2560  -64.2690 C.ar   61  TYR61       0.0417
     27  CZ        76.1890  -67.6800  -63.6250 C.ar   61  TYR61       0.1957
     28  OH        76.1320  -68.7920  -62.8130 O.3    61  TYR61      -0.2866
     29  N         69.5490  -60.4330  -69.9480 N.3   101  HIS101     -0.1241
     30  CA        70.5290  -59.5720  -70.6180 C.3   101  HIS101      0.1621
     31  C         71.4750  -60.4100  -71.4780 C.2   101  HIS101      0.2264
     32  O         71.6360  -61.6060  -71.2310 O.2   101  HIS101     -0.2867
     33  CB        71.3540  -58.8400  -69.5620 C.3   101  HIS101      0.0745
     34  CG        71.8570  -59.7370  -68.4740 C.ar  101  HIS101      0.0817
     35  ND1       71.1450  -59.9750  -67.3160 N.ar  101  HIS101     -0.2268
     36  CD2       72.9860  -60.4820  -68.3800 C.ar  101  HIS101      0.1154
     37  CE1       71.8200  -60.8160  -66.5510 C.ar  101  HIS101      0.1986
     38  NE2       72.9390  -61.1410  -67.1740 N.ar  101  HIS101     -0.2212
     39  N         73.4650  -53.4250  -59.8380 N.3   142  LYS142     -0.1231
     40  CA        73.7510  -54.2570  -58.6770 C.3   142  LYS142      0.1693
     41  C         75.2630  -54.3860  -58.4710 C.2   142  LYS142      0.2592
     42  O         75.7270  -54.9620  -57.4850 O.2   142  LYS142     -0.2718
     43  CB        73.0950  -55.6270  -58.8550 C.3   142  LYS142      0.0285
     44  CG        71.6540  -55.5280  -59.3270 C.3   142  LYS142      0.0035
     45  CD        70.8310  -56.7030  -58.8570 C.3   142  LYS142      0.0206
     46  CE        69.3450  -56.4170  -58.9950 C.3   142  LYS142      0.1093
     47  NZ        68.8930  -55.4570  -57.9550 N.3   142  LYS142     -0.1314
     48  N         76.0220  -53.8450  -59.4190 N.am  143  PHE143     -0.1976
     49  CA        77.4750  -53.7780  -59.3220 C.3   143  PHE143      0.1639
     50  C         77.9430  -52.4230  -58.7800 C.2   143  PHE143      0.2290
     51  O         79.1440  -52.1480  -58.7390 O.2   143  PHE143     -0.2864
     52  CB        78.0980  -54.0330  -60.6970 C.3   143  PHE143      0.0560
     53  CG        78.1510  -55.4850  -61.0760 C.ar  143  PHE143     -0.0200
     54  CD1       77.0000  -56.1600  -61.4600 C.ar  143  PHE143     -0.0042
     55  CD2       79.3530  -56.1780  -61.0420 C.ar  143  PHE143     -0.0042
     56  CE1       77.0460  -57.5060  -61.8020 C.ar  143  PHE143     -0.0003
     57  CE2       79.4110  -57.5210  -61.3850 C.ar  143  PHE143     -0.0003
     58  CZ        78.2560  -58.1860  -61.7670 C.ar  143  PHE143     -0.0000
     59  N         73.0220  -55.2140  -64.3080 N.3   162  TYR162     -0.1241
     60  CA        74.2240  -55.8200  -63.7390 C.3   162  TYR162      0.1605
     61  C         75.4950  -55.1320  -64.2430 C.2   162  TYR162      0.2264
     62  O         75.6910  -53.9460  -63.9680 O.2   162  TYR162     -0.2867
     63  CB        74.2080  -57.3500  -63.9240 C.3   162  TYR162      0.0534
     64  CG        73.0240  -57.9620  -63.2050 C.ar  162  TYR162     -0.0201
     65  CD1       71.7910  -58.0820  -63.8340 C.ar  162  TYR162     -0.0009
     66  CD2       73.1280  -58.3690  -61.8780 C.ar  162  TYR162     -0.0009
     67  CE1       70.6990  -58.6040  -63.1670 C.ar  162  TYR162      0.0417
     68  CE2       72.0460  -58.8990  -61.2070 C.ar  162  TYR162      0.0417
     69  CZ        70.8350  -59.0120  -61.8540 C.ar  162  TYR162      0.1957
     70  OH        69.7570  -59.5380  -61.1880 O.3   162  TYR162     -0.2866
     71  N         76.7740  -56.1070  -69.6480 N.3   166  GLN166     -0.1245
     72  CA        75.5650  -56.9390  -69.7120 C.3   166  GLN166      0.1566
     73  C         74.3410  -56.0580  -69.9520 C.2   166  GLN166      0.2260
     74  O         73.7940  -55.4740  -69.0180 O.2   166  GLN166     -0.2867
     75  CB        75.3800  -57.7770  -68.4310 C.3   166  GLN166      0.0367
     76  CG        76.4130  -58.8910  -68.2330 C.3   166  GLN166      0.0905
     77  CD        76.4580  -59.4400  -66.8070 C.2   166  GLN166      0.2608
     78  OE1       76.7450  -58.7080  -65.8580 O.2   166  GLN166     -0.2717
     79  NE2       76.1950  -60.7420  -66.6570 N.am  166  GLN166     -0.0878
     80  N         68.1090  -67.7050  -65.1020 N.3   198  ASP198     -0.1225
     81  CA        68.9460  -66.7650  -64.3770 C.3   198  ASP198      0.1805
     82  C         68.2360  -65.4290  -64.1700 C.2   198  ASP198      0.2597
     83  O         67.7870  -64.8000  -65.1390 O.2   198  ASP198     -0.2718
     84  CB        70.2530  -66.5740  -65.1340 C.3   198  ASP198      0.1424
     85  CG        71.2410  -65.7280  -64.3710 C.2   198  ASP198      0.3668
     86  OD1       71.7710  -66.2220  -63.3540 O.co2 198  ASP198     -0.2456
     87  OD2       71.4930  -64.5740  -64.7930 O.co2 198  ASP198     -0.2456
     88  N         68.1490  -65.0060  -62.9050 N.am  199  VAL199     -0.1980
     89  CA        67.4450  -63.7750  -62.4850 C.3   199  VAL199      0.1595
     90  C         66.2140  -63.4330  -63.3360 C.2   199  VAL199      0.2287
     91  O         66.0370  -62.3000  -63.7760 O.2   199  VAL199     -0.2864
     92  CB        68.4010  -62.5560  -62.3370 C.3   199  VAL199      0.0276
     93  CG1       69.3760  -62.8020  -61.2050 C.3   199  VAL199      0.0022
     94  CG2       69.1620  -62.2880  -63.6230 C.3   199  VAL199      0.0022
     95  N         65.7280  -68.6660  -60.7600 N.3   249  GLU249     -0.1245
     96  CA        66.5560  -67.9590  -59.7980 C.3   249  GLU249      0.1567
     97  C         65.9470  -66.5780  -59.6050 C.2   249  GLU249      0.2260
     98  O         65.8830  -65.7810  -60.5410 O.2   249  GLU249     -0.2867
     99  CB        67.9860  -67.8300  -60.3020 C.3   249  GLU249      0.0388
    100  CG        68.8990  -67.0780  -59.3510 C.3   249  GLU249      0.1160
    101  CD        70.2980  -66.9270  -59.9080 C.2   249  GLU249      0.3649
    102  OE1       71.2180  -67.6070  -59.3920 O.co2 249  GLU249     -0.2457
    103  OE2       70.4670  -66.1380  -60.8720 O.co2 249  GLU249     -0.2457
    104  N         65.6560  -62.8480  -57.7240 N.3   251  SER251     -0.1217
    105  CA        66.3600  -61.7840  -56.9980 C.3   251  SER251      0.1889
    106  C         65.3870  -61.0120  -56.0980 C.2   251  SER251      0.2288
    107  O         64.3160  -60.6180  -56.5590 O.2   251  SER251     -0.2866
    108  CB        67.0120  -60.8160  -57.9980 C.3   251  SER251      0.2089
    109  OG        67.3040  -59.5610  -57.4030 O.3   251  SER251     -0.2183
    110  N         67.5170  -66.4500  -51.8430 N.3   275  PHE275     -0.1241
    111  CA        68.7870  -66.3750  -51.1200 C.3   275  PHE275      0.1605
    112  C         68.7070  -65.7810  -49.7090 C.2   275  PHE275      0.2264
    113  O         69.7470  -65.4590  -49.1240 O.2   275  PHE275     -0.2867
    114  CB        69.8340  -65.6200  -51.9470 C.3   275  PHE275      0.0534
    115  CG        70.3680  -66.4020  -53.1180 C.ar  275  PHE275     -0.0203
    116  CD1       69.6410  -66.5010  -54.2920 C.ar  275  PHE275     -0.0042
    117  CD2       71.6050  -67.0310  -53.0450 C.ar  275  PHE275     -0.0042
    118  CE1       70.1400  -67.2150  -55.3790 C.ar  275  PHE275     -0.0003
    119  CE2       72.1070  -67.7520  -54.1270 C.ar  275  PHE275     -0.0003
    120  CZ        71.3710  -67.8410  -55.2950 C.ar  275  PHE275     -0.0000
    121  N         76.4720  -72.1600  -53.8280 N.3   322  ASN322     -0.1225
    122  CA        76.7820  -72.1230  -55.2580 C.3   322  ASN322      0.1785
    123  C         78.1420  -71.4870  -55.4730 C.2   322  ASN322      0.2597
    124  O         78.9290  -71.3380  -54.5260 O.2   322  ASN322     -0.2718
    125  CB        75.6980  -71.4290  -56.0930 C.3   322  ASN322      0.1169
    126  CG        75.5380  -69.9550  -55.7510 C.2   322  ASN322      0.2627
    127  OD1       76.3600  -69.3610  -55.0380 O.2   322  ASN322     -0.2716
    128  ND2       74.4720  -69.3510  -56.2700 N.am  322  ASN322     -0.0877
    129  N         78.4170  -71.0990  -56.7090 N.am  323  HIS323     -0.1961
    130  CA        79.7450  -70.6110  -57.0650 C.3   323  HIS323      0.1787
    131  C         79.9710  -69.1590  -56.6440 C.2   323  HIS323      0.2620
    132  O         81.0610  -68.6230  -56.8550 O.2   323  HIS323     -0.2715
    133  CB        79.9590  -70.7520  -58.5690 C.3   323  HIS323      0.0785
    134  CG        78.9330  -70.0320  -59.3780 C.ar  323  HIS323      0.0821
    135  ND1       79.0070  -68.6780  -59.6340 N.ar  323  HIS323     -0.2267
    136  CD2       77.7880  -70.4650  -59.9580 C.ar  323  HIS323      0.1154
    137  CE1       77.9630  -68.3130  -60.3570 C.ar  323  HIS323      0.1986
    138  NE2       77.2090  -69.3780  -60.5690 N.ar  323  HIS323     -0.2212
    139  N         78.9440  -68.5390  -56.0560 N.am  324  ASP324     -0.1971
    140  CA        79.0110  -67.1590  -55.5570 C.3   324  ASP324      0.1709
    141  C         79.0240  -67.0860  -54.0300 C.2   324  ASP324      0.2293
    142  O         79.1630  -66.0040  -53.4550 O.2   324  ASP324     -0.2864
    143  CB        77.8040  -66.3580  -56.0610 C.3   324  ASP324      0.1436
    144  CG        77.8470  -66.1120  -57.5560 C.2   324  ASP324      0.3671
    145  OD1       78.9450  -66.2430  -58.1440 O.co2 324  ASP324     -0.2456
    146  OD2       76.7860  -65.7770  -58.1370 O.co2 324  ASP324     -0.2456
    147  N         89.0100  -63.3800  -58.6380 N.3   380  ASP380     -0.1239
    148  CA        87.8170  -62.5740  -58.8920 C.3   380  ASP380      0.1674
    149  C         88.0560  -61.0720  -58.7360 C.2   380  ASP380      0.2266
    150  O         88.3800  -60.6090  -57.6380 O.2   380  ASP380     -0.2867
    151  CB        86.6880  -62.9840  -57.9580 C.3   380  ASP380      0.1410
    152  CG        85.4310  -62.1660  -58.1840 C.2   380  ASP380      0.3668
    153  OD1       84.7720  -62.3580  -59.2340 O.co2 380  ASP380     -0.2456
    154  OD2       85.1010  -61.3310  -57.3150 O.co2 380  ASP380     -0.2456
    155  N         84.3130  -64.2990  -53.4660 N.3   409  ARG409     -0.1245
    156  CA        83.5860  -65.1800  -54.3770 C.3   409  ARG409      0.1563
    157  C         84.4650  -66.2820  -54.9850 C.2   409  ARG409      0.2260
    158  O         83.9550  -67.1690  -55.6780 O.2   409  ARG409     -0.2867
    159  CB        82.9420  -64.3660  -55.5030 C.3   409  ARG409      0.0307
    160  CG        81.8860  -63.3720  -55.0620 C.3   409  ARG409      0.0489
    161  CD        81.6410  -62.3690  -56.1920 C.3   409  ARG409      0.2205
    162  NE        80.5220  -61.4700  -55.9220 N.pl3 409  ARG409     -0.0865
    163  CZ        79.2620  -61.7210  -56.2630 C.cat 409  ARG409      0.5346
    164  NH1       78.9540  -62.8500  -56.8930 N.pl3 409  ARG409      0.1354
    165  NH2       78.3060  -60.8450  -55.9710 N.pl3 409  ARG409      0.1354
    166  N         85.1080  -71.6690  -55.6170 N.3   413  ARG413     -0.1245
    167  CA        85.5190  -71.8580  -57.0130 C.3   413  ARG413      0.1563
    168  C         86.8290  -72.6210  -57.1910 C.2   413  ARG413      0.2260
    169  O         87.2800  -72.8310  -58.3240 O.2   413  ARG413     -0.2867
    170  CB        85.6310  -70.5040  -57.7280 C.3   413  ARG413      0.0307
    171  CG        84.3020  -69.8210  -57.9140 C.3   413  ARG413      0.0489
    172  CD        84.4070  -68.5360  -58.7260 C.3   413  ARG413      0.2205
    173  NE        83.1630  -67.7800  -58.5940 N.pl3 413  ARG413     -0.0865
    174  CZ        82.9950  -66.5200  -58.9860 C.cat 413  ARG413      0.5346
    175  NH1       83.9970  -65.8600  -59.5540 N.pl3 413  ARG413      0.1354
    176  NH2       81.8210  -65.9230  -58.7990 N.pl3 413  ARG413      0.1354
@<TRIPOS>BOND
     1    31    32    2
     2    31    30    1
     3    30    29    1
     4    30    33    1
     5    73    72    1
     6    73    74    2
     7    72    71    1
     8    72    75    1
     9    33    34    1
    10    20    19    2
    11    19    18    1
    12    34    36   ar
    13    34    35   ar
    14    75    76    1
    15    36    38   ar
    16    76    77    1
    17    18    17    1
    18    18    21    1
    19     1     2    1
    20    35    37   ar
    21    38    37   ar
    22     8     6   ar
    23    77    79   am
    24    77    78    2
    25    11    12    2
    26    11    10    1
    27     5     2    1
    28     5     6    1
    29     2     3    1
    30    21    22    1
    31     6     7   ar
    32     3     4    2
    33     3     9   am
    34     9    10    1
    35    10    13    1
    36    22    24   ar
    37    22    23   ar
    38    83    82    2
    39    84    81    1
    40    84    85    1
    41    80    81    1
    42    24    26   ar
    43    87    85   ar
    44    23    25   ar
    45    81    82    1
    46    85    86   ar
    47    59    60    1
    48    26    27   ar
    49    61    62    2
    50    61    60    1
    51    82    88   am
    52    13    14    1
    53    15    14    2
    54    63    60    1
    55    63    64    1
    56    65    64   ar
    57    65    67   ar
    58    25    27   ar
    59    91    90    2
    60    27    28    1
    61    94    92    1
    62    14    16   am
    63    90    89    1
    64    64    66   ar
    65    67    69   ar
    66    88    89    1
    67    89    92    1
    68    92    93    1
    69    66    68   ar
    70    69    68   ar
    71    69    70    1
    72    56    58   ar
    73    56    54   ar
    74    58    57   ar
    75    54    53   ar
    76    57    55   ar
    77    53    55   ar
    78    53    52    1
    79   103   101   ar
    80    95    96    1
    81    52    49    1
    82   138   137   ar
    83   138   136   ar
    84    98    97    2
    85   137   135   ar
    86    99    96    1
    87    99   100    1
    88   136   134   ar
    89   101   102   ar
    90   101   100    1
    91    39    40    1
    92    96    97    1
    93   135   134   ar
    94   175   174    1
    95    48    49    1
    96    48    41   am
    97   134   133    1
    98    44    45    1
    99    44    43    1
   100    49    50    1
   101   153   152   ar
   102    46    45    1
   103    46    47    1
   104   174   176    1
   105   174   173    2
   106   148   149    1
   107   148   147    1
   108   148   151    1
   109    43    40    1
   110    50    51    2
   111   149   150    2
   112   172   173    1
   113   172   171    1
   114    40    41    1
   115   133   130    1
   116    41    42    2
   117   169   168    2
   118   152   151    1
   119   152   154   ar
   120   145   144   ar
   121   146   144   ar
   122   108   109    1
   123   108   105    1
   124   171   170    1
   125   170   167    1
   126   104   105    1
   127   144   143    1
   128   168   167    1
   129   130   129    1
   130   130   131    1
   131   167   166    1
   132   105   106    1
   133   164   163    1
   134   132   131    2
   135   129   123   am
   136   131   139   am
   137   107   106    2
   138   128   126   am
   139   163   165    1
   140   163   162    2
   141   161   162    1
   142   161   160    1
   143   125   126    1
   144   125   122    1
   145   143   140    1
   146   139   140    1
   147   126   127    2
   148   158   157    2
   149   140   141    1
   150   159   160    1
   151   159   156    1
   152   123   122    1
   153   123   124    2
   154   118   120   ar
   155   118   116   ar
   156   120   119   ar
   157   122   121    1
   158   157   156    1
   159   156   155    1
   160   116   115   ar
   161   119   117   ar
   162   141   142    2
   163   115   117   ar
   164   115   114    1
   165   114   111    1
   166   110   111    1
   167   111   112    1
   168   112   113    2
