@<TRIPOS>MOLECULE
tmp/5brtB01.pdb
 132 130 0 0 0
SMALL
GASTEIGER

@<TRIPOS>ATOM
      1  N         63.6610  -22.6520   -9.1930 N.3    44  HIS44      -0.1226
      2  CA        64.5490  -21.5880   -8.7170 C.3    44  HIS44       0.1752
      3  C         63.8460  -20.5240   -7.8650 C.2    44  HIS44       0.2595
      4  O         64.5050  -19.7780   -7.1410 O.2    44  HIS44      -0.2718
      5  CB        65.2500  -20.9270   -9.9100 C.3    44  HIS44       0.0759
      6  CG        64.3030  -20.3550  -10.9200 C.ar   44  HIS44       0.0818
      7  ND1       64.1090  -19.0000  -11.0780 N.ar   44  HIS44      -0.2268
      8  CD2       63.4690  -20.9570  -11.8040 C.ar   44  HIS44       0.1154
      9  CE1       63.2080  -18.7910  -12.0230 C.ar   44  HIS44       0.1986
     10  NE2       62.8030  -19.9620  -12.4790 N.ar   44  HIS44      -0.2212
     11  N         62.5210  -20.4330   -7.9510 N.am   45  ILE45      -0.1980
     12  CA        61.8160  -19.4370   -7.1490 C.3    45  ILE45       0.1595
     13  C         61.6110  -19.9730   -5.7370 C.2    45  ILE45       0.2287
     14  O         60.9370  -20.9870   -5.5330 O.2    45  ILE45      -0.2864
     15  CB        60.4400  -19.0560   -7.7450 C.3    45  ILE45       0.0276
     16  CG1       60.5620  -18.6360   -9.2140 C.3    45  ILE45       0.0022
     17  CG2       59.7890  -17.9520   -6.9030 C.3    45  ILE45       0.0022
     18  CD1       61.3270  -17.3610   -9.4350 C.3    45  ILE45       0.0001
     19  N         57.2590  -11.1380   -9.4970 N.3    93  TRP93      -0.1241
     20  CA        57.7160  -11.4680   -8.1470 C.3    93  TRP93       0.1605
     21  C         57.4490  -10.3720   -7.1230 C.2    93  TRP93       0.2264
     22  O         58.3070  -10.0300   -6.3040 O.2    93  TRP93      -0.2867
     23  CB        59.1700  -11.9570   -8.1980 C.3    93  TRP93       0.0550
     24  CG        59.2320  -12.9930   -9.2590 C.ar   93  TRP93       0.0003
     25  CD1       59.9150  -12.9300  -10.4350 C.ar   93  TRP93       0.0946
     26  CD2       58.4810  -14.2150   -9.2920 C.ar   93  TRP93       0.0152
     27  NE1       59.6720  -14.0610  -11.1840 N.ar   93  TRP93      -0.2442
     28  CE2       58.7890  -14.8600  -10.5060 C.ar   93  TRP93       0.0810
     29  CE3       57.5940  -14.8370   -8.4010 C.ar   93  TRP93       0.0012
     30  CZ2       58.2460  -16.1010  -10.8540 C.ar   93  TRP93       0.0191
     31  CZ3       57.0440  -16.0650   -8.7550 C.ar   93  TRP93       0.0001
     32  CH2       57.3750  -16.6810   -9.9730 C.ar   93  TRP93       0.0015
     33  N         59.0490  -29.6360  -22.1890 N.3   195  SER195     -0.1217
     34  CA        59.8210  -28.4400  -22.4780 C.3   195  SER195      0.1889
     35  C         61.3010  -28.7970  -22.4970 C.2   195  SER195      0.2288
     36  O         61.7440  -29.6790  -21.7680 O.2   195  SER195     -0.2866
     37  CB        59.5670  -27.3740  -21.4220 C.3   195  SER195      0.2089
     38  OG        60.3640  -27.6170  -20.2780 O.3   195  SER195     -0.2183
     39  N         63.4420  -13.2100  -15.4660 N.3   214  MET214     -0.1245
     40  CA        63.2990  -13.8390  -16.7760 C.3   214  MET214      0.1570
     41  C         63.0110  -12.8550  -17.9190 C.2   214  MET214      0.2261
     42  O         62.5990  -11.7200  -17.7020 O.2   214  MET214     -0.2867
     43  CB        62.2270  -14.9390  -16.7300 C.3   214  MET214      0.0387
     44  CG        62.4890  -16.0340  -15.6970 C.3   214  MET214      0.0595
     45  SD        61.1790  -17.2570  -15.5960 S.3   214  MET214     -0.1393
     46  CE        61.3070  -17.9310  -17.2370 C.3   214  MET214      0.0692
     47  N         60.8840  -13.1380  -21.5860 N.3   216  TRP216     -0.1241
     48  CA        60.0730  -14.0060  -22.4450 C.3   216  TRP216      0.1605
     49  C         59.9920  -13.5150  -23.8620 C.2   216  TRP216      0.2264
     50  O         59.5650  -12.3970  -24.1150 O.2   216  TRP216     -0.2867
     51  CB        58.6480  -14.1950  -21.9230 C.3   216  TRP216      0.0550
     52  CG        58.5420  -15.2650  -20.9270 C.ar  216  TRP216      0.0003
     53  CD1       59.3350  -15.4610  -19.8350 C.ar  216  TRP216      0.0946
     54  CD2       57.5710  -16.3000  -20.9130 C.ar  216  TRP216      0.0152
     55  NE1       58.9140  -16.5630  -19.1380 N.ar  216  TRP216     -0.2442
     56  CE2       57.8280  -17.0950  -19.7810 C.ar  216  TRP216      0.0810
     57  CE3       56.5060  -16.6380  -21.7530 C.ar  216  TRP216      0.0012
     58  CZ2       57.0620  -18.1950  -19.4720 C.ar  216  TRP216      0.0191
     59  CZ3       55.7480  -17.7270  -21.4450 C.ar  216  TRP216      0.0001
     60  CH2       56.0150  -18.4870  -20.3110 C.ar  216  TRP216      0.0015
     61  N         61.6810  -18.7590  -23.0660 N.3   221  ALA221     -0.1245
     62  CA        62.0770  -18.0620  -21.8470 C.3   221  ALA221      0.1562
     63  C         63.5910  -17.9920  -21.6730 C.2   221  ALA221      0.2260
     64  O         64.2950  -19.0020  -21.8050 O.2   221  ALA221     -0.2867
     65  CB        61.4460  -18.7090  -20.6440 C.3   221  ALA221      0.0290
     66  N         65.8520  -17.3210  -18.8070 N.3   223  ARG223     -0.1245
     67  CA        65.8020  -17.2720  -17.3510 C.3   223  ARG223      0.1563
     68  C         67.1960  -17.1610  -16.7610 C.2   223  ARG223      0.2260
     69  O         68.1180  -17.8720  -17.1730 O.2   223  ARG223     -0.2867
     70  CB        65.0890  -18.5230  -16.8250 C.3   223  ARG223      0.0307
     71  CG        65.4460  -18.9270  -15.4030 C.3   223  ARG223      0.0489
     72  CD        65.0400  -20.3710  -15.1550 C.3   223  ARG223      0.2205
     73  NE        65.6980  -20.9470  -13.9860 N.pl3 223  ARG223     -0.0865
     74  CZ        65.7230  -22.2480  -13.7100 C.cat 223  ARG223      0.5346
     75  NH1       65.1260  -23.1160  -14.5170 N.pl3 223  ARG223      0.1354
     76  NH2       66.3370  -22.6850  -12.6220 N.pl3 223  ARG223      0.1354
     77  N         64.4930  -21.7720  -22.2320 N.3   234  VAL234     -0.1231
     78  CA        63.4490  -22.7840  -22.1110 C.3   234  VAL234      0.1692
     79  C         62.3390  -22.5000  -23.1170 C.2   234  VAL234      0.2592
     80  O         61.9940  -21.3380  -23.3330 O.2   234  VAL234     -0.2718
     81  CB        62.8210  -22.7600  -20.7060 C.3   234  VAL234      0.0266
     82  CG1       61.7780  -23.8590  -20.5690 C.3   234  VAL234      0.0020
     83  CG2       63.8920  -22.8850  -19.6300 C.3   234  VAL234      0.0020
     84  N         61.7830  -23.5470  -23.7250 N.am  235  TRP235     -0.1976
     85  CA        60.6000  -23.3990  -24.5770 C.3   235  TRP235      0.1640
     86  C         59.7200  -24.6580  -24.5970 C.2   235  TRP235      0.2290
     87  O         60.1350  -25.7170  -24.1350 O.2   235  TRP235     -0.2864
     88  CB        60.9730  -22.9460  -25.9960 C.3   235  TRP235      0.0576
     89  CG        61.7710  -23.9220  -26.8250 C.ar  235  TRP235      0.0006
     90  CD1       61.2760  -24.8900  -27.6510 C.ar  235  TRP235      0.0946
     91  CD2       63.2020  -23.9790  -26.9540 C.ar  235  TRP235      0.0152
     92  NE1       62.3080  -25.5610  -28.2690 N.ar  235  TRP235     -0.2442
     93  CE2       63.4980  -25.0030  -27.8810 C.ar  235  TRP235      0.0810
     94  CE3       64.2590  -23.2590  -26.3840 C.ar  235  TRP235      0.0012
     95  CZ2       64.8030  -25.3630  -28.2050 C.ar  235  TRP235      0.0191
     96  CZ3       65.5540  -23.6020  -26.7300 C.ar  235  TRP235      0.0001
     97  CH2       65.8120  -24.6450  -27.6320 C.ar  235  TRP235      0.0015
     98  N         55.4950  -25.4320  -14.3760 N.3   294  PRO294     -0.2102
     99  CA        56.3190  -24.5730  -13.5160 C.3   294  PRO294      0.1504
    100  C         55.6740  -23.2230  -13.1910 C.2   294  PRO294      0.2576
    101  O         56.2000  -22.4850  -12.3530 O.2   294  PRO294     -0.2718
    102  CB        57.5830  -24.3540  -14.3530 C.3   294  PRO294      0.0282
    103  CG        57.1600  -24.5640  -15.7480 C.3   294  PRO294      0.0208
    104  CD        56.0780  -25.5970  -15.7210 C.3   294  PRO294      0.0893
    105  N         54.5700  -22.8980  -13.8550 N.am  295  MET295     -0.1966
    106  CA        53.9400  -21.5960  -13.6680 C.3   295  MET295      0.1736
    107  C         53.6630  -21.3450  -12.1990 C.2   295  MET295      0.2617
    108  O         52.9690  -22.1130  -11.5470 O.2   295  MET295     -0.2715
    109  CB        52.6580  -21.4830  -14.4950 C.3   295  MET295      0.0427
    110  CG        52.9120  -21.4630  -15.9970 C.3   295  MET295      0.0599
    111  SD        54.1860  -20.2480  -16.3930 S.3   295  MET295     -0.1393
    112  CE        54.4190  -20.5090  -18.1500 C.3   295  MET295      0.0692
    113  N         54.2480  -20.2790  -11.6720 N.am  296  GLY296     -0.1940
    114  CA        54.0570  -19.9210  -10.2790 C.3   296  GLY296      0.2014
    115  C         55.1590  -20.4050   -9.3510 C.2   296  GLY296      0.2639
    116  O         55.2000  -20.0010   -8.1890 O.2   296  GLY296     -0.2714
    117  N         56.0500  -21.2600   -9.8500 N.am  297  GLY297     -0.1954
    118  CA        57.1270  -21.7940   -9.0290 C.3   297  GLY297      0.1869
    119  C         56.6470  -22.4320   -7.7360 C.2   297  GLY297      0.2309
    120  O         57.2430  -22.2340   -6.6840 O.2   297  GLY297     -0.2863
    121  N         50.8110  -16.1460  -12.6100 N.3   401  GLY401     -0.1210
    122  CA        51.8000  -17.2190  -12.5620 C.3   401  GLY401      0.1956
    123  C         53.2310  -16.7220  -12.3850 C.2   401  GLY401      0.2611
    124  O         54.1950  -17.4910  -12.5170 O.2   401  GLY401     -0.2717
    125  N         53.3810  -15.4340  -12.0810 N.am  402  LEU402     -0.1979
    126  CA        54.7070  -14.8230  -12.0650 C.3   402  LEU402      0.1596
    127  C         54.8950  -13.9200  -10.8560 C.2   402  LEU402      0.2287
    128  O         55.6230  -12.9260  -10.9090 O.2   402  LEU402     -0.2864
    129  CB        54.9620  -14.0700  -13.3810 C.3   402  LEU402      0.0297
    130  CG        54.9400  -14.9820  -14.6080 C.3   402  LEU402      0.0022
    131  CD1       54.9270  -14.2050  -15.9100 C.3   402  LEU402      0.0001
    132  CD2       56.1320  -15.9180  -14.5310 C.3   402  LEU402      0.0001
@<TRIPOS>BOND
     1    92    93   ar
     2    92    90   ar
     3    95    93   ar
     4    95    97   ar
     5    93    91   ar
     6    90    89   ar
     7    97    96   ar
     8    91    89   ar
     9    91    94   ar
    10    89    88    1
    11    96    94   ar
    12    88    85    1
    13    86    85    1
    14    86    87    2
    15    85    84    1
    16    50    49    2
    17    49    48    1
    18    84    79   am
    19    80    79    2
    20    79    78    1
    21    61    62    1
    22    35    34    1
    23    35    36    2
    24    34    33    1
    25    34    37    1
    26    48    51    1
    27    48    47    1
    28    77    78    1
    29    78    81    1
    30    51    52    1
    31    62    63    1
    32    62    65    1
    33    64    63    2
    34    57    59   ar
    35    57    54   ar
    36    59    60   ar
    37    37    38    1
    38    52    54   ar
    39    52    53   ar
    40    54    56   ar
    41    81    82    1
    42    81    83    1
    43    60    58   ar
    44    53    55   ar
    45    56    58   ar
    46    56    55   ar
    47    66    67    1
    48   112   111    1
    49    41    42    2
    50    41    40    1
    51    67    70    1
    52    67    68    1
    53    46    45    1
    54    69    68    2
    55    70    71    1
    56    40    43    1
    57    40    39    1
    58    43    44    1
    59   111   110    1
    60   110   109    1
    61   131   130    1
    62   103   104    1
    63   103   102    1
    64   104    98    1
    65    44    45    1
    66    71    72    1
    67    72    73    1
    68   130   132    1
    69   130   129    1
    70    75    74    1
    71   109   106    1
    72    98    99    1
    73   102    99    1
    74    73    74    2
    75   105   106    1
    76   105   100   am
    77    74    76    1
    78   106   107    1
    79    99   100    1
    80   129   126    1
    81   100   101    2
    82   121   122    1
    83   122   123    1
    84   124   123    2
    85    10     9   ar
    86    10     8   ar
    87   123   125   am
    88   107   113   am
    89   107   108    2
    90   125   126    1
    91   126   127    1
    92     9     7   ar
    93     8     6   ar
    94   113   114    1
    95    27    28   ar
    96    27    25   ar
    97     7     6   ar
    98     6     5    1
    99   128   127    2
   100    30    28   ar
   101    30    32   ar
   102    28    26   ar
   103    25    24   ar
   104   114   115    1
   105    32    31   ar
   106     5     2    1
   107   117   115   am
   108   117   118    1
   109    19    20    1
   110    18    16    1
   111   115   116    2
   112    26    24   ar
   113    26    29   ar
   114    24    23    1
   115    16    15    1
   116     1     2    1
   117   118   119    1
   118    31    29   ar
   119     2     3    1
   120    23    20    1
   121    20    21    1
   122    11     3   am
   123    11    12    1
   124     3     4    2
   125    15    12    1
   126    15    17    1
   127   119   120    2
   128    12    13    1
   129    21    22    2
   130    13    14    2
