@<TRIPOS>MOLECULE
tmp/5bruA00.pdb
 166 160 0 0 0
SMALL
GASTEIGER

@<TRIPOS>ATOM
      1  N         -5.0250  -48.1530   76.0430 N.3    65  ASN65      -0.1240
      2  CA        -5.8200  -47.2540   76.8500 C.3    65  ASN65       0.1653
      3  C         -6.9970  -46.8020   75.9910 C.2    65  ASN65       0.2266
      4  O         -6.8110  -46.4000   74.8190 O.2    65  ASN65      -0.2867
      5  CB        -5.1070  -45.9830   77.2130 C.3    65  ASN65       0.1155
      6  CG        -3.9880  -46.1790   78.1470 C.2    65  ASN65       0.2627
      7  OD1       -3.8310  -47.2310   78.6950 O.2    65  ASN65      -0.2716
      8  ND2       -3.1780  -45.1500   78.3200 N.am   65  ASN65      -0.0877
      9  N         -9.3670  -43.7040   75.9230 N.3    67  GLU67      -0.1245
     10  CA        -9.2820  -42.3550   76.4790 C.3    67  GLU67       0.1567
     11  C        -10.6290  -41.6550   76.4100 C.2    67  GLU67       0.2260
     12  O        -11.4070  -41.8820   75.4670 O.2    67  GLU67      -0.2867
     13  CB        -8.2960  -41.5660   75.6490 C.3    67  GLU67       0.0388
     14  CG        -6.9020  -42.1610   75.6310 C.3    67  GLU67       0.1160
     15  CD        -6.0160  -41.6220   74.5280 C.2    67  GLU67       0.3649
     16  OE1       -6.4950  -40.8990   73.6230 O.co2  67  GLU67      -0.2457
     17  OE2       -4.8070  -41.9280   74.5490 O.co2  67  GLU67      -0.2457
     18  N        -12.0590  -35.4500   79.3990 N.3    70  ASP70      -0.1239
     19  CA       -12.1000  -35.0440   80.7880 C.3    70  ASP70       0.1674
     20  C        -11.9600  -33.5050   80.9440 C.2    70  ASP70       0.2266
     21  O        -11.5180  -33.0290   81.9830 O.2    70  ASP70      -0.2867
     22  CB       -10.9360  -35.7550   81.5040 C.3    70  ASP70       0.1410
     23  CG        -9.5580  -35.1950   81.0670 C.2    70  ASP70       0.3668
     24  OD1       -9.4590  -34.5900   79.9500 O.co2  70  ASP70      -0.2456
     25  OD2       -8.5780  -35.3580   81.8280 O.co2  70  ASP70      -0.2456
     26  N        -10.5670  -40.3980   83.0250 N.3    89  ILE89      -0.1231
     27  CA        -9.6840  -40.0360   81.9180 C.3    89  ILE89       0.1692
     28  C         -9.3530  -41.2060   80.9900 C.2    89  ILE89       0.2591
     29  O         -9.2250  -41.0260   79.7960 O.2    89  ILE89      -0.2718
     30  CB        -8.3990  -39.3250   82.4080 C.3    89  ILE89       0.0266
     31  CG1       -7.4950  -38.9910   81.2140 C.3    89  ILE89       0.0019
     32  CG2       -7.6010  -40.1340   83.4440 C.3    89  ILE89       0.0020
     33  CD1       -8.1380  -38.1420   80.1620 C.3    89  ILE89       0.0001
     34  N         -9.1980  -42.4190   81.5360 N.am   90  GLN90      -0.1979
     35  CA        -8.9010  -43.5510   80.6900 C.3    90  GLN90       0.1601
     36  C         -9.1710  -44.8140   81.4150 C.2    90  GLN90       0.2287
     37  O         -9.3170  -44.8000   82.6490 O.2    90  GLN90      -0.2864
     38  CB        -7.4680  -43.5660   80.1990 C.3    90  GLN90       0.0394
     39  CG        -6.4330  -43.4950   81.2530 C.3    90  GLN90       0.0908
     40  CD        -5.7050  -44.7890   81.5410 C.2    90  GLN90       0.2608
     41  OE1       -6.3070  -45.8230   81.5770 O.2    90  GLN90      -0.2717
     42  NE2       -4.4130  -44.7010   81.8130 N.am   90  GLN90      -0.0878
     43  N         -7.8180  -49.1350   81.0730 N.3    92  HIS92      -0.1241
     44  CA        -6.8870  -50.0990   80.5150 C.3    92  HIS92       0.1621
     45  C         -7.0100  -51.3830   81.3330 C.2    92  HIS92       0.2264
     46  O         -7.6440  -51.4330   82.3940 O.2    92  HIS92      -0.2867
     47  CB        -5.4280  -49.6350   80.5220 C.3    92  HIS92       0.0745
     48  CG        -4.9310  -49.3460   81.8820 C.ar   92  HIS92       0.0817
     49  ND1       -5.1190  -48.1430   82.5080 N.ar   92  HIS92      -0.2268
     50  CD2       -4.3700  -50.1590   82.8000 C.ar   92  HIS92       0.1154
     51  CE1       -4.6280  -48.1850   83.7200 C.ar   92  HIS92       0.1986
     52  NE2       -4.1760  -49.4060   83.9250 N.ar   92  HIS92      -0.2212
     53  N         -4.7390  -55.1030   82.6430 N.3    94  HIS94      -0.1241
     54  CA        -3.5600  -55.9280   82.7820 C.3    94  HIS94       0.1621
     55  C         -4.0310  -57.3580   82.6520 C.2    94  HIS94       0.2264
     56  O         -5.0870  -57.6890   83.1850 O.2    94  HIS94      -0.2867
     57  CB        -2.8790  -55.6850   84.1370 C.3    94  HIS94       0.0745
     58  CG        -2.6030  -54.2400   84.4210 C.ar   94  HIS94       0.0817
     59  ND1       -1.3640  -53.6730   84.2430 N.ar   94  HIS94      -0.2268
     60  CD2       -3.4070  -53.2500   84.8640 C.ar   94  HIS94       0.1154
     61  CE1       -1.4170  -52.3940   84.5500 C.ar   94  HIS94       0.1986
     62  NE2       -2.6440  -52.1120   84.9220 N.ar   94  HIS94      -0.2212
     63  N         -8.6940  -51.3260   85.0770 N.3   117  HIS117     -0.1241
     64  CA        -8.4430  -50.0900   85.8050 C.3   117  HIS117      0.1621
     65  C         -9.1320  -48.9570   85.1510 C.2   117  HIS117      0.2264
     66  O         -8.7740  -48.6070   84.0210 O.2   117  HIS117     -0.2867
     67  CB        -6.9220  -49.8120   85.9130 C.3   117  HIS117      0.0745
     68  CG        -6.2570  -50.8130   86.7850 C.ar  117  HIS117      0.0817
     69  ND1       -4.8860  -51.0280   86.8160 N.ar  117  HIS117     -0.2268
     70  CD2       -6.7880  -51.6200   87.7250 C.ar  117  HIS117      0.1154
     71  CE1       -4.6270  -51.9570   87.7010 C.ar  117  HIS117      0.1986
     72  NE2       -5.7630  -52.3530   88.2490 N.ar  117  HIS117     -0.2212
     73  N         -9.3890  -45.1560   85.4820 N.3   119  VAL119     -0.1245
     74  CA        -8.5000  -44.1750   86.0630 C.3   119  VAL119      0.1561
     75  C         -9.1490  -42.8060   86.1120 C.2   119  VAL119      0.2260
     76  O         -9.6420  -42.3380   85.0560 O.2   119  VAL119     -0.2867
     77  CB        -7.1840  -44.0810   85.2510 C.3   119  VAL119      0.0252
     78  CG1       -6.2660  -43.0020   85.8270 C.3   119  VAL119      0.0019
     79  CG2       -6.4880  -45.4320   85.1820 C.3   119  VAL119      0.0019
     80  N         -4.8530  -33.3690   84.9980 N.3   128  PHE128     -0.1227
     81  CA        -4.3690  -34.6860   85.4140 C.3   128  PHE128      0.1736
     82  C         -2.9000  -34.6510   85.7900 C.2   128  PHE128      0.2596
     83  O         -2.4940  -35.2360   86.8110 O.2   128  PHE128     -0.2718
     84  CB        -4.6930  -35.6400   84.2580 C.3   128  PHE128      0.0547
     85  CG        -4.3440  -37.1000   84.4300 C.ar  128  PHE128     -0.0202
     86  CD1       -4.2310  -37.7070   85.6440 C.ar  128  PHE128     -0.0042
     87  CD2       -4.2390  -37.9030   83.2630 C.ar  128  PHE128     -0.0042
     88  CE1       -3.9570  -39.0580   85.7450 C.ar  128  PHE128     -0.0003
     89  CE2       -3.9780  -39.2620   83.3650 C.ar  128  PHE128     -0.0003
     90  CZ        -3.8200  -39.8390   84.6200 C.ar  128  PHE128     -0.0000
     91  N         -2.1090  -33.8940   85.0180 N.am  129  GLY129     -0.1957
     92  CA        -0.6710  -33.7670   85.3220 C.3   129  GLY129      0.1869
     93  C         -0.3500  -33.2380   86.7060 C.2   129  GLY129      0.2309
     94  O          0.5860  -33.6610   87.3440 O.2   129  GLY129     -0.2863
     95  N         -1.5810  -35.9480   89.5650 N.3   132  VAL132     -0.1245
     96  CA        -0.7720  -37.1630   89.8320 C.3   132  VAL132      0.1561
     97  C          0.3620  -36.8830   90.8100 C.2   132  VAL132      0.2260
     98  O          0.8980  -37.8240   91.3390 O.2   132  VAL132     -0.2867
     99  CB        -0.1590  -37.8380   88.5670 C.3   132  VAL132      0.0252
    100  CG1       -1.2590  -38.2310   87.5960 C.3   132  VAL132      0.0019
    101  CG2        0.9010  -37.0040   87.8720 C.3   132  VAL132      0.0019
    102  N         -5.5180  -39.1240   92.5470 N.3   138  MET138     -0.1245
    103  CA        -6.0910  -40.1380   91.6510 C.3   138  MET138      0.1570
    104  C         -6.9830  -41.1160   92.3930 C.2   138  MET138      0.2261
    105  O         -6.8360  -41.3610   93.5630 O.2   138  MET138     -0.2867
    106  CB        -4.9950  -40.9180   90.9200 C.3   138  MET138      0.0387
    107  CG        -4.1080  -40.0960   90.0480 C.3   138  MET138      0.0595
    108  SD        -2.7410  -41.0990   89.3660 S.3   138  MET138     -0.1393
    109  CE        -3.7140  -42.1420   88.3360 C.3   138  MET138      0.0692
    110  N         -8.5080  -45.0040   91.3030 N.3   140  VAL140     -0.1245
    111  CA        -8.6060  -46.0080   90.3060 C.3   140  VAL140      0.1561
    112  C         -9.5450  -47.0670   90.7590 C.2   140  VAL140      0.2260
    113  O         -9.4590  -47.5440   91.9380 O.2   140  VAL140     -0.2867
    114  CB        -7.2510  -46.6660   89.9700 C.3   140  VAL140      0.0252
    115  CG1       -7.4100  -47.7220   88.8580 C.3   140  VAL140      0.0019
    116  CG2       -6.2120  -45.6000   89.5740 C.3   140  VAL140      0.0019
    117  N          0.3090  -45.7230   91.5380 N.3   195  MET195     -0.1230
    118  CA         0.3030  -46.2390   90.1770 C.3   195  MET195      0.1702
    119  C          1.0110  -47.5560   90.1980 C.2   195  MET195      0.2593
    120  O          2.0430  -47.7100   90.8590 O.2   195  MET195     -0.2718
    121  CB         1.0400  -45.2950   89.2560 C.3   195  MET195      0.0401
    122  CG         0.4680  -43.9240   89.0910 C.3   195  MET195      0.0596
    123  SD         1.5670  -42.9210   88.0800 S.3   195  MET195     -0.1393
    124  CE         0.6550  -41.4150   88.1010 C.3   195  MET195      0.0692
    125  N          0.5550  -48.5050   89.4020 N.am  196  THR196     -0.1939
    126  CA         1.2200  -49.8050   89.3190 C.3   196  THR196      0.2028
    127  C          2.2490  -49.8970   88.2080 C.2   196  THR196      0.2643
    128  O          2.8490  -50.9790   88.0140 O.2   196  THR196     -0.2714
    129  CB         0.2140  -50.9430   89.1480 C.3   196  THR196      0.1808
    130  OG1       -0.3270  -50.8740   87.8280 O.3   196  THR196     -0.2208
    131  CG2       -0.8440  -50.9160   90.2570 C.3   196  THR196      0.0379
    132  N          2.4230  -48.8190   87.4320 N.am  197  THR197     -0.1937
    133  CA         3.4780  -48.7520   86.4420 C.3   197  THR197      0.2013
    134  C          4.3030  -47.5090   86.7280 C.2   197  THR197      0.2484
    135  O          3.8060  -46.5480   87.3450 O.2   197  THR197     -0.2729
    136  CB         2.9520  -48.5910   85.0130 C.3   197  THR197      0.1807
    137  OG1        2.1380  -47.4380   84.8820 O.3   197  THR197     -0.2208
    138  CG2        2.1350  -49.7040   84.5610 C.3   197  THR197      0.0379
    139  N          5.5590  -47.4850   86.1980 N.am  198  PRO198     -0.2715
    140  CA         6.3100  -46.2800   86.2920 C.3   198  PRO198      0.1521
    141  C          5.4820  -45.0740   85.8270 C.2   198  PRO198      0.2440
    142  O          4.7860  -45.1530   84.7690 O.2   198  PRO198     -0.2731
    143  CB         7.5180  -46.5710   85.4040 C.3   198  PRO198      0.0310
    144  CG         7.7500  -48.0260   85.5410 C.3   198  PRO198      0.0237
    145  CD         6.3390  -48.5880   85.6430 C.3   198  PRO198      0.0939
    146  N          5.5280  -43.9570   86.5410 N.am  199  PRO199     -0.2727
    147  CA         6.5130  -43.5820   87.5700 C.3   199  PRO199      0.1402
    148  C          6.1340  -43.9690   89.0200 C.2   199  PRO199      0.2269
    149  O          6.7660  -43.5120   89.9820 O.2   199  PRO199     -0.2865
    150  CB         6.5120  -42.0520   87.4120 C.3   199  PRO199      0.0296
    151  CG         5.1350  -41.7110   87.0060 C.3   199  PRO199      0.0237
    152  CD         4.8360  -42.7670   86.0020 C.3   199  PRO199      0.0939
    153  N         -7.1950  -46.5170   95.8660 N.3   206  TRP206     -0.1241
    154  CA        -7.6530  -47.6820   95.1980 C.3   206  TRP206      0.1605
    155  C         -9.0180  -48.1060   95.7090 C.2   206  TRP206      0.2264
    156  O         -9.2510  -48.1590   96.9270 O.2   206  TRP206     -0.2867
    157  CB        -6.6580  -48.8480   95.3550 C.3   206  TRP206      0.0550
    158  CG        -5.5240  -48.7270   94.3850 C.ar  206  TRP206      0.0003
    159  CD1       -4.3210  -48.1270   94.5860 C.ar  206  TRP206      0.0946
    160  CD2       -5.5440  -49.1300   93.0190 C.ar  206  TRP206      0.0152
    161  NE1       -3.5910  -48.1400   93.4410 N.ar  206  TRP206     -0.2442
    162  CE2       -4.2880  -48.8090   92.4680 C.ar  206  TRP206      0.0810
    163  CE3       -6.5050  -49.7690   92.2130 C.ar  206  TRP206      0.0012
    164  CZ2       -3.9850  -49.0390   91.1120 C.ar  206  TRP206      0.0191
    165  CZ3       -6.1940  -50.0790   90.9650 C.ar  206  TRP206      0.0001
    166  CH2       -4.9530  -49.6830   90.3610 C.ar  206  TRP206      0.0015
@<TRIPOS>BOND
     1    16    15   ar
     2    15    17   ar
     3    15    14    1
     4     4     3    2
     5    12    11    2
     6    14    13    1
     7    13    10    1
     8     9    10    1
     9     3     2    1
    10     1     2    1
    11    11    10    1
    12     2     5    1
    13     5     6    1
    14     6     8   am
    15     6     7    2
    16    18    19    1
    17    29    28    2
    18    24    23   ar
    19    33    31    1
    20    38    35    1
    21    38    39    1
    22    44    47    1
    23    44    43    1
    24    44    45    1
    25    47    48    1
    26    35    36    1
    27    35    34    1
    28    19    20    1
    29    19    22    1
    30    20    21    2
    31    28    34   am
    32    28    27    1
    33    23    22    1
    34    23    25   ar
    35    31    30    1
    36    39    40    1
    37    45    46    2
    38    36    37    2
    39    40    41    2
    40    40    42   am
    41    48    49   ar
    42    48    50   ar
    43    27    30    1
    44    27    26    1
    45    30    32    1
    46    49    51   ar
    47    53    54    1
    48    55    54    1
    49    55    56    2
    50    54    57    1
    51    50    52   ar
    52    87    89   ar
    53    87    85   ar
    54    89    90   ar
    55    51    52   ar
    56    66    65    2
    57    57    58    1
    58    59    58   ar
    59    59    61   ar
    60    84    85    1
    61    84    81    1
    62    58    60   ar
    63    85    86   ar
    64    61    62   ar
    65   138   136    1
    66    90    88   ar
    67   142   141    2
    68    60    62   ar
    69   137   136    1
    70    80    81    1
    71   136   133    1
    72    91    92    1
    73    91    82   am
    74    76    75    2
    75    63    64    1
    76    65    64    1
    77    79    77    1
    78    77    78    1
    79    77    74    1
    80    92    93    1
    81   143   144    1
    82   143   140    1
    83    81    82    1
    84    73    74    1
    85   144   145    1
    86   145   139    1
    87    86    88   ar
    88    82    83    2
    89    64    67    1
    90   141   140    1
    91   141   146   am
    92    67    68    1
    93   152   146    1
    94   152   151    1
    95    74    75    1
    96   139   140    1
    97   139   134   am
    98   133   134    1
    99   133   132    1
   100   146   147    1
   101    93    94    2
   102   134   135    2
   103    68    69   ar
   104    68    70   ar
   105    69    71   ar
   106   151   150    1
   107   150   147    1
   108   132   127   am
   109   147   148    1
   110   100    99    1
   111    71    72   ar
   112    70    72   ar
   113   130   129    1
   114   101    99    1
   115   128   127    2
   116   123   124    1
   117   123   122    1
   118   127   126    1
   119   109   108    1
   120    99    96    1
   121   115   114    1
   122   148   149    2
   123   122   121    1
   124   129   126    1
   125   129   131    1
   126   121   118    1
   127   126   125    1
   128   108   107    1
   129   125   119   am
   130    95    96    1
   131   116   114    1
   132    96    97    1
   133   114   111    1
   134   107   106    1
   135   118   119    1
   136   118   117    1
   137   119   120    2
   138   111   112    1
   139   111   110    1
   140   166   165   ar
   141   166   164   ar
   142   112   113    2
   143    97    98    2
   144   106   103    1
   145   165   163   ar
   146   164   162   ar
   147   103   104    1
   148   103   102    1
   149   163   160   ar
   150   104   105    2
   151   162   160   ar
   152   162   161   ar
   153   160   158   ar
   154   161   159   ar
   155   158   159   ar
   156   158   157    1
   157   154   157    1
   158   154   155    1
   159   154   153    1
   160   155   156    2
