@<TRIPOS>MOLECULE
tmp/5bs2B00.pdb
 105 98 0 0 0
SMALL
GASTEIGER

@<TRIPOS>ATOM
      1  N          2.5460    3.7690    3.5260 N.3    10  ALA10      -0.1245
      2  CA         1.2700    3.9240    2.8270 C.3    10  ALA10       0.1562
      3  C          0.1010    3.4100    3.6660 C.2    10  ALA10       0.2260
      4  O         -0.9480    4.0550    3.7290 O.2    10  ALA10      -0.2867
      5  CB         1.3110    3.2550    1.4510 C.3    10  ALA10       0.0290
      6  N         -0.7930    5.9150    6.3350 N.3    13  SER13      -0.1202
      7  CA        -1.6620    6.9870    5.8150 C.3    13  SER13       0.2020
      8  C         -3.1090    6.4840    5.6030 C.2    13  SER13       0.2618
      9  O         -4.0850    7.1800    5.8960 O.2    13  SER13      -0.2717
     10  CB        -1.0970    7.5510    4.5280 C.3    13  SER13       0.2103
     11  OG         0.2200    8.0350    4.7380 O.3    13  SER13      -0.2182
     12  N         -3.2550    5.2500    5.1610 N.am   14  LEU14      -0.1979
     13  CA        -4.5900    4.7020    5.0220 C.3    14  LEU14       0.1596
     14  C         -5.2970    4.7400    6.3700 C.2    14  LEU14       0.2287
     15  O         -6.4920    5.0750    6.4590 O.2    14  LEU14      -0.2864
     16  CB        -4.5260    3.2630    4.4750 C.3    14  LEU14       0.0297
     17  CG        -5.8470    2.5370    4.3740 C.3    14  LEU14       0.0022
     18  CD1       -6.8120    3.2540    3.4470 C.3    14  LEU14       0.0001
     19  CD2       -5.6680    1.0720    3.9410 C.3    14  LEU14       0.0001
     20  N         -6.4010    8.0170    7.5320 N.3    17  PHE17      -0.1241
     21  CA        -7.5550    8.3710    6.7380 C.3    17  PHE17       0.1605
     22  C         -8.8260    7.7260    7.2440 C.2    17  PHE17       0.2264
     23  O         -9.8410    8.3760    7.3930 O.2    17  PHE17      -0.2867
     24  CB        -7.3620    8.0020    5.2640 C.3    17  PHE17       0.0534
     25  CG        -8.5710    8.2720    4.4240 C.ar   17  PHE17      -0.0203
     26  CD1       -8.8730    9.5720    4.0310 C.ar   17  PHE17      -0.0042
     27  CD2       -9.4230    7.2390    4.0360 C.ar   17  PHE17      -0.0042
     28  CE1      -10.0080    9.8380    3.2650 C.ar   17  PHE17      -0.0003
     29  CE2      -10.5440    7.4890    3.2600 C.ar   17  PHE17      -0.0003
     30  CZ       -10.8460    8.8000    2.8680 C.ar   17  PHE17      -0.0000
     31  N        -12.3170    9.4550    8.7250 N.3    21  ARG21      -0.1245
     32  CA       -13.6690    9.1420    8.2550 C.3    21  ARG21       0.1563
     33  C        -14.5800    8.7260    9.3690 C.2    21  ARG21       0.2260
     34  O        -15.7100    9.2040    9.4750 O.2    21  ARG21      -0.2867
     35  CB       -13.6660    8.0440    7.2110 C.3    21  ARG21       0.0307
     36  CG       -13.1050    8.4500    5.8710 C.3    21  ARG21       0.0489
     37  CD       -13.8570    9.6160    5.2570 C.3    21  ARG21       0.2205
     38  NE       -15.2070    9.2240    4.7830 N.pl3  21  ARG21      -0.0865
     39  CZ       -16.3860    9.5130    5.3660 C.cat  21  ARG21       0.5346
     40  NH1      -17.5050    9.0800    4.7780 N.pl3  21  ARG21       0.1354
     41  NH2      -16.4950   10.1820    6.5190 N.pl3  21  ARG21       0.1354
     42  N        -15.2250   11.8210   11.6360 N.3    24  LEU24      -0.1245
     43  CA       -16.1310   12.7030   10.9390 C.3    24  LEU24       0.1561
     44  C        -17.6100   12.2530   11.0480 C.2    24  LEU24       0.2260
     45  O        -18.5230   13.0610   11.3300 O.2    24  LEU24      -0.2867
     46  CB       -15.7160   12.8060    9.4810 C.3    24  LEU24       0.0270
     47  CG       -16.3630   13.9570    8.7330 C.3    24  LEU24       0.0019
     48  CD1      -15.8850   15.2950    9.2830 C.3    24  LEU24       0.0001
     49  CD2      -16.0720   13.8420    7.2420 C.3    24  LEU24       0.0001
     50  N        -15.7740   19.3130   14.0920 N.3    42  TYR42      -0.1227
     51  CA       -16.3020   18.9630   12.7780 C.3    42  TYR42       0.1736
     52  C        -15.7870   19.8670   11.6550 C.2    42  TYR42       0.2595
     53  O        -15.3090   19.4120   10.6100 O.2    42  TYR42      -0.2718
     54  CB       -17.8440   19.0010   12.8000 C.3    42  TYR42       0.0548
     55  CG       -18.4490   18.8910   11.4270 C.ar   42  TYR42      -0.0200
     56  CD1      -18.5450   17.6510   10.7990 C.ar   42  TYR42      -0.0009
     57  CD2      -18.9000   20.0100   10.7430 C.ar   42  TYR42      -0.0009
     58  CE1      -19.0920   17.5260    9.5290 C.ar   42  TYR42       0.0417
     59  CE2      -19.4450   19.9150    9.4690 C.ar   42  TYR42       0.0417
     60  CZ       -19.5460   18.6680    8.8650 C.ar   42  TYR42       0.1957
     61  OH       -20.0670   18.5460    7.6090 O.3    42  TYR42      -0.2866
     62  N        -15.8930   21.1700   11.8920 N.am   43  LEU43      -0.1980
     63  CA       -15.4010   22.1580   10.9630 C.3    43  LEU43       0.1596
     64  C        -13.8730   22.0750   10.7870 C.2    43  LEU43       0.2287
     65  O        -13.3890   22.1670    9.6670 O.2    43  LEU43      -0.2864
     66  CB       -15.8070   23.5460   11.4370 C.3    43  LEU43       0.0297
     67  CG       -17.3250   23.8380   11.4550 C.3    43  LEU43       0.0022
     68  CD1      -17.5990   25.2150   12.0480 C.3    43  LEU43       0.0001
     69  CD2      -17.9320   23.7490   10.0760 C.3    43  LEU43       0.0001
     70  N        -13.1440   18.9910    8.6590 N.3    46  MET46      -0.1230
     71  CA       -13.5490   19.1860    7.2810 C.3    46  MET46       0.1702
     72  C        -12.4930   20.0130    6.5680 C.2    46  MET46       0.2592
     73  O        -12.1200   19.7240    5.4210 O.2    46  MET46      -0.2718
     74  CB       -14.9350   19.8240    7.1910 C.3    46  MET46       0.0401
     75  CG       -16.1110   18.8910    7.4670 C.3    46  MET46       0.0596
     76  SD       -16.3970   17.6610    6.1610 S.3    46  MET46      -0.1393
     77  CE       -17.3130   18.6180    4.9630 C.3    46  MET46       0.0692
     78  N        -12.0740   21.0940    7.2110 N.am   47  ASP47      -0.1974
     79  CA       -11.0090   21.9290    6.6600 C.3    47  ASP47       0.1709
     80  C         -9.7360   21.0680    6.4160 C.2    47  ASP47       0.2293
     81  O         -9.1820   21.0890    5.3350 O.2    47  ASP47      -0.2864
     82  CB       -10.7480   23.1470    7.5570 C.3    47  ASP47       0.1436
     83  CG       -11.8610   24.2380    7.4300 C.2    47  ASP47       0.3671
     84  OD1      -12.7670   24.1140    6.5780 O.co2  47  ASP47      -0.2456
     85  OD2      -11.8070   25.2280    8.1780 O.co2  47  ASP47      -0.2456
     86  N         -9.4040   17.8910    5.9370 N.3    49  LEU49      -0.1231
     87  CA        -9.5730   16.8930    4.8870 C.3    49  LEU49       0.1693
     88  C         -9.4510   17.4450    3.4900 C.2    49  LEU49       0.2592
     89  O         -9.2450   16.6950    2.5460 O.2    49  LEU49      -0.2718
     90  CB       -10.9090   16.1570    5.0480 C.3    49  LEU49       0.0284
     91  CG       -10.8340   15.2870    6.2910 C.3    49  LEU49       0.0019
     92  CD1      -12.2330   14.8990    6.7210 C.3    49  LEU49       0.0001
     93  CD2       -9.9630   14.0530    6.0430 C.3    49  LEU49       0.0001
     94  N         -9.5680   18.7530    3.3490 N.am   50  GLY50      -0.1957
     95  CA        -9.2290   19.4010    2.1230 C.3    50  GLY50       0.1869
     96  C         -7.7410   19.5910    1.8890 C.2    50  GLY50       0.2309
     97  O         -7.3580   20.2150    0.8970 O.2    50  GLY50      -0.2863
     98  N         -2.7130   14.4260    3.0830 N.3    53  MET53      -0.1196
     99  CA        -1.9520   13.8150    4.1490 C.3    53  MET53       0.1786
    100  C         -0.7320   13.2390    3.4020 C.2    53  MET53       0.2306
    101  O         -0.8430   12.2280    2.7100 O.2    53  MET53      -0.2863
    102  CB        -2.7810   12.7290    4.8730 C.2    53  MET53       0.0070
    103  CG        -4.2440   13.0760    5.2280 C.2    53  MET53       0.0282
    104  SD        -5.2050   11.7470    6.0830 S.3    53  MET53      -0.1125
    105  CE        -4.2840   10.3330    5.5790 C.3    53  MET53       0.0742
@<TRIPOS>BOND
     1    97    96    2
     2     5     2    1
     3    96    95    1
     4    95    94    1
     5    89    88    2
     6   101   100    2
     7     2     1    1
     8     2     3    1
     9    30    29   ar
    10    30    28   ar
    11    98    99    1
    12    29    27   ar
    13    28    26   ar
    14    94    88   am
    15   100    99    1
    16    18    17    1
    17    88    87    1
    18     3     4    2
    19    19    17    1
    20    26    25   ar
    21    27    25   ar
    22    99   102    1
    23    17    16    1
    24    25    24    1
    25    16    13    1
    26    10    11    1
    27    10     7    1
    28    40    39    1
    29    38    37    1
    30    38    39    2
    31   102   103    2
    32    87    90    1
    33    87    86    1
    34    77    76    1
    35    13    12    1
    36    13    14    1
    37    90    91    1
    38    12     8   am
    39   103   104    1
    40    37    36    1
    41    24    21    1
    42    81    80    2
    43    39    41    1
    44    73    72    2
    45   105   104    1
    46     8     7    1
    47     8     9    2
    48     7     6    1
    49    36    35    1
    50    93    91    1
    51    76    75    1
    52    91    92    1
    53    14    15    2
    54    80    79    1
    55    72    78   am
    56    72    71    1
    57    84    83   ar
    58    79    78    1
    59    79    82    1
    60    21    22    1
    61    21    20    1
    62    74    71    1
    63    74    75    1
    64    35    32    1
    65    49    47    1
    66    22    23    2
    67    71    70    1
    68    83    82    1
    69    83    85   ar
    70    61    60    1
    71    32    31    1
    72    32    33    1
    73    47    48    1
    74    47    46    1
    75    60    59   ar
    76    60    58   ar
    77    33    34    2
    78    59    57   ar
    79    46    43    1
    80    58    56   ar
    81    65    64    2
    82    69    67    1
    83    53    52    2
    84    57    55   ar
    85    64    63    1
    86    56    55   ar
    87    43    44    1
    88    43    42    1
    89    63    66    1
    90    63    62    1
    91    44    45    2
    92    55    54    1
    93    66    67    1
    94    67    68    1
    95    52    62   am
    96    52    51    1
    97    51    54    1
    98    51    50    1
