@<TRIPOS>MOLECULE
tmp/5bsfF01.pdb
 77 74 0 0 0
SMALL
GASTEIGER

@<TRIPOS>ATOM
      1  N         16.5430   93.4830   32.6980 N.3    78  LYS78      -0.1231
      2  CA        17.0760   92.2940   33.3870 C.3    78  LYS78       0.1678
      3  C         16.2760   91.0590   32.9370 C.2    78  LYS78       0.2434
      4  O         15.0280   91.1340   32.6960 O.2    78  LYS78      -0.2733
      5  CB        16.8630   92.4610   34.8920 C.3    78  LYS78       0.0284
      6  CG        17.6960   93.5310   35.5040 C.3    78  LYS78       0.0035
      7  CD        19.1280   93.0390   35.5650 C.3    78  LYS78       0.0206
      8  CE        19.8540   93.6480   36.7810 C.3    78  LYS78       0.1093
      9  NZ        21.0900   94.3290   36.3450 N.3    78  LYS78      -0.1314
     10  N         16.9640   89.9180   32.8490 N.am   79  PRO79      -0.2718
     11  CA        16.3410   88.7540   32.1990 C.3    79  PRO79       0.1535
     12  C         15.0430   88.2980   32.8140 C.2    79  PRO79       0.2598
     13  O         14.1100   87.8900   32.1330 O.2    79  PRO79      -0.2715
     14  CB        17.3820   87.6650   32.3420 C.3    79  PRO79       0.0310
     15  CG        18.6510   88.3530   32.6530 C.3    79  PRO79       0.0237
     16  CD        18.3670   89.7040   33.2060 C.3    79  PRO79       0.0939
     17  N         14.9770   88.3540   34.1400 N.am   80  GLN80      -0.1978
     18  CA        13.8020   87.8480   34.8820 C.3    80  GLN80       0.1601
     19  C         12.5730   88.7400   34.7030 C.2    80  GLN80       0.2287
     20  O         11.4900   88.3600   35.0160 O.2    80  GLN80      -0.2864
     21  CB        14.1570   87.6220   36.3920 C.3    80  GLN80       0.0394
     22  CG        14.4570   88.9190   37.1800 C.3    80  GLN80       0.0908
     23  CD        15.9110   89.4630   37.0650 C.2    80  GLN80       0.2608
     24  OE1       16.7560   89.0490   36.2070 O.2    80  GLN80      -0.2717
     25  NE2       16.2010   90.4260   37.9340 N.am   80  GLN80      -0.0878
     26  N         20.8160   88.2870   29.1550 N.3   104  ALA104     -0.1245
     27  CA        21.6630   87.1050   29.3960 C.3   104  ALA104      0.1562
     28  C         20.7530   85.8990   29.6810 C.2   104  ALA104      0.2260
     29  O         19.7720   86.0050   30.3900 O.2   104  ALA104     -0.2867
     30  CB        22.6170   87.3420   30.5440 C.3   104  ALA104      0.0290
     31  N         24.4620   88.5290   22.6740 N.3   124  MET124     -0.1231
     32  CA        25.0670   88.4520   23.9810 C.3   124  MET124      0.1687
     33  C         26.3470   89.3150   23.8620 C.2   124  MET124      0.2434
     34  O         27.3920   88.8260   23.3890 O.2   124  MET124     -0.2733
     35  CB        25.4410   87.0180   24.3960 C.3   124  MET124      0.0400
     36  CG        26.2270   86.8790   25.6850 C.3   124  MET124      0.0596
     37  SD        25.2770   87.5370   27.0110 S.3   124  MET124     -0.1393
     38  CE        26.5030   87.4720   28.4400 C.3   124  MET124      0.0692
     39  N         26.3140   90.5230   24.3670 N.am  125  PRO125     -0.2718
     40  CA        27.5040   91.3730   24.4610 C.3   125  PRO125      0.1535
     41  C         28.2930   91.0710   25.7140 C.2   125  PRO125      0.2599
     42  O         27.9950   90.0420   26.3970 O.2   125  PRO125     -0.2715
     43  CB        26.9040   92.7650   24.4560 C.3   125  PRO125      0.0310
     44  CG        25.5810   92.5810   25.1530 C.3   125  PRO125      0.0237
     45  CD        25.1110   91.1580   24.9190 C.3   125  PRO125      0.0939
     46  N         29.2940   91.8590   26.0390 N.am  126  ASN126     -0.1959
     47  CA        29.9150   91.7280   27.3610 C.3   126  ASN126      0.1819
     48  C         30.2310   93.0650   27.9080 C.2   126  ASN126      0.2621
     49  O         29.9360   94.1020   27.2840 O.2   126  ASN126     -0.2715
     50  CB        31.1330   90.7660   27.3140 C.3   126  ASN126      0.1195
     51  CG        32.3530   91.3370   26.6730 C.2   126  ASN126      0.2630
     52  OD1       32.3930   92.4690   26.1770 O.2   126  ASN126     -0.2716
     53  ND2       33.3800   90.4950   26.5580 N.am  126  ASN126     -0.0877
     54  N         30.8530   93.0840   29.0580 N.am  127  THR127     -0.1951
     55  CA        31.0840   94.3370   29.8220 C.3   127  THR127      0.1897
     56  C         31.9490   95.4060   29.1210 C.2   127  THR127      0.2313
     57  O         31.8020   96.5960   29.4110 O.2   127  THR127     -0.2863
     58  CB        31.7400   94.0210   31.1910 C.3   127  THR127      0.1794
     59  OG1       31.7270   95.1650   32.0620 O.3   127  THR127     -0.2208
     60  CG2       33.2340   93.6110   31.0190 C.3   127  THR127      0.0378
     61  N         28.6390   82.4270   27.2010 N.3   174  THR174     -0.1218
     62  CA        28.4490   83.1940   28.4860 C.3   174  THR174      0.1862
     63  C         29.5960   82.9290   29.4530 C.2   174  THR174      0.2287
     64  O         30.1580   83.8390   30.0190 O.2   174  THR174     -0.2866
     65  CB        27.0980   82.8880   29.1340 C.3   174  THR174      0.1770
     66  OG1       26.0510   83.2370   28.2260 O.3   174  THR174     -0.2211
     67  CG2       26.9360   83.6050   30.4040 C.3   174  THR174      0.0375
     68  N         31.3410   86.2960   28.2040 N.3   178  GLY178     -0.1210
     69  CA        30.5320   86.9880   29.2320 C.3   178  GLY178      0.1956
     70  C         31.1910   87.1160   30.5450 C.2   178  GLY178      0.2612
     71  O         31.2920   88.1910   31.1130 O.2   178  GLY178     -0.2717
     72  N         31.7180   85.9910   31.0500 N.am  179  SER179     -0.1952
     73  CA        32.4220   85.9420   32.2950 C.3   179  SER179      0.1924
     74  C         33.8860   86.1810   32.2660 C.2   179  SER179      0.2314
     75  O         34.4890   86.5430   33.2660 O.2   179  SER179     -0.2863
     76  CB        32.1360   84.5390   32.9220 C.3   179  SER179      0.2116
     77  OG        30.7240   84.3990   33.1080 O.3   179  SER179     -0.2180
@<TRIPOS>BOND
     1    31    32    1
     2    34    33    2
     3    33    32    1
     4    33    39   am
     5    32    35    1
     6    39    40    1
     7    39    45    1
     8    35    36    1
     9    43    40    1
    10    43    44    1
    11    40    41    1
    12    45    44    1
    13    36    37    1
    14    41    46   am
    15    41    42    2
    16    46    47    1
    17    52    51    2
    18    53    51   am
    19    51    50    1
    20    37    38    1
    21    61    62    1
    22    49    48    2
    23    50    47    1
    24    47    48    1
    25    48    54   am
    26    68    69    1
    27    66    65    1
    28    62    65    1
    29    62    63    1
    30    54    55    1
    31    56    57    2
    32    56    55    1
    33    65    67    1
    34    26    27    1
    35    69    70    1
    36    27    28    1
    37    27    30    1
    38    63    64    2
    39    28    29    2
    40    55    58    1
    41    70    72   am
    42    70    71    2
    43    60    58    1
    44    72    73    1
    45    58    59    1
    46    13    12    2
    47    11    14    1
    48    11    12    1
    49    11    10    1
    50    74    73    1
    51    74    75    2
    52    73    76    1
    53    14    15    1
    54    15    16    1
    55     4     3    2
    56     1     2    1
    57    12    17   am
    58    10     3   am
    59    10    16    1
    60    76    77    1
    61     3     2    1
    62     2     5    1
    63    17    18    1
    64    19    18    1
    65    19    20    2
    66    18    21    1
    67     5     6    1
    68     6     7    1
    69     7     8    1
    70    24    23    2
    71     9     8    1
    72    21    22    1
    73    23    22    1
    74    23    25   am
