@<TRIPOS>MOLECULE
tmp/5bsfF00.pdb
 182 175 0 0 0
SMALL
GASTEIGER

@<TRIPOS>ATOM
      1  N         14.0260   99.2520   25.2100 N.3    14  ILE14      -0.1231
      2  CA        13.1420   98.9210   26.3060 C.3    14  ILE14       0.1692
      3  C         14.0090   98.4390   27.4190 C.2    14  ILE14       0.2593
      4  O         14.5880   97.3330   27.3360 O.2    14  ILE14      -0.2718
      5  CB        12.1080   97.8500   25.8910 C.3    14  ILE14       0.0266
      6  CG1       11.3160   98.2960   24.6650 C.3    14  ILE14       0.0019
      7  CG2       11.2170   97.5200   27.0920 C.3    14  ILE14       0.0020
      8  CD1       10.5080   99.5350   24.8500 C.3    14  ILE14       0.0001
      9  N         14.1170   99.2800   28.4400 N.am   15  GLY15      -0.1942
     10  CA        15.0430   99.1410   29.5440 C.3    15  GLY15       0.2014
     11  C         16.2150  100.0820   29.3310 C.2    15  GLY15       0.2639
     12  O         17.1160   99.7980   28.5510 O.2    15  GLY15      -0.2714
     13  N         16.1960  101.2110   30.0290 N.am   16  ALA16      -0.1963
     14  CA        17.2250  102.2290   29.8560 C.3    16  ALA16       0.1728
     15  C         18.4050  102.0160   30.7890 C.2    16  ALA16       0.2617
     16  O         18.7740  102.9000   31.5500 O.2    16  ALA16      -0.2715
     17  CB        16.6300  103.6110   30.0530 C.3    16  ALA16       0.0334
     18  N         19.0070  100.8420   30.6880 N.am   17  GLY17      -0.1940
     19  CA        20.1150  100.4400   31.5270 C.3    17  GLY17       0.2014
     20  C         21.4820  100.8100   30.9890 C.2    17  GLY17       0.2639
     21  O         21.6100  101.5110   29.9960 O.2    17  GLY17      -0.2714
     22  N         22.5140  100.3130   31.6550 N.am   18  LYS18      -0.1963
     23  CA        23.8920  100.5400   31.2640 C.3    18  LYS18       0.1728
     24  C         24.1490  100.0480   29.8830 C.2    18  LYS18       0.2616
     25  O         24.7370  100.7090   29.1100 O.2    18  LYS18      -0.2715
     26  CB        24.8480   99.8400   32.2260 C.3    18  LYS18       0.0311
     27  CG        24.7800  100.3200   33.6520 C.3    18  LYS18       0.0038
     28  CD        25.7400   99.5860   34.5900 C.3    18  LYS18       0.0206
     29  CE        25.5420   98.0650   34.6830 C.3    18  LYS18       0.1093
     30  NZ        24.2610   97.5500   35.2210 N.3    18  LYS18      -0.1314
     31  N         23.6930   98.8570   29.5860 N.am   19  MET19      -0.1963
     32  CA        23.9930   98.2440   28.2250 C.3    19  MET19       0.1736
     33  C         23.2950   99.0130   27.1420 C.2    19  MET19       0.2616
     34  O         23.8440   99.3440   26.1050 O.2    19  MET19      -0.2715
     35  CB        23.5570   96.7660   28.1720 C.3    19  MET19       0.0427
     36  CG        23.9160   96.1140   26.8390 C.3    19  MET19       0.0599
     37  SD        25.6510   96.2280   26.2540 S.3    19  MET19      -0.1393
     38  CE        26.4260   95.3720   27.6150 C.3    19  MET19       0.0692
     39  N         22.0600   99.3920   27.4020 N.am   20  ALA20      -0.1977
     40  CA        21.3500  100.3040   26.4480 C.3    20  ALA20       0.1597
     41  C         22.1400  101.5910   26.2000 C.2    20  ALA20       0.2287
     42  O         22.2990  102.0780   25.0720 O.2    20  ALA20      -0.2864
     43  CB        19.9270  100.6430   26.9180 C.3    20  ALA20       0.0319
     44  N         12.4380  104.7310   27.1980 N.3    41  ALA41      -0.1245
     45  CA        11.4400  105.1370   28.1760 C.3    41  ALA41       0.1562
     46  C         11.9360  104.7570   29.4990 C.2    41  ALA41       0.2260
     47  O         12.5730  103.6940   29.6490 O.2    41  ALA41      -0.2867
     48  CB        10.0800  104.4740   27.9310 C.3    41  ALA41       0.0290
     49  N         11.5470  103.7240   33.3150 N.3    43  HIS43      -0.1226
     50  CA        10.6560  103.0750   34.2650 C.3    43  HIS43       0.1752
     51  C         10.4960  103.7910   35.5990 C.2    43  HIS43       0.2597
     52  O          9.3770  103.9670   36.0690 O.2    43  HIS43      -0.2718
     53  CB        11.1460  101.6500   34.5330 C.3    43  HIS43       0.0759
     54  CG        10.1020  100.7470   35.1090 C.ar   43  HIS43       0.0818
     55  ND1       10.3310   99.9550   36.2130 N.ar   43  HIS43      -0.2268
     56  CD2        8.8250  100.5040   34.7320 C.ar   43  HIS43       0.1154
     57  CE1        9.2400   99.2660   36.4930 C.ar   43  HIS43       0.1986
     58  NE2        8.3100   99.5840   35.6110 N.ar   43  HIS43      -0.2212
     59  N         11.6000  104.2150   36.2060 N.am   44  SER44      -0.1938
     60  CA        11.5130  104.8790   37.5070 C.3    44  SER44       0.2055
     61  C         12.2440  106.2200   37.6800 C.2    44  SER44       0.2643
     62  O         11.6680  107.1900   38.1680 O.2    44  SER44      -0.2714
     63  CB        11.8700  103.8940   38.6350 C.3    44  SER44       0.2130
     64  OG        13.0780  104.2270   39.2980 O.3    44  SER44      -0.2179
     65  N         13.5130  106.2530   37.2870 N.am   45  ASN45      -0.1971
     66  CA        14.4530  107.2620   37.7660 C.3    45  ASN45       0.1688
     67  C         14.7470  108.4510   36.8860 C.2    45  ASN45       0.2292
     68  O         15.0530  108.3150   35.7130 O.2    45  ASN45      -0.2864
     69  CB        15.7910  106.6360   38.1950 C.3    45  ASN45       0.1181
     70  CG        16.0590  105.3110   37.5330 C.2    45  ASN45       0.2629
     71  OD1       15.2420  104.8250   36.7550 O.2    45  ASN45      -0.2716
     72  ND2       17.2020  104.7130   37.8440 N.am   45  ASN45      -0.0877
     73  N         18.2940  108.0560   35.1760 N.3    48  ARG48      -0.1245
     74  CA        18.4690  107.4430   33.8830 C.3    48  ARG48       0.1563
     75  C         18.0300  108.3830   32.7780 C.2    48  ARG48       0.2260
     76  O         18.5820  108.3960   31.7110 O.2    48  ARG48      -0.2867
     77  CB        17.7610  106.1030   33.7940 C.3    48  ARG48       0.0307
     78  CG        18.3630  104.9870   34.6200 C.3    48  ARG48       0.0489
     79  CD        19.8690  104.9780   34.6000 C.3    48  ARG48       0.2205
     80  NE        20.3950  104.4880   33.3490 N.pl3  48  ARG48      -0.0865
     81  CZ        21.6160  104.7280   32.9290 C.cat  48  ARG48       0.5346
     82  NH1       22.4340  105.4410   33.6690 N.pl3  48  ARG48       0.1354
     83  NH2       22.0210  104.2390   31.7820 N.pl3  48  ARG48       0.1354
     84  N          6.8440  102.3960   27.4260 N.3    63  ASN63      -0.1240
     85  CA         7.4220  101.3810   26.5800 C.3    63  ASN63       0.1653
     86  C          6.6240  101.2730   25.2940 C.2    63  ASN63       0.2266
     87  O          7.1570  101.1340   24.2140 O.2    63  ASN63      -0.2867
     88  CB         7.4020  100.0190   27.2480 C.3    63  ASN63       0.1155
     89  CG         8.4360   99.8790   28.3430 C.2    63  ASN63       0.2627
     90  OD1        9.3100  100.7220   28.5230 O.2    63  ASN63      -0.2716
     91  ND2        8.3080   98.8290   29.0840 N.am   63  ASN63      -0.0877
     92  N         16.4620   95.4220   26.7110 N.3    76  SER76      -0.1202
     93  CA        17.6290   95.4870   27.5690 C.3    76  SER76       0.2020
     94  C         17.2680   95.5320   29.0440 C.2    76  SER76       0.2619
     95  O         17.9650   96.1070   29.8280 O.2    76  SER76      -0.2717
     96  CB        18.4780   96.7110   27.2470 C.3    76  SER76       0.2103
     97  OG        17.7010   97.7760   26.7570 O.3    76  SER76      -0.2182
     98  N         16.1640   94.9310   29.4060 N.am   77  VAL77      -0.1965
     99  CA        15.7560   94.8220   30.8270 C.3    77  VAL77       0.1727
    100  C         16.4690   93.5680   31.3790 C.2    77  VAL77       0.2616
    101  O         16.9610   92.7180   30.6530 O.2    77  VAL77      -0.2715
    102  CB        14.2330   94.7200   31.0210 C.3    77  VAL77       0.0290
    103  CG1       13.5490   95.9830   30.5810 C.3    77  VAL77       0.0023
    104  CG2       13.6660   93.5110   30.2680 C.3    77  VAL77       0.0023
    105  N         16.5430   93.4830   32.6980 N.am   78  LYS78      -0.1964
    106  CA        17.0760   92.2940   33.3870 C.3    78  LYS78       0.1713
    107  C         16.2760   91.0590   32.9370 C.2    78  LYS78       0.2458
    108  O         15.0280   91.1340   32.6960 O.2    78  LYS78      -0.2730
    109  CB        16.8630   92.4610   34.8920 C.3    78  LYS78       0.0311
    110  CG        17.6960   93.5310   35.5040 C.3    78  LYS78       0.0038
    111  CD        19.1280   93.0390   35.5650 C.3    78  LYS78       0.0206
    112  CE        19.8540   93.6480   36.7810 C.3    78  LYS78       0.1093
    113  NZ        21.0900   94.3290   36.3450 N.3    78  LYS78      -0.1314
    114  N         16.9640   89.9180   32.8490 N.am   79  PRO79      -0.2727
    115  CA        16.3410   88.7540   32.1990 C.3    79  PRO79       0.1402
    116  C         15.0430   88.2980   32.8140 C.2    79  PRO79       0.2269
    117  O         14.1100   87.8900   32.1330 O.2    79  PRO79      -0.2865
    118  CB        17.3820   87.6650   32.3420 C.3    79  PRO79       0.0296
    119  CG        18.6510   88.3530   32.6530 C.3    79  PRO79       0.0237
    120  CD        18.3670   89.7040   33.2060 C.3    79  PRO79       0.0939
    121  N         12.7490   89.9460   34.1760 N.3    81  LEU81      -0.1245
    122  CA        11.6370   90.8470   33.8730 C.3    81  LEU81       0.1561
    123  C         11.1560   90.8120   32.4260 C.2    81  LEU81       0.2260
    124  O         10.1520   91.3980   32.0750 O.2    81  LEU81      -0.2867
    125  CB        12.0500   92.2950   34.2170 C.3    81  LEU81       0.0270
    126  CG        12.5130   92.5160   35.6840 C.3    81  LEU81       0.0019
    127  CD1       12.9130   93.9550   35.9580 C.3    81  LEU81       0.0001
    128  CD2       11.4380   92.0550   36.6770 C.3    81  LEU81       0.0001
    129  N          7.4460   91.9310   30.1820 N.3    85  VAL85      -0.1245
    130  CA         7.5910   93.1490   29.4100 C.3    85  VAL85       0.1561
    131  C          7.1700   92.8690   27.9530 C.2    85  VAL85       0.2260
    132  O          6.4660   93.6500   27.3320 O.2    85  VAL85      -0.2867
    133  CB         9.0500   93.6680   29.4680 C.3    85  VAL85       0.0252
    134  CG1        9.3490   94.5860   28.2620 C.3    85  VAL85       0.0019
    135  CG2        9.3250   94.3490   30.7850 C.3    85  VAL85       0.0019
    136  N         19.1450   91.5680   24.3060 N.3   102  VAL102     -0.1231
    137  CA        20.5230   91.4830   24.8640 C.3   102  VAL102      0.1692
    138  C         20.4920   90.7230   26.2210 C.2   102  VAL102      0.2592
    139  O         21.5000   90.6320   26.8580 O.2   102  VAL102     -0.2718
    140  CB        21.2520   92.7670   25.0040 C.3   102  VAL102      0.0266
    141  CG1       21.4300   93.4170   23.6240 C.3   102  VAL102      0.0020
    142  CG2       20.5450   93.7200   25.9290 C.3   102  VAL102      0.0020
    143  N         19.3440   90.1520   26.5620 N.am  103  ALA103     -0.1966
    144  CA        19.1760   89.5640   27.9490 C.3   103  ALA103      0.1728
    145  C         20.0030   88.3180   28.1080 C.2   103  ALA103      0.2616
    146  O         19.9570   87.4190   27.2690 O.2   103  ALA103     -0.2715
    147  CB        17.7220   89.2810   28.2160 C.3   103  ALA103      0.0334
    148  N         20.8160   88.2870   29.1550 N.am  104  ALA104     -0.1977
    149  CA        21.6630   87.1050   29.3960 C.3   104  ALA104      0.1597
    150  C         20.7530   85.8990   29.6810 C.2   104  ALA104      0.2287
    151  O         19.7720   86.0050   30.3900 O.2   104  ALA104     -0.2864
    152  CB        22.6170   87.3420   30.5440 C.3   104  ALA104      0.0319
    153  N         24.4620   88.5290   22.6740 N.3   124  MET124     -0.1231
    154  CA        25.0670   88.4520   23.9810 C.3   124  MET124      0.1687
    155  C         26.3470   89.3150   23.8620 C.2   124  MET124      0.2434
    156  O         27.3920   88.8260   23.3890 O.2   124  MET124     -0.2733
    157  CB        25.4410   87.0180   24.3960 C.3   124  MET124      0.0400
    158  CG        26.2270   86.8790   25.6850 C.3   124  MET124      0.0596
    159  SD        25.2770   87.5370   27.0110 S.3   124  MET124     -0.1393
    160  CE        26.5030   87.4720   28.4400 C.3   124  MET124      0.0692
    161  N         26.3140   90.5230   24.3670 N.am  125  PRO125     -0.2718
    162  CA        27.5040   91.3730   24.4610 C.3   125  PRO125      0.1535
    163  C         28.2930   91.0710   25.7140 C.2   125  PRO125      0.2599
    164  O         27.9950   90.0420   26.3970 O.2   125  PRO125     -0.2715
    165  CB        26.9040   92.7650   24.4560 C.3   125  PRO125      0.0310
    166  CG        25.5810   92.5810   25.1530 C.3   125  PRO125      0.0237
    167  CD        25.1110   91.1580   24.9190 C.3   125  PRO125      0.0939
    168  N         29.2940   91.8590   26.0390 N.am  126  ASN126     -0.1959
    169  CA        29.9150   91.7280   27.3610 C.3   126  ASN126      0.1819
    170  C         30.2310   93.0650   27.9080 C.2   126  ASN126      0.2621
    171  O         29.9360   94.1020   27.2840 O.2   126  ASN126     -0.2715
    172  CB        31.1330   90.7660   27.3140 C.3   126  ASN126      0.1195
    173  CG        32.3530   91.3370   26.6730 C.2   126  ASN126      0.2630
    174  OD1       32.3930   92.4690   26.1770 O.2   126  ASN126     -0.2716
    175  ND2       33.3800   90.4950   26.5580 N.am  126  ASN126     -0.0877
    176  N         30.8530   93.0840   29.0580 N.am  127  THR127     -0.1951
    177  CA        31.0840   94.3370   29.8220 C.3   127  THR127      0.1897
    178  C         31.9490   95.4060   29.1210 C.2   127  THR127      0.2313
    179  O         31.8020   96.5960   29.4110 O.2   127  THR127     -0.2863
    180  CB        31.7400   94.0210   31.1910 C.3   127  THR127      0.1794
    181  OG1       31.7270   95.1650   32.0620 O.3   127  THR127     -0.2208
    182  CG2       33.2340   93.6110   31.0190 C.3   127  THR127      0.0378
@<TRIPOS>BOND
     1   153   154    1
     2   156   155    2
     3   141   140    1
     4   155   154    1
     5   155   161   am
     6   154   157    1
     7    87    86    2
     8   136   137    1
     9   161   162    1
    10   161   167    1
    11   157   158    1
    12   165   162    1
    13   165   166    1
    14   162   163    1
    15     6     8    1
    16     6     5    1
    17   137   140    1
    18   137   138    1
    19   167   166    1
    20   140   142    1
    21    42    41    2
    22     1     2    1
    23    86    85    1
    24   158   159    1
    25   163   168   am
    26   163   164    2
    27     5     2    1
    28     5     7    1
    29   168   169    1
    30    34    33    2
    31   174   173    2
    32    41    40    1
    33   138   143   am
    34   138   139    2
    35    37    36    1
    36    37    38    1
    37     2     3    1
    38    40    43    1
    39    40    39    1
    40   175   173   am
    41   143   144    1
    42    85    88    1
    43    85    84    1
    44   173   172    1
    45    92    93    1
    46    97    96    1
    47    36    35    1
    48   159   160    1
    49    33    39   am
    50    33    32    1
    51    44    45    1
    52    96    93    1
    53    88    89    1
    54   146   145    2
    55   171   170    2
    56   172   169    1
    57   132   131    2
    58     4     3    2
    59   169   170    1
    60     3     9   am
    61    93    94    1
    62   170   176   am
    63    48    45    1
    64   144   145    1
    65   144   147    1
    66   131   130    1
    67   145   148   am
    68    35    32    1
    69    45    46    1
    70    32    31    1
    71   134   133    1
    72    89    90    2
    73    89    91   am
    74     9    10    1
    75    12    11    2
    76    94    98   am
    77    94    95    2
    78   176   177    1
    79    25    24    2
    80   178   179    2
    81   178   177    1
    82   148   149    1
    83    11    10    1
    84    11    13   am
    85   149   150    1
    86   149   152    1
    87    98    99    1
    88   130   133    1
    89   130   129    1
    90   133   135    1
    91    46    47    2
    92    31    24   am
    93   150   151    2
    94   177   180    1
    95    14    13    1
    96    14    17    1
    97    14    15    1
    98    24    23    1
    99    21    20    2
   100   104   102    1
   101   103   102    1
   102   101   100    2
   103    18    15   am
   104    18    19    1
   105    15    16    2
   106    99   102    1
   107    99   100    1
   108    20    19    1
   109    20    22   am
   110   182   180    1
   111   180   181    1
   112    23    22    1
   113    23    26    1
   114   100   105   am
   115    76    75    2
   116    83    81    1
   117   124   123    2
   118   117   116    2
   119   115   118    1
   120   115   116    1
   121   115   114    1
   122    26    27    1
   123   118   119    1
   124   123   122    1
   125   119   120    1
   126   108   107    2
   127   105   106    1
   128    75    74    1
   129   114   107   am
   130   114   120    1
   131    81    80    2
   132    81    82    1
   133   107   106    1
   134    49    50    1
   135    80    79    1
   136   106   109    1
   137    27    28    1
   138    77    74    1
   139    77    78    1
   140   122   121    1
   141   122   125    1
   142    74    73    1
   143   125   126    1
   144    50    53    1
   145    50    51    1
   146    53    54    1
   147    28    29    1
   148    79    78    1
   149    29    30    1
   150    56    54   ar
   151    56    58   ar
   152   109   110    1
   153    54    55   ar
   154   110   111    1
   155   111   112    1
   156    51    52    2
   157    51    59   am
   158    58    57   ar
   159   126   127    1
   160   126   128    1
   161    68    67    2
   162    59    60    1
   163    55    57   ar
   164   113   112    1
   165    71    70    2
   166    67    66    1
   167    65    61   am
   168    65    66    1
   169    60    61    1
   170    60    63    1
   171    70    72   am
   172    70    69    1
   173    61    62    2
   174    66    69    1
   175    63    64    1
