@<TRIPOS>MOLECULE
tmp/5bsgE00.pdb
 190 184 0 0 0
SMALL
GASTEIGER

@<TRIPOS>ATOM
      1  N         71.5340  102.0770   15.4750 N.3    14  ILE14      -0.1231
      2  CA        72.6010  101.1130   15.3910 C.3    14  ILE14       0.1692
      3  C         72.0340   99.7700   15.6910 C.2    14  ILE14       0.2593
      4  O         71.7210   99.4390   16.8270 O.2    14  ILE14      -0.2718
      5  CB        73.7370  101.4230   16.3660 C.3    14  ILE14       0.0266
      6  CG1       74.2450  102.8790   16.1660 C.3    14  ILE14       0.0019
      7  CG2       74.8830  100.4390   16.1820 C.3    14  ILE14       0.0020
      8  CD1       74.8070  103.1800   14.7950 C.3    14  ILE14       0.0001
      9  N         71.8960   98.9850   14.6360 N.am   15  GLY15      -0.1942
     10  CA        71.1910   97.7180   14.7040 C.3    15  GLY15       0.2014
     11  C         69.8290   97.8600   14.0200 C.2    15  GLY15       0.2639
     12  O         68.8510   98.2840   14.6260 O.2    15  GLY15      -0.2714
     13  N         69.7830   97.5180   12.7360 N.am   16  ALA16      -0.1963
     14  CA        68.6110   97.8160   11.8920 C.3    16  ALA16       0.1728
     15  C         67.5570   96.6780   11.9350 C.2    16  ALA16       0.2617
     16  O         67.1190   96.2090   10.8840 O.2    16  ALA16      -0.2715
     17  CB        69.0620   98.0910   10.4530 C.3    16  ALA16       0.0334
     18  N         67.1720   96.2720   13.1390 N.am   17  GLY17      -0.1940
     19  CA        66.3110   95.1590   13.3100 C.3    17  GLY17       0.2014
     20  C         64.8560   95.4900   13.4760 C.2    17  GLY17       0.2639
     21  O         64.3930   96.5590   13.0980 O.2    17  GLY17      -0.2714
     22  N         64.1390   94.5420   14.0700 N.am   18  LYS18      -0.1963
     23  CA        62.6850   94.6420   14.2530 C.3    18  LYS18       0.1728
     24  C         62.3070   95.8030   15.1830 C.2    18  LYS18       0.2616
     25  O         61.4140   96.5590   14.8980 O.2    18  LYS18      -0.2715
     26  CB        62.0860   93.3200   14.7980 C.3    18  LYS18       0.0311
     27  CG        62.3960   92.1490   13.8490 C.3    18  LYS18       0.0038
     28  CD        62.0200   90.7650   14.3550 C.3    18  LYS18       0.0206
     29  CE        63.1820   89.8270   14.7120 C.3    18  LYS18       0.1093
     30  NZ        63.6220   90.0870   16.1040 N.3    18  LYS18      -0.1314
     31  N         62.9890   95.9290   16.2950 N.am   19  MET19      -0.1963
     32  CA        62.6420   96.9810   17.2570 C.3    19  MET19       0.1736
     33  C         62.9860   98.3680   16.6670 C.2    19  MET19       0.2616
     34  O         62.1720   99.3020   16.7480 O.2    19  MET19      -0.2715
     35  CB        63.3460   96.7790   18.6180 C.3    19  MET19       0.0427
     36  CG        62.9590   97.8150   19.6360 C.3    19  MET19       0.0599
     37  SD        61.2180   98.0970   20.0230 S.3    19  MET19      -0.1393
     38  CE        60.8590   96.4360   20.6380 C.3    19  MET19       0.0692
     39  N         64.1070   98.4800   15.9940 N.am   20  ALA20      -0.1977
     40  CA        64.4300   99.7410   15.3110 C.3    20  ALA20       0.1597
     41  C         63.3900  100.1480   14.3040 C.2    20  ALA20       0.2287
     42  O         62.9720  101.2950   14.2100 O.2    20  ALA20      -0.2864
     43  CB        65.7920   99.6540   14.6560 C.3    20  ALA20       0.0319
     44  N         72.2630  101.7560    9.4130 N.3    41  ALA41      -0.1231
     45  CA        73.2220  101.0200    8.5900 C.3    41  ALA41       0.1694
     46  C         72.9700   99.5700    8.7880 C.2    41  ALA41       0.2592
     47  O         72.6220   99.1320    9.8820 O.2    41  ALA41      -0.2718
     48  CB        74.6320  101.3570    8.9740 C.3    41  ALA41       0.0304
     49  N         73.0920   98.8350    7.7020 N.am   42  ILE42      -0.1966
     50  CA        72.8730   97.4250    7.7020 C.3    42  ILE42       0.1727
     51  C         74.0680   96.6370    8.2080 C.2    42  ILE42       0.2616
     52  O         75.1430   97.1420    8.2510 O.2    42  ILE42      -0.2715
     53  CB        72.5440   97.0580    6.2490 C.3    42  ILE42       0.0290
     54  CG1       71.0880   96.7110    6.1440 C.3    42  ILE42       0.0022
     55  CG2       73.4420   95.9540    5.7190 C.3    42  ILE42       0.0023
     56  CD1       70.1770   97.6510    6.9190 C.3    42  ILE42       0.0001
     57  N         73.8490   95.4100    8.6630 N.am   43  HIS43      -0.1959
     58  CA        74.9710   94.5700    9.0430 C.3    43  HIS43       0.1787
     59  C         75.2760   93.5690    7.8810 C.2    43  HIS43       0.2621
     60  O         76.0160   93.8970    6.9530 O.2    43  HIS43      -0.2715
     61  CB        74.7040   93.9330   10.4220 C.3    43  HIS43       0.0785
     62  CG        75.8730   93.1930   10.9860 C.ar   43  HIS43       0.0821
     63  ND1       75.8240   91.8480   11.2910 N.ar   43  HIS43      -0.2267
     64  CD2       77.1300   93.5950   11.2770 C.ar   43  HIS43       0.1154
     65  CE1       76.9970   91.4560   11.7600 C.ar   43  HIS43       0.1986
     66  NE2       77.8050   92.4980   11.7670 N.ar   43  HIS43      -0.2212
     67  N         74.6850   92.3800    7.9190 N.am   44  SER44      -0.1936
     68  CA        74.9030   91.3540    6.8620 C.3    44  SER44       0.2055
     69  C         73.6720   91.1430    5.9810 C.2    44  SER44       0.2643
     70  O         73.7750   90.9420    4.7870 O.2    44  SER44      -0.2714
     71  CB        75.3460   90.0210    7.4890 C.3    44  SER44       0.2130
     72  OG        74.2890   89.4000    8.1750 O.3    44  SER44      -0.2179
     73  N         72.5080   91.1830    6.6050 N.am   45  ASN45      -0.1971
     74  CA        71.2370   90.9260    5.9350 C.3    45  ASN45       0.1688
     75  C         70.7350   92.0870    5.0580 C.2    45  ASN45       0.2292
     76  O         70.2810   93.0850    5.5850 O.2    45  ASN45      -0.2864
     77  CB        70.2160   90.6060    7.0150 C.3    45  ASN45       0.1181
     78  CG        68.8580   90.2900    6.4610 C.2    45  ASN45       0.2629
     79  OD1       68.6340   90.2610    5.2470 O.2    45  ASN45      -0.2716
     80  ND2       67.9270   90.0840    7.3590 N.am   45  ASN45      -0.0877
     81  N         67.0340   93.8410    5.3630 N.3    48  ARG48      -0.1245
     82  CA        66.8160   94.9500    6.2810 C.3    48  ARG48       0.1563
     83  C         66.9450   96.2700    5.5450 C.2    48  ARG48       0.2260
     84  O         66.3220   97.2670    5.9240 O.2    48  ARG48      -0.2867
     85  CB        67.7900   94.9130    7.4700 C.3    48  ARG48       0.0307
     86  CG        67.7240   93.6490    8.3060 C.3    48  ARG48       0.0489
     87  CD        66.2980   93.2580    8.6700 C.3    48  ARG48       0.2205
     88  NE        65.6340   94.2900    9.4540 N.pl3  48  ARG48      -0.0865
     89  CZ        64.3280   94.5130    9.4780 C.cat  48  ARG48       0.5346
     90  NH1       63.4930   93.7850    8.7530 N.pl3  48  ARG48       0.1354
     91  NH2       63.8490   95.4660   10.2440 N.pl3  48  ARG48       0.1354
     92  N         78.1320  101.9940   10.6890 N.3    63  ASN63      -0.1240
     93  CA        77.6830  102.4920   11.9960 C.3    63  ASN63       0.1653
     94  C         78.2730  103.8640   12.3140 C.2    63  ASN63       0.2266
     95  O         77.6070  104.7480   12.8500 O.2    63  ASN63      -0.2867
     96  CB        78.0740  101.5620   13.1280 C.3    63  ASN63       0.1155
     97  CG        77.3280  100.2510   13.0960 C.2    63  ASN63       0.2627
     98  OD1       76.3560  100.0740   12.3760 O.2    63  ASN63      -0.2716
     99  ND2       77.7830   99.3400   13.9050 N.am   63  ASN63      -0.0877
    100  N         70.1790   99.3830   19.1190 N.3    76  SER76      -0.1202
    101  CA        69.1640   98.3440   18.9760 C.3    76  SER76       0.2020
    102  C         69.7350   97.0550   18.4430 C.2    76  SER76       0.2619
    103  O         69.0710   96.3500   17.6620 O.2    76  SER76      -0.2717
    104  CB        68.0180   98.8520   18.0790 C.3    76  SER76       0.2103
    105  OG        68.5170   99.6020   16.9350 O.3    76  SER76      -0.2182
    106  N         70.9370   96.7380   18.8800 N.am   77  VAL77      -0.1965
    107  CA        71.5500   95.4240   18.6190 C.3    77  VAL77       0.1727
    108  C         71.2260   94.4970   19.7960 C.2    77  VAL77       0.2616
    109  O         70.7840   94.9430   20.8680 O.2    77  VAL77      -0.2715
    110  CB        73.0860   95.4980   18.3950 C.3    77  VAL77       0.0290
    111  CG1       73.4160   96.3620   17.1950 C.3    77  VAL77       0.0023
    112  CG2       73.7860   96.0090   19.6320 C.3    77  VAL77       0.0023
    113  N         71.4360   93.2080   19.5830 N.am   78  LYS78      -0.1964
    114  CA        71.2370   92.2050   20.6150 C.3    78  LYS78       0.1713
    115  C         72.1710   92.5190   21.7850 C.2    78  LYS78       0.2458
    116  O         73.3060   93.0040   21.5730 O.2    78  LYS78      -0.2730
    117  CB        71.5130   90.7990   20.0510 C.3    78  LYS78       0.0311
    118  CG        70.4660   90.2920   19.0870 C.3    78  LYS78       0.0038
    119  CD        69.1370   90.0810   19.8180 C.3    78  LYS78       0.0206
    120  CE        68.2310   88.9460   19.2730 C.3    78  LYS78       0.1093
    121  NZ        67.8860   89.0800   17.8490 N.3    78  LYS78      -0.1314
    122  N         71.7440   92.2510   23.0230 N.am   79  PRO79      -0.2727
    123  CA        72.5080   92.7200   24.2090 C.3    79  PRO79       0.1402
    124  C         73.9410   92.2300   24.2650 C.2    79  PRO79       0.2269
    125  O         74.8470   92.9490   24.6640 O.2    79  PRO79      -0.2865
    126  CB        71.7620   92.1410   25.3880 C.3    79  PRO79       0.0296
    127  CG        70.4900   91.6590   24.8600 C.3    79  PRO79       0.0237
    128  CD        70.5280   91.5330   23.3750 C.3    79  PRO79       0.0939
    129  N         75.9270   91.7280   21.9570 N.3    81  LEU81      -0.1245
    130  CA        76.7670   92.4130   20.9890 C.3    81  LEU81       0.1561
    131  C         77.0120   93.9030   21.2970 C.2    81  LEU81       0.2260
    132  O         77.8700   94.5350   20.6690 O.2    81  LEU81      -0.2867
    133  CB        76.1730   92.3200   19.5950 C.3    81  LEU81       0.0270
    134  CG        75.8850   90.9110   19.0740 C.3    81  LEU81       0.0019
    135  CD1       75.3110   90.9540   17.6570 C.3    81  LEU81       0.0001
    136  CD2       77.1380   90.0270   19.1340 C.3    81  LEU81       0.0001
    137  N         80.1370   96.8840   20.2070 N.3    85  VAL85      -0.1245
    138  CA        79.6380   97.9160   19.2710 C.3    85  VAL85       0.1561
    139  C         79.9740   99.3070   19.7920 C.2    85  VAL85       0.2260
    140  O         80.3430  100.1820   19.0270 O.2    85  VAL85      -0.2867
    141  CB        78.1030   97.7290   19.0340 C.3    85  VAL85       0.0252
    142  CG1       77.4290   98.9610   18.4710 C.3    85  VAL85       0.0019
    143  CG2       77.8760   96.5470   18.0970 C.3    85  VAL85       0.0019
    144  N         68.0430  100.2470   23.9190 N.3   102  VAL102     -0.1231
    145  CA        66.8880   99.3970   24.1570 C.3   102  VAL102      0.1692
    146  C         67.2460   97.9610   24.5030 C.2   102  VAL102      0.2592
    147  O         66.3840   97.1200   24.6120 O.2   102  VAL102     -0.2718
    148  CB        65.8950   99.4190   22.9820 C.3   102  VAL102      0.0266
    149  CG1       65.3440  100.8440   22.7570 C.3   102  VAL102      0.0020
    150  CG2       66.5020   98.9010   21.7040 C.3   102  VAL102      0.0020
    151  N         68.5150   97.7230   24.7710 N.am  103  ALA103     -0.1966
    152  CA        68.9790   96.3380   25.0230 C.3   103  ALA103      0.1728
    153  C         68.4770   95.7640   26.3190 C.2   103  ALA103      0.2616
    154  O         68.5530   96.3800   27.3760 O.2   103  ALA103     -0.2715
    155  CB        70.4790   96.2980   25.0100 C.3   103  ALA103      0.0334
    156  N         67.8810   94.5940   26.2210 N.am  104  ALA104     -0.1977
    157  CA        67.3390   93.9690   27.4110 C.3   104  ALA104      0.1597
    158  C         68.5090   93.6180   28.3420 C.2   104  ALA104      0.2287
    159  O         69.5380   93.1190   27.8780 O.2   104  ALA104     -0.2864
    160  CB        66.5420   92.7050   27.0540 C.3   104  ALA104      0.0319
    161  N         63.3230  100.0770   28.1740 N.3   124  MET124     -0.1231
    162  CA        62.9420   98.6610   28.0640 C.3   124  MET124      0.1687
    163  C         61.5130   98.6300   27.4780 C.2   124  MET124      0.2434
    164  O         60.5470   98.8840   28.1710 O.2   124  MET124     -0.2733
    165  CB        62.9480   97.9660   29.3780 C.3   124  MET124      0.0400
    166  CG        62.4690   96.5030   29.3140 C.3   124  MET124      0.0596
    167  SD        63.4810   95.5580   28.1650 S.3   124  MET124     -0.1393
    168  CE        62.5560   93.9970   28.1670 C.3   124  MET124      0.0692
    169  N         61.4090   98.4290   26.1780 N.am  125  PRO125     -0.2718
    170  CA        60.1160   98.2610   25.5240 C.3   125  PRO125      0.1535
    171  C         59.6730   96.8360   25.5940 C.2   125  PRO125      0.2599
    172  O         60.2510   96.0620   26.3670 O.2   125  PRO125     -0.2715
    173  CB        60.4000   98.6870   24.0720 C.3   125  PRO125      0.0310
    174  CG        61.7950   98.2440   23.8730 C.3   125  PRO125      0.0237
    175  CD        62.5300   98.2870   25.2240 C.3   125  PRO125      0.0939
    176  N         58.5700   96.5060   24.9270 N.am  126  ASN126     -0.1959
    177  CA        58.1550   95.1150   24.8250 C.3   126  ASN126      0.1819
    178  C         57.6220   94.8100   23.4200 C.2   126  ASN126      0.2621
    179  O         57.6520   95.6850   22.5370 O.2   126  ASN126     -0.2715
    180  CB        57.2150   94.6870   25.9660 C.3   126  ASN126      0.1195
    181  CG        55.8280   95.1830   25.8230 C.2   126  ASN126      0.2630
    182  OD1       55.4790   95.8420   24.8300 O.2   126  ASN126     -0.2716
    183  ND2       55.0080   94.8800   26.7990 N.am  126  ASN126     -0.0877
    184  N         57.2180   93.5560   23.2320 N.am  127  THR127     -0.1951
    185  CA        56.9260   93.0110   21.9110 C.3   127  THR127      0.1897
    186  C         55.7950   93.7280   21.2220 C.2   127  THR127      0.2313
    187  O         55.7400   93.7670   19.9880 O.2   127  THR127     -0.2863
    188  CB        56.5710   91.4860   22.0100 C.3   127  THR127      0.1794
    189  OG1       56.5170   90.9010   20.7140 O.3   127  THR127     -0.2208
    190  CG2       55.2580   91.2600   22.7050 C.3   127  THR127      0.0378
@<TRIPOS>BOND
     1    70    69    2
     2    75    76    2
     3    75    74    1
     4    79    78    2
     5    81    82    1
     6    83    84    2
     7    83    82    1
     8    55    53    1
     9    74    73    1
    10    74    77    1
    11    69    73   am
    12    69    68    1
    13    54    53    1
    14    54    56    1
    15    53    50    1
    16    82    85    1
    17    78    77    1
    18    78    80   am
    19    68    71    1
    20    68    67    1
    21    60    59    2
    22    85    86    1
    23    71    72    1
    24    49    50    1
    25    49    46   am
    26    50    51    1
    27    59    67   am
    28    59    58    1
    29    51    52    2
    30    51    57   am
    31    86    87    1
    32    45    46    1
    33    45    48    1
    34    45    44    1
    35    57    58    1
    36    87    88    1
    37    90    89    1
    38    46    47    2
    39    58    61    1
    40    88    89    2
    41    89    91    1
    42    61    62    1
    43    17    14    1
    44    92    93    1
    45    16    15    2
    46    62    64   ar
    47    62    63   ar
    48    64    66   ar
    49    63    65   ar
    50    65    66   ar
    51    14    15    1
    52    14    13    1
    53    15    18   am
    54    93    94    1
    55    93    96    1
    56    94    95    2
    57    98    97    2
    58    13    11   am
    59    97    96    1
    60    97    99   am
    61    21    20    2
    62    18    19    1
    63    19    20    1
    64    20    22   am
    65    27    28    1
    66    27    26    1
    67    11    12    2
    68    11    10    1
    69    22    23    1
    70    42    41    2
    71    23    26    1
    72    23    24    1
    73    41    40    1
    74    28    29    1
    75     9    10    1
    76     9     3   am
    77    43    40    1
    78    29    30    1
    79     8     6    1
    80    25    24    2
    81    24    31   am
    82    40    39    1
    83     2     1    1
    84     2     3    1
    85     2     5    1
    86     3     4    2
    87    39    33   am
    88     6     5    1
    89     7     5    1
    90    31    32    1
    91    33    34    2
    92    33    32    1
    93   105   104    1
    94   111   110    1
    95    32    35    1
    96   135   134    1
    97   103   102    2
    98   121   120    1
    99   104   101    1
   100   143   141    1
   101   110   107    1
   102   110   112    1
   103   102   106   am
   104   102   101    1
   105   142   141    1
   106    35    36    1
   107   107   106    1
   108   107   108    1
   109   101   100    1
   110   140   139    2
   111   141   138    1
   112   134   136    1
   113   134   133    1
   114   118   119    1
   115   118   117    1
   116   138   139    1
   117   138   137    1
   118   120   119    1
   119   113   108   am
   120   113   114    1
   121   133   130    1
   122    36    37    1
   123   108   109    2
   124   187   186    2
   125    37    38    1
   126   117   114    1
   127   114   115    1
   128   132   131    2
   129   189   188    1
   130   130   131    1
   131   130   129    1
   132   186   185    1
   133   116   115    2
   134   150   148    1
   135   115   122   am
   136   185   188    1
   137   185   184    1
   138   188   190    1
   139   179   178    2
   140   149   148    1
   141   148   145    1
   142   122   128    1
   143   122   123    1
   144   184   178   am
   145   128   127    1
   146   178   177    1
   147   174   173    1
   148   174   175    1
   149   144   145    1
   150   173   170    1
   151   145   146    1
   152   123   124    1
   153   123   126    1
   154   124   125    2
   155   146   147    2
   156   146   151   am
   157   151   152    1
   158   177   176    1
   159   177   180    1
   160   182   181    2
   161   127   126    1
   162   176   171   am
   163   155   152    1
   164   152   153    1
   165   175   169    1
   166   170   171    1
   167   170   169    1
   168   171   172    2
   169   181   180    1
   170   181   183   am
   171   169   163   am
   172   156   153   am
   173   156   157    1
   174   153   154    2
   175   160   157    1
   176   157   158    1
   177   163   162    1
   178   163   164    2
   179   159   158    2
   180   162   161    1
   181   162   165    1
   182   167   168    1
   183   167   166    1
   184   166   165    1
