@<TRIPOS>MOLECULE
tmp/5bsmB00.pdb
 205 199 0 0 0
SMALL
GASTEIGER

@<TRIPOS>ATOM
      1  N         10.5890    6.7880  -41.2450 N.3   182  SER182     -0.1202
      2  CA        11.0590    6.5490  -42.6050 C.3   182  SER182      0.2020
      3  C         11.3450    7.9310  -43.1830 C.2   182  SER182      0.2619
      4  O         10.7560    8.9230  -42.7180 O.2   182  SER182     -0.2717
      5  CB        10.0310    5.7880  -43.4450 C.3   182  SER182      0.2103
      6  OG         8.7610    6.4460  -43.5390 O.3   182  SER182     -0.2182
      7  N         12.2620    7.9770  -44.1520 N.am  183  SER183     -0.1937
      8  CA        12.7820    9.2010  -44.7710 C.3   183  SER183      0.2055
      9  C         11.8090   10.0660  -45.5870 C.2   183  SER183      0.2644
     10  O         12.2080   11.1400  -46.0480 O.2   183  SER183     -0.2714
     11  CB        13.9870    8.8490  -45.6660 C.3   183  SER183      0.2130
     12  OG        15.0110    8.1890  -44.9280 O.3   183  SER183     -0.2179
     13  N         10.5650    9.6010  -45.7720 N.am  184  GLY184     -0.1939
     14  CA         9.5280   10.3120  -46.5370 C.3   184  GLY184      0.2014
     15  C          9.7500   10.3340  -48.0400 C.2   184  GLY184      0.2640
     16  O          9.3280   11.2580  -48.7150 O.2   184  GLY184     -0.2714
     17  N         10.4190    9.3200  -48.5780 N.am  185  THR185     -0.1936
     18  CA        10.7810    9.3070  -50.0030 C.3   185  THR185      0.2028
     19  C          9.5880    9.1270  -50.9230 C.2   185  THR185      0.2643
     20  O          9.5270    9.7830  -51.9510 O.2   185  THR185     -0.2714
     21  CB        11.8730    8.2520  -50.3150 C.3   185  THR185      0.1808
     22  OG1       13.0220    8.5030  -49.4930 O.3   185  THR185     -0.2208
     23  CG2       12.2980    8.2880  -51.7910 C.3   185  THR185      0.0379
     24  N          8.6500    8.2460  -50.5560 N.am  186  THR186     -0.1936
     25  CA         7.4720    7.9150  -51.4000 C.3   186  THR186      0.2028
     26  C          6.1500    8.4250  -50.8200 C.2   186  THR186      0.2643
     27  O          5.0650    8.1010  -51.3200 O.2   186  THR186     -0.2714
     28  CB         7.3210    6.3820  -51.6200 C.3   186  THR186      0.1808
     29  OG1        6.8080    5.7510  -50.4270 O.3   186  THR186     -0.2208
     30  CG2        8.6710    5.7320  -52.0410 C.3   186  THR186      0.0379
     31  N          6.2450    9.1980  -49.7430 N.am  187  GLY187     -0.1939
     32  CA         5.0710    9.6560  -49.0180 C.3   187  GLY187      0.2014
     33  C          5.4280   10.3280  -47.7080 C.2   187  GLY187      0.2639
     34  O          6.5730   10.7990  -47.5080 O.2   187  GLY187     -0.2714
     35  N          4.4290   10.3790  -46.8260 N.am  188  LEU188     -0.1963
     36  CA         4.5880   10.9320  -45.4880 C.3   188  LEU188      0.1713
     37  C          5.3710    9.9530  -44.6130 C.2   188  LEU188      0.2458
     38  O          4.9820    8.7850  -44.4880 O.2   188  LEU188     -0.2730
     39  CB         3.2210   11.1970  -44.8490 C.3   188  LEU188      0.0310
     40  CG         2.2200   12.1700  -45.4990 C.3   188  LEU188      0.0022
     41  CD1        0.8260   11.9770  -44.8880 C.3   188  LEU188      0.0001
     42  CD2        2.6920   13.6210  -45.4020 C.3   188  LEU188      0.0001
     43  N          6.4660   10.4300  -43.9920 N.am  189  PRO189     -0.2716
     44  CA         7.2160    9.6940  -42.9750 C.3   189  PRO189      0.1536
     45  C          6.3360    8.7740  -42.1020 C.2   189  PRO189      0.2598
     46  O          5.2660    9.1630  -41.6240 O.2   189  PRO189     -0.2715
     47  CB         7.8070   10.8110  -42.1340 C.3   189  PRO189      0.0310
     48  CG         8.0490   11.9140  -43.1110 C.3   189  PRO189      0.0237
     49  CD         7.0080   11.7900  -44.1930 C.3   189  PRO189      0.0939
     50  N          6.7640    7.5330  -41.9240 N.am  190  LYS190     -0.1978
     51  CA         5.9950    6.6130  -41.1130 C.3   190  LYS190      0.1596
     52  C          6.7680    6.3360  -39.8390 C.2   190  LYS190      0.2287
     53  O          8.0030    6.2780  -39.8620 O.2   190  LYS190     -0.2864
     54  CB         5.6790    5.3300  -41.8910 C.3   190  LYS190      0.0298
     55  CG         4.7300    5.5330  -43.0810 C.3   190  LYS190      0.0038
     56  CD         4.5380    4.2710  -43.9300 C.3   190  LYS190      0.0206
     57  CE         5.8290    3.7950  -44.6030 C.3   190  LYS190      0.1093
     58  NZ         6.3830    4.7370  -45.6170 N.3   190  LYS190     -0.1314
     59  N         18.4760    9.3860  -38.6230 N.3   230  HIS230     -0.1241
     60  CA        18.1300    8.3240  -39.5330 C.3   230  HIS230      0.1621
     61  C         18.7550    7.0050  -39.0370 C.2   230  HIS230      0.2264
     62  O         19.9190    6.9340  -38.6480 O.2   230  HIS230     -0.2867
     63  CB        18.5770    8.6600  -40.9650 C.3   230  HIS230      0.0745
     64  CG        18.4340    7.5180  -41.9210 C.ar  230  HIS230      0.0817
     65  ND1       17.2110    7.0090  -42.2960 N.ar  230  HIS230     -0.2268
     66  CD2       19.3600    6.7770  -42.5680 C.ar  230  HIS230      0.1154
     67  CE1       17.3880    6.0010  -43.1300 C.ar  230  HIS230      0.1986
     68  NE2       18.6850    5.8340  -43.3080 N.ar  230  HIS230     -0.2212
     69  N         28.7800    2.1380  -48.3990 N.3   300  SER300     -0.1202
     70  CA        27.7040    3.0070  -48.8880 C.3   300  SER300      0.2020
     71  C         26.3640    2.3230  -48.6200 C.2   300  SER300      0.2619
     72  O         26.1710    1.1580  -48.9430 O.2   300  SER300     -0.2717
     73  CB        27.9070    3.3190  -50.3800 C.3   300  SER300      0.2103
     74  OG        26.7240    3.8030  -50.9890 O.3   300  SER300     -0.2182
     75  N         25.4530    3.0250  -47.9740 N.am  301  GLY301     -0.1942
     76  CA        24.1460    2.4450  -47.6800 C.3   301  GLY301      0.2014
     77  C         23.0580    3.3840  -48.1460 C.2   301  GLY301      0.2639
     78  O         23.3400    4.3690  -48.8350 O.2   301  GLY301     -0.2714
     79  N         21.8140    3.0620  -47.7790 N.am  302  ALA302     -0.1963
     80  CA        20.6770    3.9800  -47.8370 C.3   302  ALA302      0.1728
     81  C         20.0240    4.2310  -49.2210 C.2   302  ALA302      0.2616
     82  O         18.8480    4.5760  -49.2870 O.2   302  ALA302     -0.2715
     83  CB        21.0080    5.2860  -47.1340 C.3   302  ALA302      0.0334
     84  N         20.7420    4.0580  -50.3210 N.am  303  ALA303     -0.1964
     85  CA        20.1340    4.4000  -51.6170 C.3   303  ALA303      0.1713
     86  C         20.7850    3.6390  -52.7350 C.2   303  ALA303      0.2458
     87  O         21.9220    3.1970  -52.5680 O.2   303  ALA303     -0.2730
     88  CB        20.2270    5.9060  -51.8860 C.3   303  ALA303      0.0333
     89  N         20.0860    3.4950  -53.8820 N.am  304  PRO304     -0.2716
     90  CA        20.7290    2.7810  -54.9840 C.3   304  PRO304      0.1536
     91  C         22.1100    3.3740  -55.3190 C.2   304  PRO304      0.2598
     92  O         22.2900    4.6170  -55.3500 O.2   304  PRO304     -0.2715
     93  CB        19.7370    2.9740  -56.1540 C.3   304  PRO304      0.0310
     94  CG        18.4040    3.1730  -55.5020 C.3   304  PRO304      0.0237
     95  CD        18.6710    3.8460  -54.1840 C.3   304  PRO304      0.0939
     96  N         23.0660    2.4750  -55.5380 N.am  305  LEU305     -0.1978
     97  CA        24.3980    2.8090  -56.0350 C.3   305  LEU305      0.1596
     98  C         24.7900    1.8070  -57.1370 C.2   305  LEU305      0.2287
     99  O         24.7520    0.5910  -56.9140 O.2   305  LEU305     -0.2864
    100  CB        25.4460    2.7920  -54.8990 C.3   305  LEU305      0.0297
    101  CG        26.8990    3.1010  -55.3210 C.3   305  LEU305      0.0022
    102  CD1       27.0630    4.5300  -55.8360 C.3   305  LEU305      0.0001
    103  CD2       27.9290    2.8100  -54.2280 C.3   305  LEU305      0.0001
    104  N         28.5630   -2.0660  -50.3400 N.3   324  GLN324     -0.1231
    105  CA        27.2830   -1.5350  -49.8730 C.3   324  GLN324      0.1698
    106  C         26.6980   -2.2550  -48.6860 C.2   324  GLN324      0.2593
    107  O         26.9680   -3.4450  -48.4750 O.2   324  GLN324     -0.2718
    108  CB        26.2730   -1.5750  -50.9930 C.3   324  GLN324      0.0381
    109  CG        26.6240   -0.6200  -52.1030 C.3   324  GLN324      0.0905
    110  CD        25.6190   -0.6450  -53.2190 C.2   324  GLN324      0.2608
    111  OE1       24.3890   -0.5850  -52.9910 O.2   324  GLN324     -0.2717
    112  NE2       26.1280   -0.7310  -54.4430 N.am  324  GLN324     -0.0878
    113  N         25.9130   -1.5170  -47.9060 N.am  325  GLY325     -0.1942
    114  CA        24.9270   -2.1010  -46.9690 C.3   325  GLY325      0.2014
    115  C         23.5190   -1.8190  -47.5090 C.2   325  GLY325      0.2639
    116  O         23.3240   -0.8300  -48.2480 O.2   325  GLY325     -0.2714
    117  N         22.5370   -2.6570  -47.1580 N.am  326  TYR326     -0.1959
    118  CA        21.1590   -2.3920  -47.5470 C.3   326  TYR326      0.1771
    119  C         20.2450   -2.3750  -46.3270 C.2   326  TYR326      0.2620
    120  O         20.1080   -3.3820  -45.6340 O.2   326  TYR326     -0.2715
    121  CB        20.6970   -3.4030  -48.5800 C.3   326  TYR326      0.0574
    122  CG        19.2020   -3.5840  -48.7220 C.ar  326  TYR326     -0.0198
    123  CD1       18.3420   -2.4950  -48.7790 C.ar  326  TYR326     -0.0009
    124  CD2       18.6590   -4.8530  -48.8530 C.ar  326  TYR326     -0.0009
    125  CE1       16.9840   -2.6690  -48.9420 C.ar  326  TYR326      0.0417
    126  CE2       17.3000   -5.0490  -49.0180 C.ar  326  TYR326      0.0417
    127  CZ        16.4660   -3.9530  -49.0730 C.ar  326  TYR326      0.1957
    128  OH        15.1150   -4.1230  -49.2310 O.3   326  TYR326     -0.2866
    129  N         19.6440   -1.2110  -46.0620 N.am  327  GLY327     -0.1940
    130  CA        18.7880   -1.0470  -44.9240 C.3   327  GLY327      0.2014
    131  C         17.4250   -0.5060  -45.2540 C.2   327  GLY327      0.2639
    132  O         17.2270    0.1950  -46.2390 O.2   327  GLY327     -0.2714
    133  N         16.4750   -0.8300  -44.4000 N.am  328  MET328     -0.1963
    134  CA        15.1370   -0.2620  -44.4970 C.3   328  MET328      0.1736
    135  C         14.6540   -0.0900  -43.0780 C.2   328  MET328      0.2617
    136  O         14.7550   -1.0290  -42.2690 O.2   328  MET328     -0.2715
    137  CB        14.2370   -1.2350  -45.2460 C.3   328  MET328      0.0427
    138  CG        12.7930   -0.7940  -45.4000 C.3   328  MET328      0.0599
    139  SD        11.7670   -2.2660  -45.5390 S.3   328  MET328     -0.1393
    140  CE        10.1680   -1.4960  -45.8900 C.3   328  MET328      0.0692
    141  N         14.1210    1.0740  -42.7500 N.am  329  THR329     -0.1937
    142  CA        13.7410    1.3390  -41.3470 C.3   329  THR329      0.2028
    143  C         12.9470    0.2050  -40.6850 C.2   329  THR329      0.2642
    144  O         13.3560   -0.2770  -39.6260 O.2   329  THR329     -0.2714
    145  CB        13.0580    2.7110  -41.1470 C.3   329  THR329      0.1808
    146  OG1       13.8640    3.7220  -41.7500 O.3   329  THR329     -0.2208
    147  CG2       12.9380    3.0440  -39.6600 C.3   329  THR329      0.0379
    148  N         11.8540   -0.2390  -41.3160 N.am  330  GLU330     -0.1976
    149  CA        11.0150   -1.3350  -40.7990 C.3   330  GLU330      0.1602
    150  C         11.7960   -2.6300  -40.5140 C.2   330  GLU330      0.2287
    151  O         11.4310   -3.4380  -39.6450 O.2   330  GLU330     -0.2864
    152  CB         9.8700   -1.6560  -41.7920 C.3   330  GLU330      0.0415
    153  CG         8.8560   -0.5410  -41.9910 C.3   330  GLU330      0.1163
    154  CD         9.2390    0.4860  -43.0420 C.2   330  GLU330      0.3649
    155  OE1       10.4510    0.7620  -43.2830 O.co2 330  GLU330     -0.2457
    156  OE2        8.3010    1.0550  -43.6420 O.co2 330  GLU330     -0.2457
    157  N         24.3050   -4.9020  -53.2010 N.3   353  CYS353     -0.1235
    158  CA        24.0330   -4.2100  -51.9540 C.3   353  CYS353      0.1677
    159  C         24.3570   -5.0740  -50.7170 C.2   353  CYS353      0.2270
    160  O         24.1250   -4.6530  -49.5670 O.2   353  CYS353     -0.2867
    161  CB        22.5960   -3.7140  -51.9440 C.3   353  CYS353      0.0956
    162  SG        21.4860   -5.0850  -51.7680 S.3   353  CYS353     -0.0801
    163  N          9.2610   -5.7880  -48.2700 N.3   411  THR411     -0.1218
    164  CA        10.0380   -4.5500  -48.2900 C.3   411  THR411      0.1862
    165  C          9.5080   -3.5070  -49.2680 C.2   411  THR411      0.2287
    166  O          9.7860   -2.3200  -49.0930 O.2   411  THR411     -0.2866
    167  CB        11.5210   -4.8060  -48.6670 C.3   411  THR411      0.1770
    168  OG1       11.5770   -5.3890  -49.9810 O.3   411  THR411     -0.2211
    169  CG2       12.1530   -5.7290  -47.6630 C.3   411  THR411      0.0375
    170  N         10.7200   -3.4050  -52.0150 N.3   413  ASP413     -0.1239
    171  CA        11.9240   -3.2790  -52.8290 C.3   413  ASP413      0.1674
    172  C         12.0550   -4.4690  -53.7840 C.2   413  ASP413      0.2266
    173  O         11.7440   -5.5840  -53.3830 O.2   413  ASP413     -0.2867
    174  CB        13.1490   -3.2200  -51.9190 C.3   413  ASP413      0.1410
    175  CG        13.1700   -1.9630  -51.0890 C.2   413  ASP413      0.3668
    176  OD1       12.7210   -0.9060  -51.5870 O.co2 413  ASP413     -0.2456
    177  OD2       13.6330   -2.0180  -49.9430 O.co2 413  ASP413     -0.2456
    178  N         19.8280   -4.8240  -55.8180 N.3   425  ILE425     -0.1245
    179  CA        18.5460   -4.1200  -55.7980 C.3   425  ILE425      0.1561
    180  C         18.2770   -3.4810  -57.1510 C.2   425  ILE425      0.2260
    181  O         19.1140   -2.7680  -57.6710 O.2   425  ILE425     -0.2867
    182  CB        18.4930   -3.0690  -54.6680 C.3   425  ILE425      0.0252
    183  CG1       18.3440   -3.7920  -53.3380 C.3   425  ILE425      0.0019
    184  CG2       17.3380   -2.0820  -54.8710 C.3   425  ILE425      0.0019
    185  CD1       18.6120   -2.9410  -52.1230 C.3   425  ILE425      0.0001
    186  N         12.7340    0.3930  -56.0910 N.3   428  ARG428     -0.1245
    187  CA        11.5100    0.1760  -55.2980 C.3   428  ARG428      0.1563
    188  C         10.4180   -0.3190  -56.2650 C.2   428  ARG428      0.2260
    189  O         10.3500    0.1610  -57.4120 O.2   428  ARG428     -0.2867
    190  CB        11.0740    1.4580  -54.5930 C.3   428  ARG428      0.0307
    191  CG        12.1470    2.0290  -53.6830 C.3   428  ARG428      0.0489
    192  CD        12.0360    3.5360  -53.5470 C.3   428  ARG428      0.2205
    193  NE        13.0970    4.1160  -52.7140 N.pl3 428  ARG428     -0.0865
    194  CZ        13.0280    4.2290  -51.3860 C.cat 428  ARG428      0.5346
    195  NH1       14.0160    4.8030  -50.7120 N.pl3 428  ARG428      0.1354
    196  NH2       11.9720    3.7800  -50.7180 N.pl3 428  ARG428      0.1354
    197  N         18.5450    9.7490  -50.0540 N.3   519  LYS519     -0.1245
    198  CA        17.6560    9.1410  -51.0450 C.3   519  LYS519      0.1561
    199  C         17.1360   10.2360  -51.9410 C.2   519  LYS519      0.2260
    200  O         16.7170   11.2950  -51.4500 O.2   519  LYS519     -0.2867
    201  CB        16.4540    8.4230  -50.4000 C.3   519  LYS519      0.0271
    202  CG        16.7270    7.1920  -49.5280 C.3   519  LYS519      0.0035
    203  CD        17.1510    7.5680  -48.1100 C.3   519  LYS519      0.0206
    204  CE        16.9390    6.4660  -47.0800 C.3   519  LYS519      0.1093
    205  NZ        17.5390    5.1270  -47.3570 N.3   519  LYS519     -0.1314
@<TRIPOS>BOND
     1   181   180    2
     2   189   188    2
     3   180   179    1
     4    98    99    2
     5    98    97    1
     6   188   187    1
     7    93    94    1
     8    93    90    1
     9   186   187    1
    10    97    96    1
    11    97   100    1
    12   102   101    1
    13   178   179    1
    14   179   182    1
    15    96    91   am
    16    94    95    1
    17    92    91    2
    18   101   100    1
    19   101   103    1
    20    91    90    1
    21   187   190    1
    22    90    89    1
    23   184   182    1
    24   182   183    1
    25   190   191    1
    26   112   110   am
    27    95    89    1
    28    89    86   am
    29   172   173    2
    30   172   171    1
    31   191   192    1
    32   192   193    1
    33   183   185    1
    34   110   111    2
    35   110   109    1
    36   157   158    1
    37   171   170    1
    38   171   174    1
    39    86    87    2
    40    86    85    1
    41   193   194    2
    42   109   108    1
    43    30    28    1
    44   158   161    1
    45   158   159    1
    46    20    19    2
    47   161   162    1
    48   199   200    2
    49   199   198    1
    50   174   175    1
    51    88    85    1
    52    23    21    1
    53    28    25    1
    54    28    29    1
    55    85    84    1
    56   176   175   ar
    57    25    26    1
    58    25    24    1
    59   194   196    1
    60   194   195    1
    61    27    26    2
    62   175   177   ar
    63   198   201    1
    64   198   197    1
    65   108   105    1
    66    74    73    1
    67    19    24   am
    68    19    18    1
    69    26    31   am
    70   159   160    2
    71   201   202    1
    72    73    70    1
    73   104   105    1
    74    84    81   am
    75    21    18    1
    76    21    22    1
    77    18    17    1
    78   168   167    1
    79   105   106    1
    80    31    32    1
    81   202   203    1
    82    82    81    2
    83   165   166    2
    84   165   164    1
    85   128   127    1
    86    81    80    1
    87   127   126   ar
    88   127   125   ar
    89   126   124   ar
    90    32    33    1
    91    72    71    2
    92   125   123   ar
    93    70    71    1
    94    70    69    1
    95   124   122   ar
    96    78    77    2
    97   123   122   ar
    98   122   121    1
    99    16    15    2
   100   106   107    2
   101   106   113   am
   102   167   164    1
   103   167   169    1
   104    71    75   am
   105   121   118    1
   106    17    15   am
   107   164   163    1
   108   116   115    2
   109    77    79   am
   110    77    76    1
   111   203   204    1
   112    15    14    1
   113    75    76    1
   114   113   114    1
   115    80    79    1
   116    80    83    1
   117    33    34    2
   118    33    35   am
   119   118   117    1
   120   118   119    1
   121   115   117   am
   122   115   114    1
   123   205   204    1
   124    35    36    1
   125    14    13    1
   126   119   129   am
   127   119   120    2
   128   132   131    2
   129   129   130    1
   130    10     9    2
   131   140   139    1
   132    13     9   am
   133    11    12    1
   134    11     8    1
   135    58    57    1
   136     9     8    1
   137   139   138    1
   138    40    42    1
   139    40    41    1
   140    40    39    1
   141    36    39    1
   142    36    37    1
   143   138   137    1
   144   131   130    1
   145   131   133   am
   146   137   134    1
   147     8     7    1
   148    37    38    2
   149    37    43   am
   150    57    56    1
   151   134   133    1
   152   134   135    1
   153    49    43    1
   154    49    48    1
   155     7     3   am
   156    43    44    1
   157    56    55    1
   158   156   154   ar
   159     6     5    1
   160     5     2    1
   161    68    67   ar
   162    68    66   ar
   163   155   154   ar
   164     3     4    2
   165     3     2    1
   166    67    65   ar
   167    48    47    1
   168    55    54    1
   169   135   141   am
   170   135   136    2
   171   154   153    1
   172    44    47    1
   173    44    45    1
   174   141   142    1
   175     2     1    1
   176    66    64   ar
   177    65    64   ar
   178    45    50   am
   179    45    46    2
   180   153   152    1
   181    50    51    1
   182    64    63    1
   183    54    51    1
   184   152   149    1
   185   146   145    1
   186   142   145    1
   187   142   143    1
   188   148   149    1
   189   148   143   am
   190   145   147    1
   191    51    52    1
   192    63    60    1
   193   149   150    1
   194   143   144    2
   195   150   151    2
   196    53    52    2
   197    60    61    1
   198    60    59    1
   199    61    62    2
