@<TRIPOS>MOLECULE
tmp/5bsrA01.pdb
 165 156 0 0 0
SMALL
GASTEIGER

@<TRIPOS>ATOM
      1  N         68.1890   30.9020   15.3220 N.3   231  TYR231     -0.1241
      2  CA        68.1720   30.0680   14.1310 C.3   231  TYR231      0.1605
      3  C         66.7730   29.5080   13.8760 C.2   231  TYR231      0.2264
      4  O         66.2090   29.7130   12.8040 O.2   231  TYR231     -0.2867
      5  CB        69.1680   28.9230   14.3210 C.3   231  TYR231      0.0534
      6  CG        69.4630   28.0760   13.1060 C.ar  231  TYR231     -0.0201
      7  CD1       70.6770   28.2050   12.4280 C.ar  231  TYR231     -0.0009
      8  CD2       68.5490   27.1280   12.6490 C.ar  231  TYR231     -0.0009
      9  CE1       70.9690   27.4180   11.3260 C.ar  231  TYR231      0.0417
     10  CE2       68.8290   26.3420   11.5450 C.ar  231  TYR231      0.0417
     11  CZ        70.0380   26.4930   10.8900 C.ar  231  TYR231      0.1957
     12  OH        70.3100   25.7130    9.7990 O.3   231  TYR231     -0.2866
     13  N         71.9260   24.1620    7.6480 N.3   300  GLY300     -0.1210
     14  CA        72.8000   25.2900    7.9200 C.3   300  GLY300      0.1956
     15  C         73.7480   24.9550    9.0480 C.2   300  GLY300      0.2612
     16  O         73.9590   23.7800    9.3560 O.2   300  GLY300     -0.2717
     17  N         74.3080   26.0030    9.6490 N.am  301  ALA301     -0.1965
     18  CA        75.2570   25.9310   10.7720 C.3   301  ALA301      0.1728
     19  C         76.6550   25.4300   10.4110 C.2   301  ALA301      0.2616
     20  O         77.6470   25.9220   10.9420 O.2   301  ALA301     -0.2715
     21  CB        74.6880   25.1260   11.9340 C.3   301  ALA301      0.0334
     22  N         76.7250   24.4360    9.5310 N.am  302  ALA302     -0.1964
     23  CA        77.9890   23.8170    9.1480 C.3   302  ALA302      0.1713
     24  C         77.8120   23.1760    7.7780 C.2   302  ALA302      0.2458
     25  O         76.6810   22.9000    7.3720 O.2   302  ALA302     -0.2730
     26  CB        78.3960   22.7690   10.1800 C.3   302  ALA302      0.0333
     27  N         78.9200   22.9320    7.0530 N.am  303  PRO303     -0.2727
     28  CA        78.7730   22.2840    5.7530 C.3   303  PRO303      0.1402
     29  C         78.2570   20.8460    5.8780 C.2   303  PRO303      0.2269
     30  O         78.6970   20.1060    6.7580 O.2   303  PRO303     -0.2865
     31  CB        80.2010   22.3030    5.1860 C.3   303  PRO303      0.0296
     32  CG        81.0870   22.4130    6.3800 C.3   303  PRO303      0.0237
     33  CD        80.3270   23.2550    7.3590 C.3   303  PRO303      0.0939
     34  N         71.5250   24.5700    1.3270 N.3   323  GLN323     -0.1231
     35  CA        72.1700   25.0540    2.5380 C.3   323  GLN323      0.1698
     36  C         72.1090   26.5720    2.5960 C.2   323  GLN323      0.2593
     37  O         72.1300   27.2500    1.5630 O.2   323  GLN323     -0.2718
     38  CB        73.6210   24.5790    2.6040 C.3   323  GLN323      0.0381
     39  CG        73.7830   23.0740    2.4590 C.3   323  GLN323      0.0905
     40  CD        75.2140   22.6240    2.6610 C.2   323  GLN323      0.2608
     41  OE1       75.7600   22.7190    3.7610 O.2   323  GLN323     -0.2717
     42  NE2       75.8340   22.1270    1.5940 N.am  323  GLN323     -0.0878
     43  N         72.0160   27.0930    3.8140 N.am  324  GLY324     -0.1942
     44  CA        71.9420   28.5280    4.0430 C.3   324  GLY324      0.2014
     45  C         72.9180   28.9470    5.1230 C.2   324  GLY324      0.2639
     46  O         73.5980   28.1120    5.7260 O.2   324  GLY324     -0.2714
     47  N         72.9840   30.2500    5.3680 N.am  325  TYR325     -0.1959
     48  CA        74.0220   30.8110    6.2230 C.3   325  TYR325      0.1771
     49  C         73.4390   31.9130    7.0830 C.2   325  TYR325      0.2620
     50  O         72.8200   32.8580    6.5820 O.2   325  TYR325     -0.2715
     51  CB        75.1940   31.3070    5.3570 C.3   325  TYR325      0.0574
     52  CG        76.1750   32.2950    5.9720 C.ar  325  TYR325     -0.0198
     53  CD1       76.8380   32.0310    7.1720 C.ar  325  TYR325     -0.0009
     54  CD2       76.4730   33.4820    5.3100 C.ar  325  TYR325     -0.0009
     55  CE1       77.7490   32.9410    7.7000 C.ar  325  TYR325      0.0417
     56  CE2       77.3770   34.3890    5.8190 C.ar  325  TYR325      0.0417
     57  CZ        78.0130   34.1220    7.0140 C.ar  325  TYR325      0.1957
     58  OH        78.9160   35.0450    7.4970 O.3   325  TYR325     -0.2866
     59  N         73.6290   31.7590    8.3860 N.am  326  GLY326     -0.1940
     60  CA        73.1650   32.7390    9.3570 C.3   326  GLY326      0.2014
     61  C         74.1890   32.9680   10.4480 C.2   326  GLY326      0.2639
     62  O         75.1140   32.1740   10.6420 O.2   326  GLY326     -0.2714
     63  N         74.0030   34.0730   11.1580 N.am  327  MET327     -0.1963
     64  CA        74.7860   34.4390   12.3300 C.3   327  MET327      0.1736
     65  C         73.8560   35.2580   13.2150 C.2   327  MET327      0.2617
     66  O         73.1700   36.1520   12.7240 O.2   327  MET327     -0.2715
     67  CB        75.9990   35.2770   11.9120 C.3   327  MET327      0.0427
     68  CG        76.8110   35.8420   13.0700 C.3   327  MET327      0.0599
     69  SD        78.2100   36.7770   12.4260 S.3   327  MET327     -0.1393
     70  CE        78.8180   37.5390   13.9250 C.3   327  MET327      0.0692
     71  N         73.8420   34.9580   14.5110 N.am  328  THR328     -0.1937
     72  CA        72.8840   35.5630   15.4430 C.3   328  THR328      0.2028
     73  C         72.7640   37.0750   15.2600 C.2   328  THR328      0.2642
     74  O         71.6560   37.6030   15.1070 O.2   328  THR328     -0.2714
     75  CB        73.2510   35.2290   16.9070 C.3   328  THR328      0.1808
     76  OG1       73.3020   33.8090   17.0750 O.3   328  THR328     -0.2208
     77  CG2       72.2250   35.7890   17.8700 C.3   328  THR328      0.0379
     78  N         73.9150   37.7510   15.2480 N.am  329  GLU329     -0.1976
     79  CA        74.0020   39.2040   15.1180 C.3   329  GLU329      0.1602
     80  C         73.3930   39.7470   13.8270 C.2   329  GLU329      0.2287
     81  O         73.0420   40.9240   13.7490 O.2   329  GLU329     -0.2864
     82  CB        75.4650   39.6450   15.2060 C.3   329  GLU329      0.0415
     83  CG        76.0690   39.4960   16.5980 C.3   329  GLU329      0.1163
     84  CD        76.5900   38.1020   16.9280 C.2   329  GLU329      0.3649
     85  OE1       76.3250   37.1150   16.2020 O.co2 329  GLU329     -0.2457
     86  OE2       77.2790   37.9880   17.9540 O.co2 329  GLU329     -0.2457
     87  N         68.8810   36.1720   12.0860 N.3   332  PRO332     -0.2116
     88  CA        70.2610   35.7850   11.7740 C.3   332  PRO332      0.1372
     89  C         70.6080   35.5620   10.2940 C.2   332  PRO332      0.2244
     90  O         71.7850   35.4060    9.9750 O.2   332  PRO332     -0.2868
     91  CB        70.3780   34.4420   12.4830 C.3   332  PRO332      0.0268
     92  CG        69.0340   33.8180   12.2480 C.3   332  PRO332      0.0207
     93  CD        68.0400   34.9650   12.2420 C.3   332  PRO332      0.0892
     94  N         76.1930   28.1050    0.1450 N.3   352  CYS352     -0.1235
     95  CA        75.3360   28.3610    1.3030 C.3   352  CYS352      0.1677
     96  C         74.3320   29.4850    1.0370 C.2   352  CYS352      0.2270
     97  O         73.8980   30.1880    1.9560 O.2   352  CYS352     -0.2867
     98  CB        76.1650   28.6030    2.5720 C.3   352  CYS352      0.0956
     99  SG        77.2050   30.0670    2.5150 S.3   352  CYS352     -0.0801
    100  N         83.6910   35.6450    9.3700 N.3   412  ASP412     -0.1239
    101  CA        83.6670   34.4820    8.4820 C.3   412  ASP412      0.1674
    102  C         84.3570   34.8440    7.1830 C.2   412  ASP412      0.2266
    103  O         84.2490   35.9800    6.7110 O.2   412  ASP412     -0.2867
    104  CB        82.2270   34.0680    8.1760 C.3   412  ASP412      0.1410
    105  CG        81.4780   33.6210    9.4070 C.2   412  ASP412      0.3668
    106  OD1       82.0670   32.8940   10.2260 O.co2 412  ASP412     -0.2456
    107  OD2       80.2960   33.9910    9.5500 O.co2 412  ASP412     -0.2456
    108  N         81.2870   29.5450    2.0900 N.3   424  ILE424     -0.1245
    109  CA        82.0970   29.7450    3.2900 C.3   424  ILE424      0.1561
    110  C         83.3170   28.8410    3.2100 C.2   424  ILE424      0.2260
    111  O         83.1850   27.6350    2.9700 O.2   424  ILE424     -0.2867
    112  CB        81.3200   29.4140    4.5870 C.3   424  ILE424      0.0252
    113  CG1       80.0440   30.2570    4.6940 C.3   424  ILE424      0.0019
    114  CG2       82.2170   29.5570    5.8150 C.3   424  ILE424      0.0019
    115  CD1       80.2620   31.7420    4.8120 C.3   424  ILE424      0.0001
    116  N         87.1610   30.5160    8.8910 N.3   427  ARG427     -0.1245
    117  CA        86.6810   31.3480    9.9760 C.3   427  ARG427      0.1563
    118  C         87.8430   32.1430   10.5430 C.2   427  ARG427      0.2260
    119  O         88.8540   31.5810   10.9690 O.2   427  ARG427     -0.2867
    120  CB        86.0270   30.4940   11.0590 C.3   427  ARG427      0.0307
    121  CG        85.2040   31.2910   12.0570 C.3   427  ARG427      0.0489
    122  CD        84.5710   30.3800   13.0890 C.3   427  ARG427      0.2205
    123  NE        83.6900   29.4020   12.4590 N.pl3 427  ARG427     -0.0865
    124  CZ        83.4280   28.2010   12.9620 C.cat 427  ARG427      0.5346
    125  NH1       83.9800   27.8200   14.1090 N.pl3 427  ARG427      0.1354
    126  NH2       82.6270   27.3730   12.3090 N.pl3 427  ARG427      0.1354
    127  N         87.3230   34.5150   13.0860 N.3   429  LYS429     -0.1245
    128  CA        87.0340   34.6180   14.5150 C.3   429  LYS429      0.1561
    129  C         87.3180   33.3260   15.2810 C.2   429  LYS429      0.2260
    130  O         87.3780   32.2410   14.6940 O.2   429  LYS429     -0.2867
    131  CB        85.5790   35.0460   14.7290 C.3   429  LYS429      0.0271
    132  CG        84.5640   34.0910   14.1220 C.3   429  LYS429      0.0035
    133  CD        83.1560   34.6460   14.2160 C.3   429  LYS429      0.0206
    134  CE        82.1900   33.7970   13.4090 C.3   429  LYS429      0.1093
    135  NZ        80.8650   34.4690   13.3300 N.3   429  LYS429     -0.1314
    136  N         85.5360   31.6680   17.4670 N.3   431  LEU431     -0.1245
    137  CA        84.3740   30.8230   17.7510 C.3   431  LEU431      0.1561
    138  C         84.5700   29.3490   17.4020 C.2   431  LEU431      0.2260
    139  O         85.1540   29.0180   16.3710 O.2   431  LEU431     -0.2867
    140  CB        83.1490   31.3580   16.9980 C.3   431  LEU431      0.0270
    141  CG        81.7870   30.7240   17.2880 C.3   431  LEU431      0.0019
    142  CD1       81.2720   31.1540   18.6540 C.3   431  LEU431      0.0001
    143  CD2       80.8000   31.0970   16.1920 C.3   431  LEU431      0.0001
    144  N         82.1930   25.7420   17.0520 N.3   433  LYS433     -0.1245
    145  CA        80.8040   25.2980   16.8950 C.3   433  LYS433      0.1561
    146  C         80.6800   23.7870   17.0620 C.2   433  LYS433      0.2260
    147  O         81.1960   23.0250   16.2410 O.2   433  LYS433     -0.2867
    148  CB        80.2430   25.7290   15.5310 C.3   433  LYS433      0.0271
    149  CG        80.0560   27.2350   15.3580 C.3   433  LYS433      0.0035
    150  CD        78.7060   27.7320   15.8630 C.3   433  LYS433      0.0206
    151  CE        77.6280   27.6580   14.7880 C.3   433  LYS433      0.1093
    152  NZ        76.3030   28.0720   15.3210 N.3   433  LYS433     -0.1314
    153  N         76.4270   22.8830   16.0180 N.3   436  GLY436     -0.1225
    154  CA        75.6670   24.1210   15.8590 C.3   436  GLY436      0.1811
    155  C         75.5830   24.9750   17.1100 C.2   436  GLY436      0.2280
    156  O         75.0360   26.0780   17.0690 O.2   436  GLY436     -0.2866
    157  N         77.3280   27.2850   19.9940 N.3   438  GLN438     -0.1245
    158  CA        78.5000   28.1390   20.2090 C.3   438  GLN438      0.1566
    159  C         79.3300   27.7230   21.4080 C.2   438  GLN438      0.2260
    160  O         78.8090   27.5220   22.5070 O.2   438  GLN438     -0.2867
    161  CB        78.0760   29.5880   20.4340 C.3   438  GLN438      0.0367
    162  CG        77.6170   30.2850   19.1790 C.3   438  GLN438      0.0905
    163  CD        77.6050   31.7910   19.3200 C.2   438  GLN438      0.2608
    164  OE1       76.9880   32.4820   18.5160 O.2   438  GLN438     -0.2717
    165  NE2       78.2820   32.3060   20.3410 N.am  438  GLN438     -0.0878
@<TRIPOS>BOND
     1    94    95    1
     2    96    95    1
     3    96    97    2
     4    95    98    1
     5    34    35    1
     6    37    36    2
     7    42    40   am
     8   108   109    1
     9    39    38    1
    10    39    40    1
    11    99    98    1
    12    35    36    1
    13    35    38    1
    14    36    43   am
    15    40    41    2
    16   111   110    2
    17   110   109    1
    18   109   112    1
    19    43    44    1
    20    44    45    1
    21   112   113    1
    22   112   114    1
    23   113   115    1
    24    45    47   am
    25    45    46    2
    26    31    28    1
    27    31    32    1
    28    54    56   ar
    29    54    52   ar
    30    51    52    1
    31    51    48    1
    32    47    48    1
    33    28    29    1
    34    28    27    1
    35    56    57   ar
    36    29    30    2
    37    52    53   ar
    38    48    49    1
    39    32    33    1
    40    50    49    2
    41   103   102    2
    42    57    58    1
    43    57    55   ar
    44    27    33    1
    45    27    24   am
    46    49    59   am
    47    53    55   ar
    48   102   101    1
    49    25    24    2
    50    13    14    1
    51    24    23    1
    52    14    15    1
    53   104   101    1
    54   104   105    1
    55    59    60    1
    56   101   100    1
    57   116   117    1
    58    15    16    2
    59    15    17   am
    60    23    22    1
    61    23    26    1
    62    60    61    1
    63   105   107   ar
    64   105   106   ar
    65    22    19   am
    66    17    18    1
    67    12    11    1
    68    90    89    2
    69   117   118    1
    70   117   120    1
    71    89    88    1
    72    19    18    1
    73    19    20    2
    74    61    62    2
    75    61    63   am
    76   118   119    2
    77    18    21    1
    78    11     9   ar
    79    11    10   ar
    80   120   121    1
    81    63    64    1
    82     9     7   ar
    83    10     8   ar
    84    88    87    1
    85    88    91    1
    86    67    64    1
    87    67    68    1
    88   121   122    1
    89    87    93    1
    90    93    92    1
    91    92    91    1
    92   126   124    1
    93    64    65    1
    94    69    68    1
    95    69    70    1
    96     7     6   ar
    97   123   124    2
    98   123   122    1
    99     8     6   ar
   100    66    65    2
   101     4     3    2
   102   124   125    1
   103   127   128    1
   104     6     5    1
   105    65    71   am
   106   135   134    1
   107   134   133    1
   108    81    80    2
   109    80    79    1
   110     3     2    1
   111   132   133    1
   112   132   131    1
   113     2     5    1
   114     2     1    1
   115    71    72    1
   116   128   131    1
   117   128   129    1
   118   130   129    2
   119   151   152    1
   120   151   150    1
   121    74    73    2
   122    79    82    1
   123    79    78    1
   124    82    83    1
   125    78    73   am
   126    73    72    1
   127   149   148    1
   128   149   150    1
   129    72    75    1
   130   148   145    1
   131   154   153    1
   132   154   155    1
   133   143   141    1
   134    85    84   ar
   135   147   146    2
   136   139   138    2
   137    83    84    1
   138   145   144    1
   139   145   146    1
   140    75    76    1
   141    75    77    1
   142    84    86   ar
   143   140   141    1
   144   140   137    1
   145   156   155    2
   146   141   142    1
   147   138   137    1
   148   136   137    1
   149   164   163    2
   150   162   163    1
   151   162   161    1
   152   163   165   am
   153   157   158    1
   154   158   161    1
   155   158   159    1
   156   159   160    2
