@<TRIPOS>MOLECULE
tmp/5bsrA00.pdb
 182 179 0 0 0
SMALL
GASTEIGER

@<TRIPOS>ATOM
      1  N         69.5560   23.0490   29.7370 N.3   102  LEU102     -0.1245
      2  CA        70.6500   22.1900   30.1980 C.3   102  LEU102      0.1561
      3  C         71.8900   22.9490   30.6910 C.2   102  LEU102      0.2260
      4  O         72.8940   22.3380   31.0540 O.2   102  LEU102     -0.2867
      5  CB        71.0210   21.1710   29.1140 C.3   102  LEU102      0.0270
      6  CG        70.3460   19.7910   29.1170 C.3   102  LEU102      0.0019
      7  CD1       68.9400   19.7680   29.7160 C.3   102  LEU102      0.0001
      8  CD2       70.3740   19.1850   27.7180 C.3   102  LEU102      0.0001
      9  N         64.4860   22.1360   36.8070 N.3   126  HIS126     -0.1241
     10  CA        65.5680   23.1160   36.7000 C.3   126  HIS126      0.1621
     11  C         65.5000   24.2350   37.7380 C.2   126  HIS126      0.2264
     12  O         66.3780   25.0940   37.7750 O.2   126  HIS126     -0.2867
     13  CB        65.6320   23.7030   35.2870 C.3   126  HIS126      0.0745
     14  CG        65.8430   22.6770   34.2190 C.ar  126  HIS126      0.0817
     15  ND1       66.8770   21.7670   34.2540 N.ar  126  HIS126     -0.2268
     16  CD2       65.1560   22.4230   33.0810 C.ar  126  HIS126      0.1154
     17  CE1       66.8160   20.9940   33.1830 C.ar  126  HIS126      0.1986
     18  NE2       65.7810   21.3720   32.4550 N.ar  126  HIS126     -0.2212
     19  N         62.4990   20.7130   15.4040 N.3   224  VAL224     -0.1231
     20  CA        63.3400   19.8810   16.2570 C.3   224  VAL224      0.1692
     21  C         64.5690   20.6490   16.7420 C.2   224  VAL224      0.2592
     22  O         65.0500   20.4020   17.8410 O.2   224  VAL224     -0.2718
     23  CB        63.7200   18.5420   15.5720 C.3   224  VAL224      0.0266
     24  CG1       64.4970   18.7760   14.2790 C.3   224  VAL224      0.0020
     25  CG2       64.4920   17.6380   16.5280 C.3   224  VAL224      0.0020
     26  N         65.0580   21.5880   15.9350 N.am  225  LEU225     -0.1966
     27  CA        66.1460   22.4600   16.3790 C.3   225  LEU225      0.1713
     28  C         65.6120   23.3790   17.4830 C.2   225  LEU225      0.2458
     29  O         64.4230   23.6880   17.5030 O.2   225  LEU225     -0.2730
     30  CB        66.7310   23.2590   15.2100 C.3   225  LEU225      0.0310
     31  CG        67.2300   22.4450   14.0090 C.3   225  LEU225      0.0022
     32  CD1       67.6770   23.3800   12.9000 C.3   225  LEU225      0.0001
     33  CD2       68.3370   21.4820   14.4130 C.3   225  LEU225      0.0001
     34  N         66.4800   23.7860   18.4240 N.am  226  PRO226     -0.2727
     35  CA        65.9900   24.4980   19.6130 C.3   226  PRO226      0.1402
     36  C         65.5090   25.9180   19.3620 C.2   226  PRO226      0.2269
     37  O         66.2090   26.7190   18.7360 O.2   226  PRO226     -0.2865
     38  CB        67.2080   24.5080   20.5400 C.3   226  PRO226      0.0296
     39  CG        68.3840   24.3160   19.6470 C.3   226  PRO226      0.0237
     40  CD        67.8990   23.4130   18.5550 C.3   226  PRO226      0.0939
     41  N         67.5420   29.1280   20.3520 N.3   229  HIS229     -0.1241
     42  CA        68.4500   29.8060   19.4490 C.3   229  HIS229      0.1621
     43  C         67.6540   30.4720   18.3340 C.2   229  HIS229      0.2264
     44  O         66.6540   29.9300   17.8690 O.2   229  HIS229     -0.2867
     45  CB        69.5460   28.8590   18.9620 C.3   229  HIS229      0.0745
     46  CG        70.4930   28.4590   20.0520 C.ar  229  HIS229      0.0817
     47  ND1       71.2180   29.3820   20.7760 N.ar  229  HIS229     -0.2268
     48  CD2       70.7990   27.2480   20.5740 C.ar  229  HIS229      0.1154
     49  CE1       71.9480   28.7540   21.6810 C.ar  229  HIS229      0.1986
     50  NE2       71.7150   27.4580   21.5770 N.ar  229  HIS229     -0.2212
     51  N         68.1890   30.9020   15.3220 N.3   231  TYR231     -0.1227
     52  CA        68.1720   30.0680   14.1310 C.3   231  TYR231      0.1736
     53  C         66.7730   29.5080   13.8760 C.2   231  TYR231      0.2596
     54  O         66.2090   29.7130   12.8040 O.2   231  TYR231     -0.2718
     55  CB        69.1680   28.9230   14.3210 C.3   231  TYR231      0.0548
     56  CG        69.4630   28.0760   13.1060 C.ar  231  TYR231     -0.0200
     57  CD1       70.6770   28.2050   12.4280 C.ar  231  TYR231     -0.0009
     58  CD2       68.5490   27.1280   12.6490 C.ar  231  TYR231     -0.0009
     59  CE1       70.9690   27.4180   11.3260 C.ar  231  TYR231      0.0417
     60  CE2       68.8290   26.3420   11.5450 C.ar  231  TYR231      0.0417
     61  CZ        70.0380   26.4930   10.8900 C.ar  231  TYR231      0.1957
     62  OH        70.3100   25.7130    9.7990 O.3   231  TYR231     -0.2866
     63  N         66.2100   28.8220   14.8700 N.am  232  SER232     -0.1952
     64  CA        64.8860   28.2210   14.7430 C.3   232  SER232      0.1924
     65  C         63.7530   29.1530   15.1470 C.2   232  SER232      0.2314
     66  O         62.6630   29.0930   14.5780 O.2   232  SER232     -0.2863
     67  CB        64.8060   26.9410   15.5620 C.3   232  SER232      0.2116
     68  OG        65.6000   25.9540   14.9460 O.3   232  SER232     -0.2180
     69  N         62.8780   17.0290   22.0190 N.3   252  LYS252     -0.1231
     70  CA        64.2330   16.4910   21.9670 C.3   252  LYS252      0.1693
     71  C         64.3700   15.5760   20.7640 C.2   252  LYS252      0.2592
     72  O         63.4410   14.8290   20.4440 O.2   252  LYS252     -0.2718
     73  CB        64.5580   15.7180   23.2520 C.3   252  LYS252      0.0285
     74  CG        65.9890   15.2100   23.3280 C.3   252  LYS252      0.0035
     75  CD        66.3030   14.6470   24.7070 C.3   252  LYS252      0.0206
     76  CE        67.5400   13.7610   24.6960 C.3   252  LYS252      0.1093
     77  NZ        68.7510   14.4460   24.1660 N.3   252  LYS252     -0.1314
     78  N         65.5220   15.6320   20.1020 N.am  253  PHE253     -0.1976
     79  CA        65.7890   14.7360   18.9840 C.3   253  PHE253      0.1639
     80  C         66.0870   13.3170   19.4480 C.2   253  PHE253      0.2290
     81  O         66.9260   13.0980   20.3210 O.2   253  PHE253     -0.2864
     82  CB        66.9730   15.2330   18.1400 C.3   253  PHE253      0.0560
     83  CG        67.3400   14.3040   17.0110 C.ar  253  PHE253     -0.0200
     84  CD1       66.5710   14.2500   15.8500 C.ar  253  PHE253     -0.0042
     85  CD2       68.4460   13.4650   17.1140 C.ar  253  PHE253     -0.0042
     86  CE1       66.8980   13.3860   14.8170 C.ar  253  PHE253     -0.0003
     87  CE2       68.7790   12.6050   16.0800 C.ar  253  PHE253     -0.0003
     88  CZ        68.0060   12.5640   14.9300 C.ar  253  PHE253     -0.0000
     89  N         70.2970   20.3540   10.6830 N.3   273  VAL273     -0.1245
     90  CA        71.7320   20.6400   10.6570 C.3   273  VAL273      0.1561
     91  C         72.4410   19.3180   10.3370 C.2   273  VAL273      0.2260
     92  O         71.8350   18.2490   10.4440 O.2   273  VAL273     -0.2867
     93  CB        72.2350   21.2380   11.9950 C.3   273  VAL273      0.0252
     94  CG1       71.7390   22.6660   12.1690 C.3   273  VAL273      0.0019
     95  CG2       71.8130   20.3770   13.1750 C.3   273  VAL273      0.0019
     96  N         74.5050   17.2150   11.8580 N.3   275  PRO275     -0.2102
     97  CA        74.3870   16.0660   12.7820 C.3   275  PRO275      0.1504
     98  C         73.0740   15.2690   12.6970 C.2   275  PRO275      0.2575
     99  O         73.0820   14.0500   12.9360 O.2   275  PRO275     -0.2718
    100  CB        74.5230   16.7110   14.1640 C.3   275  PRO275      0.0282
    101  CG        75.3760   17.9100   13.9260 C.3   275  PRO275      0.0208
    102  CD        74.9900   18.4230   12.5590 C.3   275  PRO275      0.0893
    103  N         71.9640   15.9300   12.3630 N.am  276  ILE276     -0.1980
    104  CA        70.7000   15.2140   12.1420 C.3   276  ILE276      0.1595
    105  C         70.8190   14.2860   10.9310 C.2   276  ILE276      0.2287
    106  O         70.4160   13.1220   10.9840 O.2   276  ILE276     -0.2864
    107  CB        69.5120   16.1810   11.9790 C.3   276  ILE276      0.0276
    108  CG1       69.2120   16.8640   13.3190 C.3   276  ILE276      0.0022
    109  CG2       68.2720   15.4470   11.4720 C.3   276  ILE276      0.0022
    110  CD1       68.1540   17.9440   13.2530 C.3   276  ILE276      0.0001
    111  N         74.3080   26.0030    9.6490 N.3   301  ALA301     -0.1245
    112  CA        75.2570   25.9310   10.7720 C.3   301  ALA301      0.1562
    113  C         76.6550   25.4300   10.4110 C.2   301  ALA301      0.2260
    114  O         77.6470   25.9220   10.9420 O.2   301  ALA301     -0.2867
    115  CB        74.6880   25.1260   11.9340 C.3   301  ALA301      0.0290
    116  N         82.1930   25.7420   17.0520 N.3   433  LYS433     -0.1231
    117  CA        80.8040   25.2980   16.8950 C.3   433  LYS433      0.1693
    118  C         80.6800   23.7870   17.0620 C.2   433  LYS433      0.2592
    119  O         81.1960   23.0250   16.2410 O.2   433  LYS433     -0.2718
    120  CB        80.2430   25.7290   15.5310 C.3   433  LYS433      0.0285
    121  CG        80.0560   27.2350   15.3580 C.3   433  LYS433      0.0035
    122  CD        78.7060   27.7320   15.8630 C.3   433  LYS433      0.0206
    123  CE        77.6280   27.6580   14.7880 C.3   433  LYS433      0.1093
    124  NZ        76.3030   28.0720   15.3210 N.3   433  LYS433     -0.1314
    125  N         79.9970   23.3700   18.1280 N.am  434  TYR434     -0.1962
    126  CA        79.7510   21.9590   18.4210 C.3   434  TYR434      0.1771
    127  C         78.3020   21.6390   18.0910 C.2   434  TYR434      0.2619
    128  O         77.3930   22.0940   18.7870 O.2   434  TYR434     -0.2715
    129  CB        80.0290   21.6840   19.9000 C.3   434  TYR434      0.0574
    130  CG        79.8230   20.2480   20.3430 C.ar  434  TYR434     -0.0198
    131  CD1       80.9090   19.4060   20.5420 C.ar  434  TYR434     -0.0009
    132  CD2       78.5440   19.7430   20.5830 C.ar  434  TYR434     -0.0009
    133  CE1       80.7290   18.0930   20.9590 C.ar  434  TYR434      0.0417
    134  CE2       78.3510   18.4340   21.0000 C.ar  434  TYR434      0.0417
    135  CZ        79.4490   17.6160   21.1840 C.ar  434  TYR434      0.1957
    136  OH        79.2620   16.3150   21.5920 O.3   434  TYR434     -0.2866
    137  N         78.0940   20.8510   17.0350 N.am  435  LYS435     -0.1963
    138  CA        76.7510   20.5250   16.5320 C.3   435  LYS435      0.1728
    139  C         75.8490   21.7570   16.4230 C.2   435  LYS435      0.2617
    140  O         74.6610   21.6930   16.7260 O.2   435  LYS435     -0.2715
    141  CB        76.0640   19.4530   17.3960 C.3   435  LYS435      0.0311
    142  CG        76.7860   18.1210   17.4980 C.3   435  LYS435      0.0038
    143  CD        75.9650   17.1680   18.3440 C.3   435  LYS435      0.0206
    144  CE        76.6750   15.8480   18.5700 C.3   435  LYS435      0.1093
    145  NZ        75.7500   14.8890   19.2320 N.3   435  LYS435     -0.1314
    146  N         76.4270   22.8830   16.0180 N.am  436  GLY436     -0.1940
    147  CA        75.6670   24.1210   15.8590 C.3   436  GLY436      0.2014
    148  C         75.5830   24.9750   17.1100 C.2   436  GLY436      0.2638
    149  O         75.0360   26.0780   17.0690 O.2   436  GLY436     -0.2714
    150  N         76.1120   24.4670   18.2210 N.am  437  PHE437     -0.1973
    151  CA        76.1570   25.2230   19.4720 C.3   437  PHE437      0.1639
    152  C         77.4510   26.0270   19.5780 C.2   437  PHE437      0.2290
    153  O         78.5360   25.5180   19.2920 O.2   437  PHE437     -0.2864
    154  CB        76.0400   24.2840   20.6730 C.3   437  PHE437      0.0560
    155  CG        74.6790   23.6620   20.8340 C.ar  437  PHE437     -0.0200
    156  CD1       73.5980   24.4310   21.2460 C.ar  437  PHE437     -0.0042
    157  CD2       74.4790   22.3010   20.5890 C.ar  437  PHE437     -0.0042
    158  CE1       72.3390   23.8690   21.4020 C.ar  437  PHE437     -0.0003
    159  CE2       73.2210   21.7330   20.7520 C.ar  437  PHE437     -0.0003
    160  CZ        72.1520   22.5170   21.1610 C.ar  437  PHE437     -0.0000
    161  N         77.2590   20.3990   28.4580 N.3   498  PHE498     -0.1241
    162  CA        77.9390   19.2970   27.7530 C.3   498  PHE498      0.1605
    163  C         78.7900   19.7030   26.5430 C.2   498  PHE498      0.2264
    164  O         79.9060   19.2090   26.3780 O.2   498  PHE498     -0.2867
    165  CB        76.9410   18.1900   27.3620 C.3   498  PHE498      0.0534
    166  CG        75.9760   18.5900   26.2820 C.ar  498  PHE498     -0.0203
    167  CD1       76.2390   18.2880   24.9500 C.ar  498  PHE498     -0.0042
    168  CD2       74.8010   19.2650   26.5940 C.ar  498  PHE498     -0.0042
    169  CE1       75.3580   18.6650   23.9490 C.ar  498  PHE498     -0.0003
    170  CE2       73.9140   19.6430   25.5960 C.ar  498  PHE498     -0.0003
    171  CZ        74.1910   19.3370   24.2720 C.ar  498  PHE498     -0.0000
    172  N         82.5980   21.0060   26.7870 N.3   501  ARG501     -0.1245
    173  CA        83.6380   20.1270   27.3250 C.3   501  ARG501      0.1563
    174  C         84.8730   20.1160   26.4350 C.2   501  ARG501      0.2260
    175  O         84.7650   20.1170   25.2100 O.2   501  ARG501     -0.2867
    176  CB        83.1140   18.7020   27.4860 C.3   501  ARG501      0.0307
    177  CG        82.2040   18.5020   28.6800 C.3   501  ARG501      0.0489
    178  CD        81.5130   17.1530   28.5940 C.3   501  ARG501      0.2205
    179  NE        80.3810   17.0690   29.5080 N.pl3 501  ARG501     -0.0865
    180  CZ        79.3510   16.2400   29.3620 C.cat 501  ARG501      0.5346
    181  NH1       79.2930   15.4090   28.3270 N.pl3 501  ARG501      0.1354
    182  NH2       78.3700   16.2450   30.2530 N.pl3 501  ARG501      0.1354
@<TRIPOS>BOND
     1   111   112    1
     2    62    61    1
     3    91    92    2
     4    91    90    1
     5   113   112    1
     6   113   114    2
     7    90    89    1
     8    90    93    1
     9   112   115    1
    10    61    59   ar
    11    61    60   ar
    12   105   106    2
    13   105   104    1
    14    59    57   ar
    15   109   107    1
    16    60    58   ar
    17    96   102    1
    18    96    97    1
    19   107   104    1
    20   107   108    1
    21    93    94    1
    22    93    95    1
    23   104   103    1
    24   103    98   am
    25    57    56   ar
    26   102   101    1
    27    58    56   ar
    28    98    97    1
    29    98    99    2
    30    97   100    1
    31    54    53    2
    32    32    31    1
    33    56    55    1
    34   110   108    1
    35    53    52    1
    36    53    63   am
    37   101   100    1
    38    31    33    1
    39    31    30    1
    40    52    55    1
    41    52    51    1
    42    24    23    1
    43    66    65    2
    44    64    63    1
    45    64    65    1
    46    64    67    1
    47   123   124    1
    48   123   122    1
    49    86    88   ar
    50    86    84   ar
    51    88    87   ar
    52    68    67    1
    53    30    27    1
    54   121   120    1
    55   121   122    1
    56    19    20    1
    57   120   117    1
    58    23    20    1
    59    23    25    1
    60    84    83   ar
    61   147   146    1
    62   147   148    1
    63    26    27    1
    64    26    21   am
    65   146   139   am
    66    87    85   ar
    67   119   118    2
    68    20    21    1
    69    27    28    1
    70   139   138    1
    71   139   140    2
    72   138   137    1
    73   138   141    1
    74    21    22    2
    75   117   116    1
    76   117   118    1
    77    83    85   ar
    78    83    82    1
    79   137   127   am
    80   118   125   am
    81   149   148    2
    82   148   150   am
    83   141   142    1
    84    28    29    2
    85    28    34   am
    86   142   143    1
    87    44    43    2
    88   127   126    1
    89   127   128    2
    90   125   126    1
    91    82    79    1
    92   150   151    1
    93    43    42    1
    94   143   144    1
    95   126   129    1
    96    34    40    1
    97    34    35    1
    98    40    39    1
    99   144   145    1
   100    37    36    2
   101    45    42    1
   102    45    46    1
   103    79    80    1
   104    79    78    1
   105   153   152    2
   106    36    35    1
   107    80    81    2
   108    42    41    1
   109   151   152    1
   110   151   154    1
   111    35    38    1
   112    39    38    1
   113   129   130    1
   114    46    48   ar
   115    46    47   ar
   116    78    71   am
   117   130   131   ar
   118   130   132   ar
   119    72    71    2
   120   131   133   ar
   121    48    50   ar
   122   132   134   ar
   123   157   159   ar
   124   157   155   ar
   125   154   155    1
   126   159   160   ar
   127    71    70    1
   128    47    49   ar
   129   155   156   ar
   130   133   135   ar
   131   134   135   ar
   132   160   158   ar
   133   135   136    1
   134   156   158   ar
   135    50    49   ar
   136    70    69    1
   137    70    73    1
   138    73    74    1
   139    74    75    1
   140   169   171   ar
   141   169   167   ar
   142    77    76    1
   143   171   170   ar
   144    76    75    1
   145   167   166   ar
   146   175   174    2
   147   170   168   ar
   148   166   168   ar
   149   166   165    1
   150   164   163    2
   151   174   173    1
   152   163   162    1
   153   172   173    1
   154   173   176    1
   155   165   162    1
   156   176   177    1
   157     8     6    1
   158   162   161    1
   159   181   180    1
   160   178   177    1
   161   178   179    1
   162     5     6    1
   163     5     2    1
   164     6     7    1
   165   180   179    2
   166   180   182    1
   167     1     2    1
   168     2     3    1
   169     3     4    2
   170    18    16   ar
   171    18    17   ar
   172    16    14   ar
   173    17    15   ar
   174    14    15   ar
   175    14    13    1
   176    13    10    1
   177    10     9    1
   178    10    11    1
   179    11    12    2
