@<TRIPOS>MOLECULE
tmp/5bswA00.pdb
 211 203 0 0 0
SMALL
GASTEIGER

@<TRIPOS>ATOM
      1  N         -9.7210    6.1810  -19.1870 N.3   181  SER181     -0.1217
      2  CA       -10.0740    5.9990  -17.7600 C.3   181  SER181      0.1889
      3  C         -8.8620    5.9410  -16.8410 C.2   181  SER181      0.2288
      4  O         -7.8270    5.3500  -17.1870 O.2   181  SER181     -0.2866
      5  CB       -10.9460    4.7530  -17.5390 C.3   181  SER181      0.2089
      6  OG       -11.2700    4.5560  -16.1510 O.3   181  SER181     -0.2183
      7  N         -9.4610    4.8260  -13.6620 N.3   183  GLY183     -0.1225
      8  CA       -10.0030    3.8280  -12.7310 C.3   183  GLY183      0.1811
      9  C         -9.0870    2.8410  -12.0180 C.2   183  GLY183      0.2280
     10  O         -8.9780    2.8860  -10.7890 O.2   183  GLY183     -0.2866
     11  N        -18.8260    8.2940  -21.7890 N.3   229  HIS229     -0.1226
     12  CA       -18.4380    7.3020  -20.7880 C.3   229  HIS229      0.1752
     13  C        -19.1360    5.9910  -21.0910 C.2   229  HIS229      0.2596
     14  O        -20.2300    5.9700  -21.6580 O.2   229  HIS229     -0.2718
     15  CB       -18.7380    7.8130  -19.3580 C.3   229  HIS229      0.0759
     16  CG       -18.7050    6.7440  -18.3060 C.ar  229  HIS229      0.0818
     17  ND1      -17.5470    6.3850  -17.6430 N.ar  229  HIS229     -0.2268
     18  CD2      -19.6900    5.9720  -17.7890 C.ar  229  HIS229      0.1154
     19  CE1      -17.8200    5.4300  -16.7700 C.ar  229  HIS229      0.1986
     20  NE2      -19.1120    5.1580  -16.8400 N.ar  229  HIS229     -0.2212
     21  N        -18.5130    4.8960  -20.6960 N.am  230  ILE230     -0.1966
     22  CA       -18.8850    3.5830  -21.2190 C.3   230  ILE230      0.1727
     23  C        -20.3180    3.1340  -20.9440 C.2   230  ILE230      0.2616
     24  O        -20.9300    2.4590  -21.7910 O.2   230  ILE230     -0.2715
     25  CB       -17.8350    2.4820  -20.8220 C.3   230  ILE230      0.0290
     26  CG1      -18.0600    1.1880  -21.6260 C.3   230  ILE230      0.0022
     27  CG2      -17.7790    2.2840  -19.2920 C.3   230  ILE230      0.0023
     28  CD1      -17.9740    1.3840  -23.1450 C.3   230  ILE230      0.0001
     29  N        -20.8520    3.5190  -19.7850 N.am  231  TYR231     -0.1974
     30  CA       -22.1700    3.0560  -19.3190 C.3   231  TYR231      0.1639
     31  C        -23.2880    3.4890  -20.2750 C.2   231  TYR231      0.2290
     32  O        -24.0970    2.6680  -20.7100 O.2   231  TYR231     -0.2864
     33  CB       -22.4140    3.5210  -17.8700 C.3   231  TYR231      0.0560
     34  CG       -23.7910    3.2330  -17.2430 C.ar  231  TYR231     -0.0198
     35  CD1      -24.7530    2.4550  -17.8910 C.ar  231  TYR231     -0.0009
     36  CD2      -24.1040    3.7190  -15.9650 C.ar  231  TYR231     -0.0009
     37  CE1      -26.0110    2.2070  -17.3040 C.ar  231  TYR231      0.0417
     38  CE2      -25.3510    3.4680  -15.3700 C.ar  231  TYR231      0.0417
     39  CZ       -26.2980    2.7230  -16.0410 C.ar  231  TYR231      0.1957
     40  OH       -27.5320    2.4840  -15.4610 O.3   231  TYR231     -0.2866
     41  N        -22.5220    2.2290  -24.1890 N.3   234  ASN234     -0.1225
     42  CA       -22.6670    0.7970  -24.3590 C.3   234  ASN234      0.1785
     43  C        -24.1100    0.4010  -24.0380 C.2   234  ASN234      0.2597
     44  O        -24.8350   -0.0620  -24.9170 O.2   234  ASN234     -0.2718
     45  CB       -21.6490    0.0820  -23.4450 C.3   234  ASN234      0.1169
     46  CG       -21.6890   -1.4420  -23.5560 C.2   234  ASN234      0.2627
     47  OD1      -22.7450   -2.0450  -23.7540 O.2   234  ASN234     -0.2716
     48  ND2      -20.5210   -2.0740  -23.3850 N.am  234  ASN234     -0.0877
     49  N        -24.5290    0.6140  -22.7900 N.am  235  SER235     -0.1952
     50  CA       -25.8430    0.1570  -22.3480 C.3   235  SER235      0.1924
     51  C        -27.0510    0.9420  -22.8550 C.2   235  SER235      0.2314
     52  O        -28.1480    0.3910  -22.9070 O.2   235  SER235     -0.2863
     53  CB       -25.9030    0.0200  -20.8250 C.3   235  SER235      0.2116
     54  OG       -25.1070   -1.0720  -20.4180 O.3   235  SER235     -0.2180
     55  N        -32.4310    1.2680  -13.8200 N.3   298  MET298     -0.1230
     56  CA       -31.0730    0.7360  -13.6230 C.3   298  MET298      0.1702
     57  C        -30.1790    1.7430  -12.9340 C.2   298  MET298      0.2593
     58  O        -30.2750    2.9360  -13.1940 O.2   298  MET298     -0.2718
     59  CB       -30.3940    0.3870  -14.9540 C.3   298  MET298      0.0401
     60  CG       -31.3170   -0.0600  -16.0580 C.3   298  MET298      0.0596
     61  SD       -30.5050   -0.0330  -17.6740 S.3   298  MET298     -0.1393
     62  CE       -31.8750   -0.4790  -18.6900 C.3   298  MET298      0.0692
     63  N        -29.2930    1.2470  -12.0820 N.am  299  SER299     -0.1938
     64  CA       -28.2090    2.0400  -11.5560 C.3   299  SER299      0.2055
     65  C        -26.9190    1.2870  -11.7480 C.2   299  SER299      0.2644
     66  O        -26.8700    0.0700  -11.5610 O.2   299  SER299     -0.2714
     67  CB       -28.4200    2.3210  -10.0640 C.3   299  SER299      0.2130
     68  OG       -27.2910    3.0060   -9.5380 O.3   299  SER299     -0.2179
     69  N        -25.8760    2.0110  -12.1350 N.am  300  GLY300     -0.1939
     70  CA       -24.5160    1.4700  -12.2090 C.3   300  GLY300      0.2014
     71  C        -23.4710    2.5700  -12.0340 C.2   300  GLY300      0.2639
     72  O        -23.8250    3.7270  -11.7370 O.2   300  GLY300     -0.2714
     73  N        -22.1970    2.1900  -12.2050 N.am  301  ALA301     -0.1963
     74  CA       -21.0150    3.0950  -12.2450 C.3   301  ALA301      0.1728
     75  C        -20.4240    3.5440  -10.8900 C.2   301  ALA301      0.2616
     76  O        -19.2710    3.9500  -10.8170 O.2   301  ALA301     -0.2715
     77  CB       -21.2560    4.3050  -13.1770 C.3   301  ALA301      0.0334
     78  N        -21.2150    3.4950   -9.8240 N.am  302  ALA302     -0.1964
     79  CA       -20.6880    3.7690   -8.4990 C.3   302  ALA302      0.1713
     80  C        -21.4520    2.9460   -7.4740 C.2   302  ALA302      0.2458
     81  O        -22.4930    2.3980   -7.7930 O.2   302  ALA302     -0.2730
     82  CB       -20.7930    5.2580   -8.1830 C.3   302  ALA302      0.0333
     83  N        -20.9220    2.8480   -6.2350 N.am  303  PRO303     -0.2716
     84  CA       -21.6360    2.1890   -5.1260 C.3   303  PRO303      0.1536
     85  C        -23.0540    2.7190   -4.8600 C.2   303  PRO303      0.2598
     86  O        -23.2740    3.9310   -4.8140 O.2   303  PRO303     -0.2715
     87  CB       -20.7270    2.4530   -3.9200 C.3   303  PRO303      0.0310
     88  CG       -19.3340    2.5000   -4.5160 C.3   303  PRO303      0.0237
     89  CD       -19.5080    3.1230   -5.8970 C.3   303  PRO303      0.0939
     90  N        -23.9950    1.7930   -4.6990 N.am  304  LEU304     -0.1978
     91  CA       -25.3600    2.0920   -4.2530 C.3   304  LEU304      0.1596
     92  C        -25.7910    1.0260   -3.2350 C.2   304  LEU304      0.2287
     93  O        -25.8750   -0.1620   -3.5760 O.2   304  LEU304     -0.2864
     94  CB       -26.3410    2.1140   -5.4330 C.3   304  LEU304      0.0297
     95  CG       -27.8390    2.2290   -5.0860 C.3   304  LEU304      0.0022
     96  CD1      -28.1550    3.6300   -4.6360 C.3   304  LEU304      0.0001
     97  CD2      -28.7650    1.8250   -6.2620 C.3   304  LEU304      0.0001
     98  N        -29.2700   -3.0210  -10.0340 N.3   323  GLN323     -0.1231
     99  CA       -27.9430   -2.5060  -10.3770 C.3   323  GLN323      0.1698
    100  C        -27.1900   -3.4080  -11.3320 C.2   323  GLN323      0.2593
    101  O        -27.3320   -4.6320  -11.3000 O.2   323  GLN323     -0.2718
    102  CB       -27.0880   -2.3710   -9.1310 C.3   323  GLN323      0.0381
    103  CG       -27.6180   -1.4520   -8.0690 C.3   323  GLN323      0.0905
    104  CD       -26.5880   -1.2530   -6.9880 C.2   323  GLN323      0.2608
    105  OE1      -25.4110   -1.0340   -7.2820 O.2   323  GLN323     -0.2717
    106  NE2      -27.0110   -1.3400   -5.7320 N.am  323  GLN323     -0.0878
    107  N        -26.3820   -2.7860  -12.1790 N.am  324  GLY324     -0.1942
    108  CA       -25.3920   -3.4950  -12.9630 C.3   324  GLY324      0.2014
    109  C        -24.0260   -2.9670  -12.5670 C.2   324  GLY324      0.2639
    110  O        -23.9260   -1.9000  -11.9440 O.2   324  GLY324     -0.2714
    111  N        -22.9810   -3.7120  -12.9250 N.am  325  TYR325     -0.1959
    112  CA       -21.6120   -3.3490  -12.5710 C.3   325  TYR325      0.1771
    113  C        -20.7210   -3.4440  -13.8010 C.2   325  TYR325      0.2620
    114  O        -20.7020   -4.4670  -14.4830 O.2   325  TYR325     -0.2715
    115  CB       -21.1120   -4.2430  -11.4100 C.3   325  TYR325      0.0574
    116  CG       -19.6040   -4.4760  -11.2830 C.ar  325  TYR325     -0.0198
    117  CD1      -18.7020   -3.4180  -11.0900 C.ar  325  TYR325     -0.0009
    118  CD2      -19.0900   -5.7640  -11.3180 C.ar  325  TYR325     -0.0009
    119  CE1      -17.3180   -3.6620  -10.9450 C.ar  325  TYR325      0.0417
    120  CE2      -17.7160   -6.0200  -11.1730 C.ar  325  TYR325      0.0417
    121  CZ       -16.8410   -4.9680  -10.9890 C.ar  325  TYR325      0.1957
    122  OH       -15.4920   -5.2450  -10.8600 O.3   325  TYR325     -0.2866
    123  N        -19.9700   -2.3740  -14.0630 N.am  326  GLY326     -0.1940
    124  CA       -19.0980   -2.3140  -15.2220 C.3   326  GLY326      0.2014
    125  C        -17.8440   -1.4790  -15.0620 C.2   326  GLY326      0.2639
    126  O        -17.6430   -0.7950  -14.0480 O.2   326  GLY326     -0.2714
    127  N        -17.0150   -1.5360  -16.1020 N.am  327  MET327     -0.1963
    128  CA       -15.7480   -0.8330  -16.1710 C.3   327  MET327      0.1736
    129  C        -15.5140   -0.3610  -17.5900 C.2   327  MET327      0.2617
    130  O        -15.9510   -1.0070  -18.5380 O.2   327  MET327     -0.2715
    131  CB       -14.6090   -1.7930  -15.8720 C.3   327  MET327      0.0427
    132  CG       -14.1170   -1.7740  -14.4780 C.3   327  MET327      0.0599
    133  SD       -13.1360   -3.2700  -14.2360 S.3   327  MET327     -0.1393
    134  CE       -14.4370   -4.2120  -13.5180 C.3   327  MET327      0.0692
    135  N        -14.7560    0.7210  -17.7310 N.am  328  THR328     -0.1937
    136  CA       -14.2890    1.1520  -19.0440 C.3   328  THR328      0.2028
    137  C        -13.6220   -0.0170  -19.7900 C.2   328  THR328      0.2642
    138  O        -13.8740   -0.2350  -20.9740 O.2   328  THR328     -0.2714
    139  CB       -13.3580    2.3680  -18.8920 C.3   328  THR328      0.1808
    140  OG1      -14.0950    3.3990  -18.2250 O.3   328  THR328     -0.2208
    141  CG2      -12.8770    2.8960  -20.2460 C.3   328  THR328      0.0379
    142  N        -12.8180   -0.7820  -19.0560 N.am  329  GLU329     -0.1976
    143  CA       -12.0560   -1.9140  -19.5900 C.3   329  GLU329      0.1602
    144  C        -12.9010   -3.1220  -20.0300 C.2   329  GLU329      0.2287
    145  O        -12.4100   -4.0160  -20.7300 O.2   329  GLU329     -0.2864
    146  CB       -11.0220   -2.3690  -18.5500 C.3   329  GLU329      0.0415
    147  CG        -9.8820   -1.3560  -18.3010 C.3   329  GLU329      0.1163
    148  CD       -10.2100   -0.2760  -17.2790 C.2   329  GLU329      0.3649
    149  OE1      -11.4010   -0.1230  -16.8900 O.co2 329  GLU329     -0.2457
    150  OE2       -9.2530    0.4150  -16.8530 O.co2 329  GLU329     -0.2457
    151  N        -16.9290   -2.9990  -20.1830 N.3   331  GLY331     -0.1210
    152  CA       -18.3870   -2.8260  -20.2400 C.3   331  GLY331      0.1940
    153  C        -18.9830   -3.5210  -19.0130 C.2   331  GLY331      0.2453
    154  O        -18.2800   -3.7010  -18.0160 O.2   331  GLY331     -0.2732
    155  N        -20.2720   -3.9100  -19.0610 N.am  332  PRO332     -0.2728
    156  CA       -20.8160   -4.5810  -17.8560 C.3   332  PRO332      0.1401
    157  C        -20.2330   -5.9740  -17.5660 C.2   332  PRO332      0.2269
    158  O        -20.1610   -6.8300  -18.4550 O.2   332  PRO332     -0.2865
    159  CB       -22.3260   -4.6650  -18.1380 C.3   332  PRO332      0.0296
    160  CG       -22.4780   -4.3770  -19.5850 C.3   332  PRO332      0.0237
    161  CD       -21.3510   -3.4710  -19.9660 C.3   332  PRO332      0.0939
    162  N        -24.9630   -7.9830  -14.3470 N.3   335  MET335     -0.1245
    163  CA       -26.1930   -7.2840  -14.6830 C.3   335  MET335      0.1570
    164  C        -27.3910   -7.9040  -13.9580 C.2   335  MET335      0.2261
    165  O        -27.5140   -9.1180  -13.8660 O.2   335  MET335     -0.2867
    166  CB       -26.4160   -7.3120  -16.1970 C.3   335  MET335      0.0387
    167  CG       -27.7080   -6.6440  -16.6660 C.3   335  MET335      0.0595
    168  SD       -27.7900   -4.8530  -16.3780 S.3   335  MET335     -0.1393
    169  CE       -26.3040   -4.2780  -17.2400 C.3   335  MET335      0.0692
    170  N        -25.1320   -6.0750   -7.2210 N.3   351  CYS351     -0.1235
    171  CA       -24.8550   -5.4020   -8.4860 C.3   351  CYS351      0.1677
    172  C        -24.9930   -6.3380   -9.6930 C.2   351  CYS351      0.2270
    173  O        -24.4520   -6.0700  -10.7670 O.2   351  CYS351     -0.2867
    174  CB       -23.5200   -4.6700   -8.4450 C.3   351  CYS351      0.0956
    175  SG       -22.1550   -5.7580   -8.3680 S.3   351  CYS351     -0.0801
    176  N        -11.4800   -4.4260   -7.8190 N.3   411  ASP411     -0.1239
    177  CA       -12.6980   -4.2900   -7.0220 C.3   411  ASP411      0.1674
    178  C        -12.8350   -5.4780   -6.0810 C.2   411  ASP411      0.2266
    179  O        -12.5280   -6.6190   -6.4500 O.2   411  ASP411     -0.2867
    180  CB       -13.9290   -4.1780   -7.9060 C.3   411  ASP411      0.1410
    181  CG       -13.9440   -2.8960   -8.7330 C.2   411  ASP411      0.3668
    182  OD1      -13.6850   -1.8020   -8.1840 O.co2 411  ASP411     -0.2456
    183  OD2      -14.2180   -2.9890   -9.9450 O.co2 411  ASP411     -0.2456
    184  N        -20.4780   -5.5880   -4.4050 N.3   423  ILE423     -0.1245
    185  CA       -19.2120   -4.8570   -4.3830 C.3   423  ILE423      0.1561
    186  C        -19.0730   -4.2180   -3.0210 C.2   423  ILE423      0.2260
    187  O        -20.0080   -3.5860   -2.5360 O.2   423  ILE423     -0.2867
    188  CB       -19.1920   -3.6900   -5.3970 C.3   423  ILE423      0.0252
    189  CG1      -19.3220   -4.1950   -6.8270 C.3   423  ILE423      0.0019
    190  CG2      -17.8980   -2.8380   -5.2400 C.3   423  ILE423      0.0019
    191  CD1      -18.0270   -4.5860   -7.4480 C.3   423  ILE423      0.0001
    192  N        -13.4910   -0.2850   -3.9550 N.3   426  ARG426     -0.1245
    193  CA       -12.1840   -0.4820   -4.6110 C.3   426  ARG426      0.1563
    194  C        -11.1980   -0.9130   -3.5500 C.2   426  ARG426      0.2260
    195  O        -11.1730   -0.3530   -2.4470 O.2   426  ARG426     -0.2867
    196  CB       -11.6290    0.7900   -5.2740 C.3   426  ARG426      0.0307
    197  CG       -12.5450    1.5350   -6.2530 C.3   426  ARG426      0.0489
    198  CD       -12.2690    1.2070   -7.7350 C.3   426  ARG426      0.2205
    199  NE       -10.8520    1.1190   -8.0930 N.pl3 426  ARG426     -0.0865
    200  CZ       -10.3120    0.1180   -8.7880 C.cat 426  ARG426      0.5346
    201  NH1      -11.0630   -0.8900   -9.2270 N.pl3 426  ARG426      0.1354
    202  NH2       -9.0170    0.1330   -9.0630 N.pl3 426  ARG426      0.1354
    203  N        -19.5080    9.1630  -10.0390 N.3   517  LYS517     -0.1245
    204  CA       -18.5750    8.6890   -9.0200 C.3   517  LYS517      0.1561
    205  C        -18.1720    9.8390   -8.1280 C.2   517  LYS517      0.2260
    206  O        -18.0600   10.9690   -8.6000 O.2   517  LYS517     -0.2867
    207  CB       -17.3180    8.1230   -9.6640 C.3   517  LYS517      0.0271
    208  CG       -17.5660    6.9260  -10.5360 C.3   517  LYS517      0.0035
    209  CD       -16.4430    6.7140  -11.5330 C.3   517  LYS517      0.0206
    210  CE       -16.2830    5.2220  -11.8110 C.3   517  LYS517      0.1093
    211  NZ       -17.4270    4.6520  -12.5790 N.3   517  LYS517     -0.1314
@<TRIPOS>BOND
     1    44    43    2
     2    42    41    1
     3    42    43    1
     4    42    45    1
     5    43    49   am
     6    47    46    2
     7    46    45    1
     8    46    48   am
     9    28    26    1
    10    52    51    2
    11    51    50    1
    12    49    50    1
    13    50    53    1
    14    24    23    2
    15    11    12    1
    16    14    13    2
    17    26    25    1
    18    22    23    1
    19    22    25    1
    20    22    21    1
    21    13    12    1
    22    13    21   am
    23   138   137    2
    24    23    29   am
    25    53    54    1
    26    25    27    1
    27    12    15    1
    28   145   144    2
    29    32    31    2
    30    31    30    1
    31   141   139    1
    32   152   151    1
    33   152   153    1
    34   144   143    1
    35   161   160    1
    36   161   155    1
    37   137   142   am
    38   137   136    1
    39    29    30    1
    40   143   142    1
    41   143   146    1
    42   160   159    1
    43    15    16    1
    44    30    33    1
    45     1     2    1
    46   155   153   am
    47   155   156    1
    48   136   139    1
    49   136   135    1
    50   153   154    2
    51   139   140    1
    52    62    61    1
    53   146   147    1
    54   130   129    2
    55   158   157    2
    56    16    18   ar
    57    16    17   ar
    58   147   148    1
    59   159   156    1
    60    35    37   ar
    61    35    34   ar
    62    33    34    1
    63   156   157    1
    64    18    20   ar
    65     2     5    1
    66     2     3    1
    67   135   129   am
    68    61    60    1
    69    17    19   ar
    70   129   128    1
    71     5     6    1
    72    37    39   ar
    73   148   149   ar
    74   148   150   ar
    75    34    36   ar
    76   169   168    1
    77     4     3    2
    78    20    19   ar
    79   167   168    1
    80   167   166    1
    81   166   163    1
    82   128   127    1
    83   128   131    1
    84   127   125   am
    85    60    59    1
    86    39    40    1
    87    39    38   ar
    88    36    38   ar
    89   131   132    1
    90   124   125    1
    91   124   123    1
    92   125   126    2
    93    59    56    1
    94   163   162    1
    95   163   164    1
    96   114   113    2
    97   132   133    1
    98   133   134    1
    99   123   113   am
   100   164   165    2
   101    55    56    1
   102   113   112    1
   103     7     8    1
   104    56    57    1
   105    58    57    2
   106    77    74    1
   107   108   109    1
   108   108   107    1
   109    57    63   am
   110   111   112    1
   111   111   109   am
   112     8     9    1
   113   211   210    1
   114   112   115    1
   115   109   110    2
   116    74    73    1
   117    74    75    1
   118    70    69    1
   119    70    71    1
   120    73    71   am
   121   107   100   am
   122    69    65   am
   123    63    64    1
   124    71    72    2
   125     9    10    2
   126   210   209    1
   127    65    66    2
   128    65    64    1
   129    64    67    1
   130   209   208    1
   131   115   116    1
   132   100   101    2
   133   100    99    1
   134   118   116   ar
   135   118   120   ar
   136   116   117   ar
   137   120   121   ar
   138   117   119   ar
   139   121   119   ar
   140   121   122    1
   141    75    76    2
   142    75    78   am
   143   173   172    2
   144   208   207    1
   145    99    98    1
   146    99   102    1
   147    67    68    1
   148   203   204    1
   149   183   181   ar
   150    78    79    1
   151   172   171    1
   152   207   204    1
   153   201   200    1
   154   102   103    1
   155   202   200    1
   156   204   205    1
   157   200   199    2
   158   181   182   ar
   159   181   180    1
   160   206   205    2
   161    79    82    1
   162    79    80    1
   163   171   174    1
   164   171   170    1
   165   174   175    1
   166   199   198    1
   167   103   104    1
   168   180   177    1
   169   176   177    1
   170    81    80    2
   171   198   197    1
   172    80    83   am
   173   191   189    1
   174   105   104    2
   175   177   178    1
   176   104   106   am
   177   189   188    1
   178   179   178    2
   179    97    95    1
   180   197   196    1
   181    83    89    1
   182    83    84    1
   183    89    88    1
   184    94    95    1
   185    94    91    1
   186   188   190    1
   187   188   185    1
   188   196   193    1
   189    84    85    1
   190    84    87    1
   191    95    96    1
   192    85    86    2
   193    85    90   am
   194    90    91    1
   195   193   192    1
   196   193   194    1
   197    88    87    1
   198   184   185    1
   199   185   186    1
   200    91    92    1
   201    93    92    2
   202   194   195    2
   203   186   187    2
