@<TRIPOS>MOLECULE
tmp/5bszA00.pdb
 210 200 0 0 0
SMALL
GASTEIGER

@<TRIPOS>ATOM
      1  N         -4.0540  -11.1760  -15.0090 N.3    15  LEU15      -0.1231
      2  CA        -5.0880  -11.6320  -15.9840 C.3    15  LEU15       0.1693
      3  C         -6.4140  -11.9570  -15.2340 C.2    15  LEU15       0.2592
      4  O         -6.4700  -11.8490  -14.0010 O.2    15  LEU15      -0.2718
      5  CB        -4.5890  -12.9010  -16.7350 C.3    15  LEU15       0.0284
      6  CG        -3.6360  -12.6820  -17.9100 C.3    15  LEU15       0.0019
      7  CD1       -3.0660  -14.0140  -18.4000 C.3    15  LEU15       0.0001
      8  CD2       -4.3030  -11.9190  -19.0450 C.3    15  LEU15       0.0001
      9  N         -7.4750  -12.3380  -15.9510 N.am   16  GLY16      -0.1957
     10  CA        -8.7290  -12.7930  -15.3300 C.3    16  GLY16       0.1869
     11  C         -8.5590  -13.4600  -13.9640 C.2    16  GLY16       0.2309
     12  O         -7.7380  -14.3890  -13.8140 O.2    16  GLY16      -0.2863
     13  N        -14.0510  -11.6180  -11.2460 N.3    21  LEU21      -0.1245
     14  CA       -15.0060  -11.7950  -12.3250 C.3    21  LEU21       0.1561
     15  C        -16.3780  -12.1550  -11.7480 C.2    21  LEU21       0.2260
     16  O        -17.3930  -11.6820  -12.2770 O.2    21  LEU21      -0.2867
     17  CB       -14.4800  -12.7500  -13.4190 C.3    21  LEU21       0.0270
     18  CG       -13.3020  -12.1970  -14.2670 C.3    21  LEU21       0.0019
     19  CD1      -13.1360  -12.8140  -15.6720 C.3    21  LEU21       0.0001
     20  CD2      -13.3490  -10.6810  -14.3970 C.3    21  LEU21       0.0001
     21  N        -17.6530   -8.4550  -10.3740 N.3    24  ARG24      -0.1245
     22  CA       -18.0890   -7.7250  -11.5650 C.3    24  ARG24       0.1563
     23  C        -19.4050   -8.2560  -12.1400 C.2    24  ARG24       0.2260
     24  O        -20.2670   -7.4750  -12.5530 O.2    24  ARG24      -0.2867
     25  CB       -17.0320   -7.8300  -12.6610 C.3    24  ARG24       0.0307
     26  CG       -15.8510   -6.8850  -12.5240 C.3    24  ARG24       0.0489
     27  CD       -15.0030   -6.9690  -13.7830 C.3    24  ARG24       0.2205
     28  NE       -13.6750   -6.3940  -13.6040 N.pl3  24  ARG24      -0.0865
     29  CZ       -12.6030   -6.7080  -14.3310 C.cat  24  ARG24       0.5346
     30  NH1      -12.6730   -7.6090  -15.3040 N.pl3  24  ARG24       0.1354
     31  NH2      -11.4420   -6.1160  -14.0780 N.pl3  24  ARG24       0.1354
     32  N        -24.7450   -8.1370  -13.9660 N.3    28  LYS28      -0.1245
     33  CA       -24.5620   -8.3730  -15.3870 C.3    28  LYS28       0.1561
     34  C        -25.5700   -9.3820  -15.8920 C.2    28  LYS28       0.2260
     35  O        -25.7310  -10.4440  -15.2940 O.2    28  LYS28      -0.2867
     36  CB       -23.1580   -8.9070  -15.6410 C.3    28  LYS28       0.0271
     37  CG       -22.8870   -9.1700  -17.1120 C.3    28  LYS28       0.0035
     38  CD       -21.3920   -9.1930  -17.3390 C.3    28  LYS28       0.0206
     39  CE       -21.0840   -9.4970  -18.7820 C.3    28  LYS28       0.1093
     40  NZ       -21.1900   -8.2590  -19.6010 N.3    28  LYS28      -0.1314
     41  N        -26.1110  -12.0060  -18.1120 N.3    30  PHE30      -0.1241
     42  CA       -25.4340  -12.9550  -18.9750 C.3    30  PHE30       0.1605
     43  C        -26.4490  -13.4900  -19.9630 C.2    30  PHE30       0.2264
     44  O        -26.1710  -13.6570  -21.1480 O.2    30  PHE30      -0.2867
     45  CB       -24.8220  -14.0450  -18.1130 C.3    30  PHE30       0.0534
     46  CG       -23.5310  -13.6270  -17.4910 C.ar   30  PHE30      -0.0203
     47  CD1      -22.3460  -13.7130  -18.2120 C.ar   30  PHE30      -0.0042
     48  CD2      -23.4960  -13.1450  -16.2000 C.ar   30  PHE30      -0.0042
     49  CE1      -21.1430  -13.3050  -17.6530 C.ar   30  PHE30      -0.0003
     50  CE2      -22.2970  -12.7490  -15.6270 C.ar   30  PHE30      -0.0003
     51  CZ       -21.1180  -12.8040  -16.3660 C.ar   30  PHE30      -0.0000
     52  N        -16.3680  -19.2440  -27.8120 N.3    53  ASP53      -0.1225
     53  CA       -16.3190  -17.9690  -27.0750 C.3    53  ASP53       0.1805
     54  C        -14.8750  -17.6660  -26.6620 C.2    53  ASP53       0.2598
     55  O        -14.2350  -18.3740  -25.8600 O.2    53  ASP53      -0.2718
     56  CB       -17.2840  -17.9810  -25.8920 C.3    53  ASP53       0.1424
     57  CG       -17.3640  -16.6340  -25.1440 C.2    53  ASP53       0.3668
     58  OD1      -17.0880  -15.5940  -25.7930 O.co2  53  ASP53      -0.2456
     59  OD2      -17.7100  -16.6510  -23.9300 O.co2  53  ASP53      -0.2456
     60  N        -14.3460  -16.5990  -27.2570 N.am   54  VAL54      -0.1966
     61  CA       -12.9480  -16.1890  -27.1400 C.3    54  VAL54       0.1727
     62  C        -12.8040  -15.1260  -26.0370 C.2    54  VAL54       0.2616
     63  O        -13.4950  -14.1150  -26.0570 O.2    54  VAL54      -0.2715
     64  CB       -12.4150  -15.6370  -28.4690 C.3    54  VAL54       0.0290
     65  CG1      -10.9840  -15.1680  -28.3290 C.3    54  VAL54       0.0023
     66  CG2      -12.5520  -16.6940  -29.5620 C.3    54  VAL54       0.0023
     67  N        -11.9020  -15.4060  -25.0870 N.am   55  ALA55      -0.1963
     68  CA       -11.7630  -14.6840  -23.8080 C.3    55  ALA55       0.1728
     69  C        -13.0000  -14.8190  -22.9640 C.2    55  ALA55       0.2616
     70  O        -13.5610  -13.8280  -22.5210 O.2    55  ALA55      -0.2715
     71  CB       -11.3500  -13.2190  -23.9980 C.3    55  ALA55       0.0334
     72  N        -13.3550  -16.0800  -22.7080 N.am   56  CYS56      -0.1954
     73  CA       -14.6180  -16.4470  -22.1340 C.3    56  CYS56       0.1843
     74  C        -14.7060  -16.2220  -20.5950 C.2    56  CYS56       0.2626
     75  O        -15.7620  -16.3720  -20.0230 O.2    56  CYS56      -0.2714
     76  CB       -14.9300  -17.8840  -22.5280 C.3    56  CYS56       0.0997
     77  SG       -13.8020  -19.1050  -21.7890 S.3    56  CYS56      -0.0797
     78  N        -13.6400  -15.8460  -19.9200 N.am   57  GLY57      -0.1940
     79  CA       -13.7310  -15.5770  -18.4490 C.3    57  GLY57       0.2014
     80  C        -14.1950  -16.8340  -17.7140 C.2    57  GLY57       0.2639
     81  O        -13.7110  -17.9360  -18.0010 O.2    57  GLY57      -0.2714
     82  N        -15.1900  -16.6750  -16.8590 N.am   58  THR58      -0.1950
     83  CA       -15.7120  -17.7550  -15.9980 C.3    58  THR58       0.1897
     84  C        -16.5190  -18.7760  -16.8010 C.2    58  THR58       0.2313
     85  O        -16.9450  -19.7680  -16.2410 O.2    58  THR58      -0.2863
     86  CB       -16.7100  -17.2280  -14.9420 C.3    58  THR58       0.1794
     87  OG1      -17.8320  -16.6240  -15.6040 O.3    58  THR58      -0.2208
     88  CG2      -16.0930  -16.1860  -14.0830 C.3    58  THR58       0.0378
     89  N        -21.2830  -17.0310  -19.9930 N.3    61  HIS61      -0.1241
     90  CA       -22.0360  -16.9140  -21.2180 C.3    61  HIS61       0.1621
     91  C        -22.1530  -18.3130  -21.8780 C.2    61  HIS61       0.2264
     92  O        -23.2010  -18.6630  -22.4150 O.2    61  HIS61      -0.2867
     93  CB       -21.4010  -15.9620  -22.2330 C.3    61  HIS61       0.0745
     94  CG       -21.4720  -14.5080  -21.8510 C.ar   61  HIS61       0.0817
     95  ND1      -20.4060  -13.8210  -21.3090 N.ar   61  HIS61      -0.2268
     96  CD2      -22.4770  -13.6040  -21.9730 C.ar   61  HIS61       0.1154
     97  CE1      -20.7700  -12.5670  -21.0800 C.ar   61  HIS61       0.1986
     98  NE2      -22.0050  -12.3960  -21.5110 N.ar   61  HIS61      -0.2212
     99  N        -11.8690  -20.0740  -25.1950 N.3    75  VAL75      -0.1231
    100  CA       -10.4500  -19.7520  -25.2050 C.3    75  VAL75       0.1693
    101  C        -10.2650  -18.7460  -24.0790 C.2    75  VAL75       0.2595
    102  O        -11.0760  -17.7950  -23.9600 O.2    75  VAL75      -0.2718
    103  CB       -10.0210  -19.1350  -26.5440 C.3    75  VAL75       0.0266
    104  CG1       -8.7550  -18.3130  -26.4210 C.3    75  VAL75       0.0020
    105  CG2       -9.8200  -20.2320  -27.5860 C.3    75  VAL75       0.0020
    106  N         -9.2640  -18.9910  -23.2350 N.am   76  GLU76      -0.1920
    107  CA        -8.9720  -18.0790  -22.0900 C.3    76  GLU76       0.1949
    108  C         -7.4650  -18.1420  -21.8050 C.2    76  GLU76       0.2659
    109  O         -6.9150  -19.2420  -21.6820 O.2    76  GLU76      -0.2711
    110  CB        -9.7560  -18.5960  -20.9000 C.2    76  GLU76       0.0111
    111  CG       -10.1540  -17.7040  -19.7540 C.2    76  GLU76       0.0838
    112  CD        -9.8700  -16.2280  -19.8480 C.2    76  GLU76       0.3877
    113  OE1      -10.8090  -15.4680  -20.0750 O.co2  76  GLU76      -0.2406
    114  OE2       -8.7080  -15.8660  -19.5870 O.co2  76  GLU76      -0.2406
    115  N         -6.7960  -16.9920  -21.7460 N.am   77  LEU77      -0.1961
    116  CA        -5.3730  -16.9400  -21.4330 C.3    77  LEU77       0.1728
    117  C         -5.0760  -17.1510  -19.9790 C.2    77  LEU77       0.2616
    118  O         -4.0140  -17.6450  -19.6330 O.2    77  LEU77      -0.2715
    119  CB        -4.7030  -15.6710  -21.9470 C.3    77  LEU77       0.0311
    120  CG        -3.1810  -15.5650  -21.8390 C.3    77  LEU77       0.0022
    121  CD1       -2.5740  -16.7300  -22.6410 C.3    77  LEU77       0.0001
    122  CD2       -2.7940  -14.2150  -22.3880 C.3    77  LEU77       0.0001
    123  N         -6.0290  -16.8780  -19.1110 N.am   78  SER78      -0.1950
    124  CA        -5.7310  -16.9280  -17.6950 C.3    78  SER78       0.1924
    125  C         -5.9040  -18.3780  -17.2280 C.2    78  SER78       0.2314
    126  O         -6.9870  -18.9240  -17.3470 O.2    78  SER78      -0.2863
    127  CB        -6.7010  -16.0620  -16.9080 C.3    78  SER78       0.2116
    128  OG        -6.6300  -16.4240  -15.5440 O.3    78  SER78      -0.2180
    129  N         -8.9360  -18.6640  -14.7850 N.3    81  MET81      -0.1245
    130  CA       -10.2280  -18.5870  -15.4580 C.3    81  MET81       0.1570
    131  C        -10.5330  -19.8500  -16.2500 C.2    81  MET81       0.2261
    132  O        -11.6960  -20.2900  -16.2410 O.2    81  MET81      -0.2867
    133  CB       -10.3710  -17.3870  -16.4060 C.3    81  MET81       0.0387
    134  CG       -10.2630  -16.0160  -15.7910 C.3    81  MET81       0.0595
    135  SD       -11.5700  -15.6570  -14.6000 S.3    81  MET81      -0.1393
    136  CE       -11.0830  -16.7490  -13.2890 C.3    81  MET81       0.0692
    137  N         -5.1640  -20.1860  -24.3930 N.3    97  ALA97      -0.1231
    138  CA        -4.5540  -19.6030  -25.5670 C.3    97  ALA97       0.1694
    139  C         -4.7990  -18.1130  -25.6480 C.2    97  ALA97       0.2592
    140  O         -5.6440  -17.5510  -24.9400 O.2    97  ALA97      -0.2718
    141  CB        -5.0250  -20.2610  -26.8480 C.3    97  ALA97       0.0304
    142  N         -3.9480  -17.5170  -26.4760 N.am   98  ASP98      -0.1960
    143  CA        -3.9030  -16.0980  -26.7530 C.3    98  ASP98       0.1840
    144  C         -4.8440  -15.7730  -27.9130 C.2    98  ASP98       0.2622
    145  O         -4.6800  -16.2460  -29.0550 O.2    98  ASP98      -0.2715
    146  CB        -2.4730  -15.6980  -27.0780 C.3    98  ASP98       0.1450
    147  CG        -2.3150  -14.2080  -27.3000 C.2    98  ASP98       0.3671
    148  OD1       -3.2930  -13.4080  -27.1530 O.co2  98  ASP98      -0.2456
    149  OD2       -1.2040  -13.8960  -27.7690 O.co2  98  ASP98      -0.2456
    150  N         -5.8200  -14.9350  -27.5990 N.am   99  MET99      -0.1963
    151  CA        -6.8560  -14.5370  -28.5700 C.3    99  MET99       0.1736
    152  C         -6.2360  -13.9010  -29.7900 C.2    99  MET99       0.2616
    153  O         -6.8580  -13.8680  -30.8510 O.2    99  MET99      -0.2715
    154  CB        -7.8820  -13.5500  -27.9350 C.3    99  MET99       0.0427
    155  CG        -7.2860  -12.2640  -27.3990 C.3    99  MET99       0.0599
    156  SD        -8.3480  -11.1230  -26.4020 S.3    99  MET99      -0.1393
    157  CE        -9.5100  -11.0240  -27.6970 C.3    99  MET99       0.0692
    158  N         -5.0360  -13.3500  -29.6450 N.am  100  PHE100     -0.1974
    159  CA        -4.3780  -12.6540  -30.7350 C.3   100  PHE100      0.1639
    160  C         -3.7750  -13.5630  -31.7810 C.2   100  PHE100      0.2290
    161  O         -3.5330  -13.1140  -32.9000 O.2   100  PHE100     -0.2864
    162  CB        -3.3240  -11.6620  -30.2210 C.3   100  PHE100      0.0560
    163  CG        -3.9510  -10.6220  -29.3760 C.ar  100  PHE100     -0.0200
    164  CD1       -4.9330   -9.8190  -29.9200 C.ar  100  PHE100     -0.0042
    165  CD2       -3.6840  -10.5580  -28.0320 C.ar  100  PHE100     -0.0042
    166  CE1       -5.5970   -8.9320  -29.1250 C.ar  100  PHE100     -0.0003
    167  CE2       -4.3520   -9.6500  -27.2350 C.ar  100  PHE100     -0.0003
    168  CZ        -5.2950   -8.8460  -27.7880 C.ar  100  PHE100     -0.0000
    169  N        -16.8800  -11.3040  -26.2410 N.3   114  LEU114     -0.1231
    170  CA       -17.9240  -10.5190  -25.6070 C.3   114  LEU114      0.1693
    171  C        -17.3790   -9.5020  -24.5980 C.2   114  LEU114      0.2592
    172  O        -16.2450   -9.6170  -24.1500 O.2   114  LEU114     -0.2718
    173  CB       -18.9100  -11.4530  -24.9170 C.3   114  LEU114      0.0284
    174  CG       -19.6220  -12.4180  -25.8600 C.3   114  LEU114      0.0019
    175  CD1      -20.5600  -13.3120  -25.0790 C.3   114  LEU114      0.0001
    176  CD2      -20.3980  -11.6750  -26.9340 C.3   114  LEU114      0.0001
    177  N        -18.2500   -8.5690  -24.2200 N.am  115  THR115     -0.1953
    178  CA       -18.0200   -7.5370  -23.2200 C.3   115  THR115      0.1897
    179  C        -16.7630   -6.7140  -23.4080 C.2   115  THR115      0.2313
    180  O        -16.0910   -6.3620  -22.4590 O.2   115  THR115     -0.2863
    181  CB       -18.1090   -8.1320  -21.8070 C.3   115  THR115      0.1794
    182  OG1      -17.0280   -9.0310  -21.5950 O.3   115  THR115     -0.2208
    183  CG2      -19.2880   -8.9380  -21.7480 C.3   115  THR115      0.0378
    184  N        -13.9360   -7.4380  -24.7490 N.3   117  SER117     -0.1217
    185  CA       -12.6740   -8.1090  -24.5120 C.3   117  SER117      0.1889
    186  C        -11.6850   -7.9520  -25.6700 C.2   117  SER117      0.2288
    187  O        -10.4670   -7.9200  -25.4560 O.2   117  SER117     -0.2866
    188  CB       -12.9010   -9.5910  -24.2280 C.3   117  SER117      0.2089
    189  OG       -13.5850   -9.7360  -23.0010 O.3   117  SER117     -0.2183
    190  N         -8.6170   -5.3910  -25.4790 N.3   120  TYR120     -0.1241
    191  CA        -7.2340   -5.6400  -25.1090 C.3   120  TYR120      0.1605
    192  C         -6.2310   -5.4440  -26.2510 C.2   120  TYR120      0.2264
    193  O         -5.0620   -5.2090  -25.9930 O.2   120  TYR120     -0.2867
    194  CB        -7.0740   -7.0640  -24.5360 C.3   120  TYR120      0.0534
    195  CG        -7.5960   -7.3000  -23.1300 C.ar  120  TYR120     -0.0201
    196  CD1       -6.7200   -7.4710  -22.0540 C.ar  120  TYR120     -0.0009
    197  CD2       -8.9210   -7.3200  -22.8540 C.ar  120  TYR120     -0.0009
    198  CE1       -7.1830   -7.7180  -20.7720 C.ar  120  TYR120      0.0417
    199  CE2       -9.4010   -7.5330  -21.5760 C.ar  120  TYR120      0.0417
    200  CZ        -8.5370   -7.7130  -20.5400 C.ar  120  TYR120      0.1957
    201  OH        -9.0700   -7.9450  -19.3070 O.3   120  TYR120     -0.2866
    202  N         -6.1080   -1.4930  -15.5720 N.3   206  GLN206     -0.1245
    203  CA        -6.1180   -2.1110  -16.8860 C.3   206  GLN206      0.1566
    204  C         -6.5610   -1.0900  -17.9310 C.2   206  GLN206      0.2260
    205  O         -7.4480   -0.2650  -17.6960 O.2   206  GLN206     -0.2867
    206  CB        -6.9540   -3.4000  -16.9060 C.3   206  GLN206      0.0367
    207  CG        -8.4330   -3.2650  -17.2680 C.3   206  GLN206      0.0905
    208  CD        -9.2340   -4.5680  -17.1840 C.2   206  GLN206      0.2608
    209  OE1       -9.6420   -5.0070  -16.1030 O.2   206  GLN206     -0.2717
    210  NE2       -9.5200   -5.1560  -18.3330 N.am  206  GLN206     -0.0878
@<TRIPOS>BOND
     1   161   160    2
     2   160   159    1
     3   153   152    2
     4   159   162    1
     5   159   158    1
     6   162   163    1
     7   164   163   ar
     8   164   166   ar
     9   152   158   am
    10   152   151    1
    11    66    64    1
    12   163   165   ar
    13   166   168   ar
    14   145   144    2
    15   151   154    1
    16   151   150    1
    17    64    65    1
    18    64    61    1
    19   165   167   ar
    20   154   155    1
    21   144   150   am
    22   144   143    1
    23    52    53    1
    24   168   167   ar
    25   149   147   ar
    26   157   156    1
    27   105   103    1
    28   155   156    1
    29   147   148   ar
    30   147   146    1
    31    60    61    1
    32    60    54   am
    33    61    62    1
    34   146   143    1
    35    53    54    1
    36    53    56    1
    37   176   174    1
    38   141   138    1
    39   143   142    1
    40    54    55    2
    41   103   104    1
    42   103   100    1
    43   142   139   am
    44   192   193    2
    45   192   191    1
    46   169   170    1
    47    63    62    2
    48    62    67   am
    49    56    57    1
    50   174   175    1
    51   174   173    1
    52    58    57   ar
    53   186   187    2
    54   186   185    1
    55   139   138    1
    56   139   140    2
    57   170   173    1
    58   170   171    1
    59   138   137    1
    60   190   191    1
    61   100    99    1
    62   100   101    1
    63    57    59   ar
    64   191   194    1
    65    67    68    1
    66   184   185    1
    67   171   177   am
    68   171   172    2
    69   194   195    1
    70   185   188    1
    71   188   189    1
    72   177   178    1
    73   101   102    2
    74   101   106   am
    75    71    68    1
    76    68    69    1
    77   179   178    1
    78   179   180    2
    79   106   107    1
    80   178   181    1
    81   195   197   ar
    82   195   196   ar
    83    69    72   am
    84    69    70    2
    85   197   199   ar
    86    72    73    1
    87   121   120    1
    88    76    73    1
    89    76    77    1
    90    92    91    2
    91   122   120    1
    92    93    94    1
    93    93    90    1
    94    73    74    1
    95   107   108    1
    96   107   110    1
    97   196   198   ar
    98    96    94   ar
    99    96    98   ar
   100   119   120    1
   101   119   116    1
   102    91    90    1
   103    94    95   ar
   104   181   183    1
   105   181   182    1
   106   108   115   am
   107   108   109    2
   108   115   116    1
   109   199   200   ar
   110    98    97   ar
   111   116   117    1
   112    95    97   ar
   113    90    89    1
   114    44    43    2
   115   110   111    2
   116   198   200   ar
   117    74    75    2
   118    74    78   am
   119   200   201    1
   120   113   112   ar
   121   117   118    2
   122   117   123   am
   123    43    42    1
   124    78    79    1
   125   112   111    1
   126   112   114   ar
   127    40    39    1
   128   123   124    1
   129     8     6    1
   130    42    45    1
   131    42    41    1
   132    39    38    1
   133    79    80    1
   134     7     6    1
   135   210   208   am
   136    47    49   ar
   137    47    46   ar
   138    45    46    1
   139    81    80    2
   140   204   205    2
   141   204   203    1
   142     6     5    1
   143    80    82   am
   144   124   125    1
   145   124   127    1
   146    49    51   ar
   147    46    48   ar
   148   126   125    2
   149    38    37    1
   150   207   208    1
   151   207   206    1
   152   208   209    2
   153    37    36    1
   154   127   128    1
   155   206   203    1
   156   203   202    1
   157    82    83    1
   158    84    85    2
   159    84    83    1
   160     5     2    1
   161   133   134    1
   162   133   130    1
   163    51    50   ar
   164   131   132    2
   165   131   130    1
   166    48    50   ar
   167    83    86    1
   168     2     3    1
   169     2     1    1
   170     9    10    1
   171     9     3   am
   172    34    33    1
   173    34    35    2
   174   134   135    1
   175    19    18    1
   176    36    33    1
   177    87    86    1
   178   130   129    1
   179    33    32    1
   180    10    11    1
   181    30    29    1
   182     3     4    2
   183    86    88    1
   184   135   136    1
   185    20    18    1
   186    29    31    1
   187    29    28    2
   188    18    17    1
   189    11    12    2
   190    27    28    1
   191    27    26    1
   192    17    14    1
   193    25    26    1
   194    25    22    1
   195    24    23    2
   196    14    15    1
   197    14    13    1
   198    16    15    2
   199    23    22    1
   200    22    21    1
