@<TRIPOS>MOLECULE
tmp/5bszA01.pdb
 107 109 0 0 0
SMALL
GASTEIGER

@<TRIPOS>ATOM
      1  N        -15.7410   -2.7830  -27.3470 N.3   149  TRP149     -0.1227
      2  CA       -15.6320   -1.7880  -26.2610 C.3   149  TRP149      0.1737
      3  C        -16.0570   -0.4470  -26.8740 C.2   149  TRP149      0.2595
      4  O        -16.3800   -0.3820  -28.1000 O.2   149  TRP149     -0.2718
      5  CB       -14.1810   -1.7610  -25.7500 C.3   149  TRP149      0.0564
      6  CG       -13.9400   -0.8070  -24.6030 C.ar  149  TRP149      0.0003
      7  CD1      -13.0370    0.2170  -24.5950 C.ar  149  TRP149      0.0946
      8  CD2      -14.6160   -0.7370  -23.3370 C.ar  149  TRP149      0.0152
      9  NE1      -13.1020    0.8940  -23.4190 N.ar  149  TRP149     -0.2442
     10  CE2      -14.0720    0.3400  -22.6290 C.ar  149  TRP149      0.0810
     11  CE3      -15.6120   -1.4880  -22.7260 C.ar  149  TRP149      0.0012
     12  CZ2      -14.5000    0.6930  -21.3470 C.ar  149  TRP149      0.0191
     13  CZ3      -16.0180   -1.1460  -21.4390 C.ar  149  TRP149      0.0001
     14  CH2      -15.4850   -0.0400  -20.7770 C.ar  149  TRP149      0.0015
     15  N        -16.1330    0.5780  -26.0130 N.am  150  TRP150     -0.1976
     16  CA       -16.4430    1.9470  -26.4200 C.3   150  TRP150      0.1640
     17  C        -15.4690    2.5280  -27.4250 C.2   150  TRP150      0.2290
     18  O        -14.3360    2.0630  -27.5600 O.2   150  TRP150     -0.2864
     19  CB       -16.6830    2.8770  -25.2090 C.3   150  TRP150      0.0576
     20  CG       -17.7150    2.3230  -24.2680 C.ar  150  TRP150      0.0006
     21  CD1      -17.4850    1.6480  -23.0730 C.ar  150  TRP150      0.0946
     22  CD2      -19.1330    2.3100  -24.4530 C.ar  150  TRP150      0.0152
     23  NE1      -18.6940    1.2390  -22.5020 N.ar  150  TRP150     -0.2442
     24  CE2      -19.7130    1.6500  -23.3250 C.ar  150  TRP150      0.0810
     25  CE3      -19.9900    2.8090  -25.4530 C.ar  150  TRP150      0.0012
     26  CZ2      -21.0990    1.4600  -23.2100 C.ar  150  TRP150      0.0191
     27  CZ3      -21.3690    2.6460  -25.3070 C.ar  150  TRP150      0.0001
     28  CH2      -21.9050    1.9850  -24.2020 C.ar  150  TRP150      0.0015
     29  N        -17.9750    7.5690  -27.9470 N.3   154  THR154     -0.1203
     30  CA       -18.9800    7.0770  -27.0420 C.3   154  THR154      0.1994
     31  C        -18.4590    6.8290  -25.6330 C.2   154  THR154      0.2618
     32  O        -19.2390    6.6550  -24.7170 O.2   154  THR154     -0.2717
     33  CB       -19.6760    5.8190  -27.6020 C.3   154  THR154      0.1784
     34  OG1      -18.6990    4.8560  -28.0160 O.3   154  THR154     -0.2211
     35  CG2      -20.5510    6.1990  -28.8520 C.3   154  THR154      0.0376
     36  N        -17.1520    6.7880  -25.4300 N.am  155  PHE155     -0.1961
     37  CA       -16.6490    6.6180  -24.0740 C.3   155  PHE155      0.1771
     38  C        -17.0320    7.8420  -23.2570 C.2   155  PHE155      0.2619
     39  O        -16.8860    8.9580  -23.7280 O.2   155  PHE155     -0.2715
     40  CB       -15.1430    6.4230  -24.0740 C.3   155  PHE155      0.0574
     41  CG       -14.5590    6.2760  -22.6990 C.ar  155  PHE155     -0.0200
     42  CD1      -14.7220    5.0790  -21.9930 C.ar  155  PHE155     -0.0042
     43  CD2      -13.9480    7.3370  -22.0790 C.ar  155  PHE155     -0.0042
     44  CE1      -14.2400    4.9520  -20.6950 C.ar  155  PHE155     -0.0003
     45  CE2      -13.4150    7.1980  -20.8000 C.ar  155  PHE155     -0.0003
     46  CZ       -13.5690    6.0110  -20.1020 C.ar  155  PHE155     -0.0000
     47  N        -17.5040    7.6160  -22.0360 N.am  156  LEU156     -0.1977
     48  CA       -17.9760    8.6960  -21.1770 C.3   156  LEU156      0.1596
     49  C        -16.9800    8.8820  -20.0720 C.2   156  LEU156      0.2287
     50  O        -16.7280    7.9670  -19.3510 O.2   156  LEU156     -0.2864
     51  CB       -19.3360    8.3290  -20.5610 C.3   156  LEU156      0.0297
     52  CG       -20.4290    8.2520  -21.6290 C.3   156  LEU156      0.0022
     53  CD1      -21.7470    7.8530  -20.9680 C.3   156  LEU156      0.0001
     54  CD2      -20.5250    9.5260  -22.5000 C.3   156  LEU156      0.0001
     55  N        -16.7850    8.0830  -15.0720 N.3   159  HIS159     -0.1241
     56  CA       -17.4310    6.9210  -14.5090 C.3   159  HIS159      0.1621
     57  C        -16.8010    6.5520  -13.1400 C.2   159  HIS159      0.2264
     58  O        -15.5830    6.4560  -13.0400 O.2   159  HIS159     -0.2867
     59  CB       -17.3060    5.7350  -15.4290 C.3   159  HIS159      0.0745
     60  CG       -17.8720    4.4720  -14.8400 C.ar  159  HIS159      0.0817
     61  ND1      -19.2240    4.2720  -14.6690 N.ar  159  HIS159     -0.2268
     62  CD2      -17.2690    3.3470  -14.3880 C.ar  159  HIS159      0.1154
     63  CE1      -19.4320    3.0840  -14.1260 C.ar  159  HIS159      0.1986
     64  NE2      -18.2600    2.4960  -13.9620 N.ar  159  HIS159     -0.2212
     65  N        -12.7700    5.1540  -14.0200 N.3   178  SER178     -0.1217
     66  CA       -12.1390    5.0690  -15.3490 C.3   178  SER178      0.1889
     67  C        -11.8450    6.4600  -15.9030 C.2   178  SER178      0.2288
     68  O        -12.5140    7.4210  -15.5490 O.2   178  SER178     -0.2866
     69  CB       -12.9710    4.2000  -16.2900 C.3   178  SER178      0.2089
     70  OG       -14.0760    4.9050  -16.8510 O.3   178  SER178     -0.2183
     71  N         -8.7650    1.8070  -16.4990 N.3   187  HIS187     -0.1241
     72  CA        -9.7470    1.3540  -15.5120 C.3   187  HIS187      0.1621
     73  C         -9.0740    0.9660  -14.1990 C.2   187  HIS187      0.2264
     74  O         -8.1870    0.0910  -14.1480 O.2   187  HIS187     -0.2867
     75  CB       -10.5410    0.1500  -16.1020 C.3   187  HIS187      0.0745
     76  CG       -11.2950    0.5400  -17.3210 C.ar  187  HIS187      0.0817
     77  ND1      -12.6300    0.8900  -17.2890 N.ar  187  HIS187     -0.2268
     78  CD2      -10.8840    0.7180  -18.6000 C.ar  187  HIS187      0.1154
     79  CE1      -13.0050    1.2700  -18.4980 C.ar  187  HIS187      0.1986
     80  NE2      -11.9630    1.1840  -19.3090 N.ar  187  HIS187     -0.2212
     81  N        -25.1330   -3.1980  -26.3090 N.3   235  GLN235     -0.1231
     82  CA       -25.4290   -2.0680  -25.4450 C.3   235  GLN235      0.1683
     83  C        -25.8370   -0.8740  -26.2920 C.2   235  GLN235      0.2434
     84  O        -25.4060   -0.7400  -27.4720 O.2   235  GLN235     -0.2733
     85  CB       -24.2080   -1.7480  -24.5530 C.3   235  GLN235      0.0380
     86  CG       -23.7790   -2.9390  -23.6910 C.3   235  GLN235      0.0905
     87  CD       -22.9110   -2.6210  -22.4940 C.2   235  GLN235      0.2608
     88  OE1      -22.1240   -3.4690  -22.0050 O.2   235  GLN235     -0.2717
     89  NE2      -23.0720   -1.4150  -21.9740 N.am  235  GLN235     -0.0878
     90  N        -26.7100   -0.0270  -25.7230 N.am  236  PRO236     -0.2718
     91  CA       -27.0680    1.2210  -26.4050 C.3   236  PRO236      0.1535
     92  C        -25.8430    2.0490  -26.7390 C.2   236  PRO236      0.2598
     93  O        -24.9290    2.1340  -25.9290 O.2   236  PRO236     -0.2715
     94  CB       -27.9470    1.9350  -25.3640 C.3   236  PRO236      0.0310
     95  CG       -28.6140    0.8060  -24.6590 C.3   236  PRO236      0.0237
     96  CD       -27.5190   -0.2120  -24.5100 C.3   236  PRO236      0.0939
     97  N        -25.8330    2.5770  -27.9550 N.am  237  ARG237     -0.1978
     98  CA       -24.8330    3.4780  -28.4930 C.3   237  ARG237      0.1597
     99  C        -23.5780    2.7020  -28.8240 C.2   237  ARG237      0.2287
    100  O        -22.6140    3.2520  -29.3390 O.2   237  ARG237     -0.2864
    101  CB       -24.4980    4.6430  -27.5430 C.3   237  ARG237      0.0334
    102  CG       -25.6680    5.3310  -26.8560 C.3   237  ARG237      0.0492
    103  CD       -25.3370    6.8040  -26.6110 C.3   237  ARG237      0.2205
    104  NE       -24.1410    6.9250  -25.7870 N.pl3 237  ARG237     -0.0865
    105  CZ       -23.2080    7.8730  -25.8670 C.cat 237  ARG237      0.5346
    106  NH1      -22.1740    7.7940  -25.0400 N.pl3 237  ARG237      0.1354
    107  NH2      -23.2970    8.9000  -26.7130 N.pl3 237  ARG237      0.1354
@<TRIPOS>BOND
     1   100    99    2
     2    35    33    1
     3    99    98    1
     4    98    97    1
     5    98   101    1
     6     4     3    2
     7    34    33    1
     8    97    92   am
     9    29    30    1
    10    33    30    1
    11    18    17    2
    12   101   102    1
    13    84    83    2
    14    17    16    1
    15     1     2    1
    16    30    31    1
    17     3     2    1
    18     3    15   am
    19   102   103    1
    20    92    91    1
    21    92    93    2
    22   107   105    1
    23   103   104    1
    24    16    15    1
    25    16    19    1
    26    91    90    1
    27    91    94    1
    28    81    82    1
    29    83    90   am
    30    83    82    1
    31     2     5    1
    32   105   104    2
    33   105   106    1
    34     5     6    1
    35    90    96    1
    36    31    36   am
    37    31    32    2
    38    25    27   ar
    39    25    22   ar
    40    82    85    1
    41    36    37    1
    42    94    95    1
    43    27    28   ar
    44    19    20    1
    45    95    96    1
    46     6     7   ar
    47     6     8   ar
    48     7     9   ar
    49    85    86    1
    50    22    20   ar
    51    22    24   ar
    52    20    21   ar
    53    28    26   ar
    54    37    40    1
    55    37    38    1
    56    40    41    1
    57    39    38    2
    58    86    87    1
    59     9    10   ar
    60     8    11   ar
    61     8    10   ar
    62    24    26   ar
    63    24    23   ar
    64    38    47   am
    65    21    23   ar
    66    11    13   ar
    67    41    43   ar
    68    41    42   ar
    69    10    12   ar
    70    54    52    1
    71    87    88    2
    72    87    89   am
    73    43    45   ar
    74    47    48    1
    75    42    44   ar
    76    52    53    1
    77    52    51    1
    78    13    14   ar
    79    12    14   ar
    80    48    51    1
    81    48    49    1
    82    45    46   ar
    83    44    46   ar
    84    49    50    2
    85    80    78   ar
    86    80    79   ar
    87    78    76   ar
    88    79    77   ar
    89    76    77   ar
    90    76    75    1
    91    70    69    1
    92    71    72    1
    93    69    66    1
    94    75    72    1
    95    67    68    2
    96    67    66    1
    97    72    73    1
    98    59    60    1
    99    59    56    1
   100    66    65    1
   101    55    56    1
   102    60    61   ar
   103    60    62   ar
   104    61    63   ar
   105    56    57    1
   106    62    64   ar
   107    73    74    2
   108    63    64   ar
   109    57    58    2
