@<TRIPOS>MOLECULE
tmp/5bt3A00.pdb
 148 143 0 0 0
SMALL
GASTEIGER

@<TRIPOS>ATOM
      1  N         30.4340    3.7100   14.2210 N.3    23  PRO23      -0.2116
      2  CA        29.8360    3.8860   12.8900 C.3    23  PRO23       0.1372
      3  C         28.4660    4.5540   12.8650 C.2    23  PRO23       0.2244
      4  O         27.8860    4.6890   11.7810 O.2    23  PRO23      -0.2868
      5  CB        29.7030    2.4410   12.4090 C.3    23  PRO23       0.0268
      6  CG        29.4110    1.6940   13.6550 C.3    23  PRO23       0.0207
      7  CD        30.2960    2.3220   14.6960 C.3    23  PRO23       0.0892
      8  N         27.5690    7.2480   10.2840 N.3    26  LEU26      -0.1231
      9  CA        27.8750    7.0580    8.8630 C.3    26  LEU26       0.1678
     10  C         26.6540    7.1910    7.9460 C.2    26  LEU26       0.2434
     11  O         26.7460    7.8420    6.9100 O.2    26  LEU26      -0.2733
     12  CB        28.6170    5.7380    8.6050 C.3    26  LEU26       0.0284
     13  CG        29.9960    5.6350    9.2610 C.3    26  LEU26       0.0019
     14  CD1       30.5590    4.2420    9.0580 C.3    26  LEU26       0.0001
     15  CD2       30.9690    6.6720    8.7280 C.3    26  LEU26       0.0001
     16  N         25.5070    6.5950    8.3090 N.am   27  PRO27      -0.2718
     17  CA        24.3470    6.7250    7.4160 C.3    27  PRO27       0.1535
     18  C         23.8000    8.1420    7.3220 C.2    27  PRO27       0.2598
     19  O         23.0370    8.4330    6.3950 O.2    27  PRO27      -0.2715
     20  CB        23.3010    5.7880    8.0430 C.3    27  PRO27       0.0310
     21  CG        24.0790    4.8670    8.9090 C.3    27  PRO27       0.0237
     22  CD        25.2240    5.6790    9.4270 C.3    27  PRO27       0.0939
     23  N         24.1580    8.9950    8.2850 N.am   28  PHE28      -0.1974
     24  CA        23.6270   10.3500    8.4020 C.3    28  PHE28       0.1639
     25  C         24.5570   11.4070    7.8330 C.2    28  PHE28       0.2290
     26  O         24.1730   12.5790    7.7580 O.2    28  PHE28      -0.2864
     27  CB        23.3160   10.6540    9.8700 C.3    28  PHE28       0.0560
     28  CG        22.2630    9.7580   10.4350 C.ar   28  PHE28      -0.0200
     29  CD1       20.9340   10.0840   10.2890 C.ar   28  PHE28      -0.0042
     30  CD2       22.5910    8.5600   11.0470 C.ar   28  PHE28      -0.0042
     31  CE1       19.9390    9.2680   10.7760 C.ar   28  PHE28      -0.0003
     32  CE2       21.5960    7.7260   11.5190 C.ar   28  PHE28      -0.0003
     33  CZ        20.2780    8.0880   11.3850 C.ar   28  PHE28      -0.0000
     34  N         25.7010   11.7670    4.7860 N.3    30  GLN30      -0.1245
     35  CA        25.4180   12.0020    3.3590 C.3    30  GLN30       0.1566
     36  C         23.8960   12.0240    3.1800 C.2    30  GLN30       0.2260
     37  O         23.1970   11.3300    3.9090 O.2    30  GLN30      -0.2867
     38  CB        25.9910   10.8420    2.5110 C.3    30  GLN30       0.0367
     39  CG        27.4470   10.5080    2.8030 C.3    30  GLN30       0.0905
     40  CD        27.9520    9.3130    2.0110 C.2    30  GLN30       0.2608
     41  OE1       28.9790    9.3950    1.3320 O.2    30  GLN30      -0.2717
     42  NE2       27.2390    8.1940    2.1010 N.am   30  GLN30      -0.0878
     43  N         20.4320   10.7350    1.9730 N.3    32  VAL32      -0.1245
     44  CA        19.9530    9.4370    1.5360 C.3    32  VAL32       0.1561
     45  C         19.8420    9.4540    0.0100 C.2    32  VAL32       0.2260
     46  O         19.2760   10.3870   -0.5650 O.2    32  VAL32      -0.2867
     47  CB        18.5860    9.1190    2.1650 C.3    32  VAL32       0.0252
     48  CG1       18.0310    7.8230    1.6180 C.3    32  VAL32       0.0019
     49  CG2       18.6890    9.0320    3.6870 C.3    32  VAL32       0.0019
     50  N         20.8580    4.4680   -4.9830 N.3    36  LEU36      -0.1231
     51  CA        21.9660    3.6150   -4.5520 C.3    36  LEU36       0.1693
     52  C         21.5150    2.4660   -3.6700 C.2    36  LEU36       0.2591
     53  O         22.1090    1.3920   -3.6870 O.2    36  LEU36      -0.2718
     54  CB        23.0040    4.4270   -3.7900 C.3    36  LEU36       0.0284
     55  CG        23.8550    5.3960   -4.6040 C.3    36  LEU36       0.0019
     56  CD1       24.8070    6.1210   -3.6710 C.3    36  LEU36       0.0001
     57  CD2       24.6290    4.6790   -5.6970 C.3    36  LEU36       0.0001
     58  N         20.4850    2.7140   -2.8670 N.am   37  LEU37      -0.1980
     59  CA        20.1010    1.8100   -1.7900 C.3    37  LEU37       0.1596
     60  C         18.9860    0.8470   -2.1510 C.2    37  LEU37       0.2287
     61  O         18.6920   -0.0550   -1.3800 O.2    37  LEU37      -0.2864
     62  CB        19.6800    2.6300   -0.5790 C.3    37  LEU37       0.0297
     63  CG        20.7380    3.5540    0.0160 C.3    37  LEU37       0.0022
     64  CD1       20.1280    4.3450    1.1560 C.3    37  LEU37       0.0001
     65  CD2       21.9260    2.7600    0.5030 C.3    37  LEU37       0.0001
     66  N         15.7070    1.6670   -2.5890 N.3    39  ILE39      -0.1245
     67  CA        14.5210    2.0410   -1.7990 C.3    39  ILE39       0.1561
     68  C         13.7350    3.1330   -2.5270 C.2    39  ILE39       0.2260
     69  O         13.6500    4.2750   -2.0790 O.2    39  ILE39      -0.2867
     70  CB        14.9040    2.4450   -0.3520 C.3    39  ILE39       0.0252
     71  CG1       15.9910    3.5240   -0.3290 C.3    39  ILE39       0.0019
     72  CG2       15.3650    1.2170    0.4280 C.3    39  ILE39       0.0019
     73  CD1       16.2450    4.0920    1.0530 C.3    39  ILE39       0.0001
     74  N         11.4600    6.0500   -1.0970 N.3    42  TYR42      -0.1241
     75  CA        11.9430    6.8850   -0.0040 C.3    42  TYR42       0.1605
     76  C         11.3660    8.3040   -0.0530 C.2    42  TYR42       0.2264
     77  O         10.8270    8.7880    0.9520 O.2    42  TYR42      -0.2867
     78  CB        13.4740    6.9080    0.0270 C.3    42  TYR42       0.0534
     79  CG        14.0080    7.7470    1.1650 C.ar   42  TYR42      -0.0201
     80  CD1       14.0740    7.2390    2.4570 C.ar   42  TYR42      -0.0009
     81  CD2       14.4180    9.0540    0.9580 C.ar   42  TYR42      -0.0009
     82  CE1       14.5380    8.0140    3.5090 C.ar   42  TYR42       0.0417
     83  CE2       14.8760    9.8360    1.9990 C.ar   42  TYR42       0.0417
     84  CZ        14.9360    9.3190    3.2770 C.ar   42  TYR42       0.1957
     85  OH        15.3830   10.1240    4.3050 O.3    42  TYR42      -0.2866
     86  N         12.9020   11.6610   10.1610 N.3    80  ASN80      -0.1225
     87  CA        12.8620   11.0020    8.8700 C.3    80  ASN80       0.1785
     88  C         13.3500    9.5610    8.9670 C.2    80  ASN80       0.2597
     89  O         12.7510    8.6370    8.3830 O.2    80  ASN80      -0.2718
     90  CB        13.7220   11.7520    7.8660 C.3    80  ASN80       0.1169
     91  CG        13.1550   13.1020    7.4770 C.2    80  ASN80       0.2627
     92  OD1       11.9830   13.4010    7.6730 O.2    80  ASN80      -0.2716
     93  ND2       14.0070   13.9300    6.8890 N.am   80  ASN80      -0.0877
     94  N         14.4360    9.3560    9.7050 N.am   81  ALA81      -0.1979
     95  CA        15.0130    8.0140    9.8310 C.3    81  ALA81       0.1597
     96  C         14.1250    7.0920   10.6570 C.2    81  ALA81       0.2287
     97  O         13.9420    5.9120   10.3150 O.2    81  ALA81      -0.2864
     98  CB        16.4170    8.0780   10.4220 C.3    81  ALA81       0.0319
     99  N         11.0530    6.1760    8.3220 N.3    84  TYR84      -0.1227
    100  CA        11.2480    5.3030    7.1800 C.3    84  TYR84       0.1736
    101  C         11.6530    3.8820    7.5670 C.2    84  TYR84       0.2595
    102  O         11.3040    2.9310    6.8720 O.2    84  TYR84      -0.2718
    103  CB        12.2690    5.9080    6.1880 C.3    84  TYR84       0.0548
    104  CG        12.2660    5.1270    4.9030 C.ar   84  TYR84      -0.0200
    105  CD1       11.2360    5.2910    3.9910 C.ar   84  TYR84      -0.0009
    106  CD2       13.2290    4.1550    4.6420 C.ar   84  TYR84      -0.0009
    107  CE1       11.1700    4.5320    2.8430 C.ar   84  TYR84       0.0417
    108  CE2       13.1740    3.3950    3.4910 C.ar   84  TYR84       0.0417
    109  CZ        12.1370    3.5870    2.6020 C.ar   84  TYR84       0.1957
    110  OH        12.0810    2.8100    1.4700 O.3    84  TYR84      -0.2866
    111  N         12.3780    3.7540    8.6680 N.am   85  ASN85      -0.1974
    112  CA        12.9950    2.4920    9.0460 C.3    85  ASN85       0.1688
    113  C         12.2750    1.8330   10.2010 C.2    85  ASN85       0.2292
    114  O         11.6090    2.4920   10.9870 O.2    85  ASN85      -0.2864
    115  CB        14.4660    2.7270    9.3640 C.3    85  ASN85       0.1181
    116  CG        15.1990    3.3170    8.1830 C.2    85  ASN85       0.2629
    117  OD1       15.5840    2.5900    7.2560 O.2    85  ASN85      -0.2716
    118  ND2       15.3820    4.6360    8.1960 N.am   85  ASN85      -0.0877
    119  N         19.1480   -1.4690   12.0410 N.3    90  ARG90      -0.1231
    120  CA        20.3870   -0.8210   12.4360 C.3    90  ARG90       0.1694
    121  C         20.2840    0.6910   12.3490 C.2    90  ARG90       0.2591
    122  O         20.7030    1.4060   13.2690 O.2    90  ARG90      -0.2718
    123  CB        21.5350   -1.3050   11.5670 C.3    90  ARG90       0.0321
    124  CG        22.8950   -0.7570   11.9610 C.3    90  ARG90       0.0489
    125  CD        23.9710   -1.2420   11.0050 C.3    90  ARG90       0.2205
    126  NE        24.0740   -2.7020   11.0440 N.pl3  90  ARG90      -0.0865
    127  CZ        24.9290   -3.3890   11.7960 C.cat  90  ARG90       0.5346
    128  NH1       25.8200   -2.7730   12.5640 N.pl3  90  ARG90       0.1354
    129  NH2       24.8870   -4.7160   11.7760 N.pl3  90  ARG90       0.1354
    130  N         19.7520    1.1950   11.2420 N.am   91  VAL91      -0.1980
    131  CA        19.7340    2.6400   11.0800 C.3    91  VAL91       0.1595
    132  C         18.8160    3.3020   12.1170 C.2    91  VAL91       0.2287
    133  O         19.1310    4.3890   12.6000 O.2    91  VAL91      -0.2864
    134  CB        19.4340    3.0430    9.6310 C.3    91  VAL91       0.0276
    135  CG1       17.9990    2.8080    9.2870 C.3    91  VAL91       0.0022
    136  CG2       19.8390    4.4800    9.3910 C.3    91  VAL91       0.0022
    137  N         20.8340    3.3270   15.3240 N.3    94  TYR94      -0.1241
    138  CA        21.8750    4.3510   15.2390 C.3    94  TYR94       0.1605
    139  C         21.2640    5.7520   15.3720 C.2    94  TYR94       0.2264
    140  O         21.8340    6.6300   16.0350 O.2    94  TYR94      -0.2867
    141  CB        22.6490    4.2300   13.9190 C.3    94  TYR94       0.0534
    142  CG        23.6050    3.0530   13.8130 C.ar   94  TYR94      -0.0201
    143  CD1       23.8170    2.1650   14.8640 C.ar   94  TYR94      -0.0009
    144  CD2       24.3540    2.8760   12.6650 C.ar   94  TYR94      -0.0009
    145  CE1       24.7190    1.1230   14.7520 C.ar   94  TYR94       0.0417
    146  CE2       25.2640    1.8510   12.5450 C.ar   94  TYR94       0.0417
    147  CZ        25.4460    0.9830   13.5850 C.ar   94  TYR94       0.1957
    148  OH        26.3510   -0.0350   13.4240 O.3    94  TYR94      -0.2866
@<TRIPOS>BOND
     1    57    55    1
     2    50    51    1
     3    55    54    1
     4    55    56    1
     5    51    54    1
     6    51    52    1
     7    53    52    2
     8    52    58   am
     9    58    59    1
    10    66    67    1
    11    68    69    2
    12    68    67    1
    13    60    59    1
    14    60    61    2
    15    67    70    1
    16    59    62    1
    17    74    75    1
    18    62    63    1
    19    46    45    2
    20    70    71    1
    21    70    72    1
    22    71    73    1
    23    76    75    1
    24    76    77    2
    25    75    78    1
    26    45    44    1
    27    63    65    1
    28    63    64    1
    29    78    79    1
    30    81    79   ar
    31    81    83   ar
    32    79    80   ar
    33    41    40    2
    34   110   109    1
    35    44    43    1
    36    44    47    1
    37    48    47    1
    38    83    84   ar
    39    40    42   am
    40    40    39    1
    41    47    49    1
    42    80    82   ar
    43    38    39    1
    44    38    35    1
    45   109   107   ar
    46   109   108   ar
    47   107   105   ar
    48    36    35    1
    49    36    37    2
    50    84    82   ar
    51    84    85    1
    52    35    34    1
    53   108   106   ar
    54   105   104   ar
    55   106   104   ar
    56   104   103    1
    57   103   100    1
    58    19    18    2
    59   102   101    2
    60    93    91   am
    61    11    10    2
    62   100   101    1
    63   100    99    1
    64   117   116    2
    65    18    17    1
    66    18    23   am
    67    17    20    1
    68    17    16    1
    69    91    92    2
    70    91    90    1
    71   101   111   am
    72    26    25    2
    73    25    24    1
    74    90    87    1
    75    10    16   am
    76    10     9    1
    77    20    21    1
    78   116   118   am
    79   116   115    1
    80    23    24    1
    81    16    22    1
    82    89    88    2
    83    24    27    1
    84    12     9    1
    85    12    13    1
    86   111   112    1
    87    15    13    1
    88     9     8    1
    89    87    88    1
    90    87    86    1
    91    21    22    1
    92    88    94   am
    93   112   115    1
    94   112   113    1
    95    14    13    1
    96   135   134    1
    97   136   134    1
    98   134   131    1
    99    94    95    1
   100    95    98    1
   101    95    96    1
   102    27    28    1
   103   113   114    2
   104    29    28   ar
   105    29    31   ar
   106    97    96    2
   107    28    30   ar
   108    31    33   ar
   109   125   126    1
   110   125   124    1
   111   126   127    2
   112    30    32   ar
   113   131   130    1
   114   131   132    1
   115   130   121   am
   116    33    32   ar
   117   123   124    1
   118   123   120    1
   119   129   127    1
   120     4     3    2
   121   127   128    1
   122   119   120    1
   123   132   133    2
   124   121   120    1
   125   121   122    2
   126     5     2    1
   127     5     6    1
   128   146   144   ar
   129   146   147   ar
   130   144   142   ar
   131     3     2    1
   132     2     1    1
   133   148   147    1
   134   147   145   ar
   135     6     7    1
   136   142   141    1
   137   142   143   ar
   138   141   138    1
   139     1     7    1
   140   145   143   ar
   141   138   137    1
   142   138   139    1
   143   139   140    2
