@<TRIPOS>MOLECULE
tmp/5bt4A00.pdb
 127 124 0 0 0
SMALL
GASTEIGER

@<TRIPOS>ATOM
      1  N         27.5370   65.5580   26.5910 N.3    40  TRP40      -0.1228
      2  CA        28.9470   65.9190   26.7020 C.3    40  TRP40       0.1722
      3  C         29.7510   65.8830   25.3870 C.2    40  TRP40       0.2437
      4  O         30.3450   66.8890   25.0120 O.2    40  TRP40      -0.2733
      5  CB        29.6270   65.0660   27.8030 C.3    40  TRP40       0.0563
      6  CG        31.1150   65.3260   28.0270 C.ar   40  TRP40       0.0003
      7  CD1       31.7710   66.5170   27.9460 C.ar   40  TRP40       0.0946
      8  CD2       32.1040   64.3550   28.3920 C.ar   40  TRP40       0.0152
      9  NE1       33.1050   66.3450   28.2290 N.ar   40  TRP40      -0.2442
     10  CE2       33.3360   65.0240   28.5050 C.ar   40  TRP40       0.0810
     11  CE3       32.0590   62.9880   28.6380 C.ar   40  TRP40       0.0012
     12  CZ2       34.5170   64.3610   28.8460 C.ar   40  TRP40       0.0191
     13  CZ3       33.2310   62.3260   28.9800 C.ar   40  TRP40       0.0001
     14  CH2       34.4390   63.0210   29.0890 C.ar   40  TRP40       0.0015
     15  N         29.7900   64.7310   24.6910 N.am   41  PRO41      -0.2718
     16  CA        30.6430   64.6820   23.4990 C.3    41  PRO41       0.1535
     17  C         30.1640   65.5490   22.3500 C.2    41  PRO41       0.2598
     18  O         30.9060   65.7360   21.3950 O.2    41  PRO41      -0.2715
     19  CB        30.5970   63.2090   23.0870 C.3    41  PRO41       0.0310
     20  CG        29.3060   62.6980   23.6070 C.3    41  PRO41       0.0237
     21  CD        29.0390   63.4760   24.8800 C.3    41  PRO41       0.0939
     22  N         28.9210   66.0430   22.4250 N.am   42  PHE42      -0.1974
     23  CA        28.3740   66.9630   21.4100 C.3    42  PHE42       0.1639
     24  C         28.4350   68.4360   21.8090 C.2    42  PHE42       0.2290
     25  O         27.9700   69.2980   21.0560 O.2    42  PHE42      -0.2864
     26  CB        26.9300   66.5570   21.0830 C.3    42  PHE42       0.0560
     27  CG        26.7940   65.1210   20.6290 C.ar   42  PHE42      -0.0200
     28  CD1       27.0630   64.7590   19.3070 C.ar   42  PHE42      -0.0042
     29  CD2       26.4080   64.1210   21.5210 C.ar   42  PHE42      -0.0042
     30  CE1       26.9580   63.4320   18.9090 C.ar   42  PHE42      -0.0003
     31  CE2       26.2930   62.7910   21.1170 C.ar   42  PHE42      -0.0003
     32  CZ        26.5760   62.4610   19.8150 C.ar   42  PHE42      -0.0000
     33  N         31.0000   70.4960   22.0950 N.3    44  GLN44      -0.1245
     34  CA        32.1050   71.2440   21.4990 C.3    44  GLN44       0.1566
     35  C         32.5410   70.5340   20.2260 C.2    44  GLN44       0.2260
     36  O         32.1880   69.3690   20.0350 O.2    44  GLN44      -0.2867
     37  CB        33.2850   71.3710   22.4850 C.3    44  GLN44       0.0367
     38  CG        33.8400   70.0580   23.0010 C.3    44  GLN44       0.0905
     39  CD        32.9860   69.4530   24.0890 C.2    44  GLN44       0.2608
     40  OE1       32.5480   70.1320   25.0140 O.2    44  GLN44      -0.2717
     41  NE2       32.7250   68.1560   23.9740 N.am   44  GLN44      -0.0878
     42  N         34.4040   68.2730   17.5580 N.3    46  VAL46      -0.1231
     43  CA        35.1940   67.0420   17.6920 C.3    46  VAL46       0.1692
     44  C         36.7070   67.4050   17.7010 C.2    46  VAL46       0.2592
     45  O         37.2110   67.9900   16.7480 O.2    46  VAL46      -0.2718
     46  CB        34.8760   66.0350   16.5580 C.3    46  VAL46       0.0266
     47  CG1       35.8400   64.8610   16.5560 C.3    46  VAL46       0.0020
     48  CG2       33.4580   65.5130   16.7080 C.3    46  VAL46       0.0020
     49  N         37.3990   67.0970   18.7930 N.am   47  ASP47      -0.1974
     50  CA        38.8520   67.3550   18.9150 C.3    47  ASP47       0.1709
     51  C         39.5680   66.0850   18.4490 C.2    47  ASP47       0.2293
     52  O         39.8120   65.1360   19.2200 O.2    47  ASP47      -0.2864
     53  CB        39.1930   67.7230   20.3610 C.3    47  ASP47       0.1436
     54  CG        40.6350   68.1220   20.5420 C.2    47  ASP47       0.3671
     55  OD1       41.4780   67.8010   19.6860 O.co2  47  ASP47      -0.2456
     56  OD2       40.9130   68.7430   21.5830 O.co2  47  ASP47      -0.2456
     57  N         43.0200   65.3080   20.2070 N.3    50  LYS50      -0.1231
     58  CA        42.9310   64.7030   21.5350 C.3    50  LYS50       0.1693
     59  C         42.3370   63.3030   21.4670 C.2    50  LYS50       0.2591
     60  O         42.7680   62.4220   22.2100 O.2    50  LYS50      -0.2718
     61  CB        42.1230   65.5900   22.4840 C.3    50  LYS50       0.0285
     62  CG        42.7700   66.9340   22.7920 C.3    50  LYS50       0.0035
     63  CD        44.0410   66.8600   23.6170 C.3    50  LYS50       0.0206
     64  CE        44.3670   68.2270   24.2010 C.3    50  LYS50       0.1093
     65  NZ        45.7510   68.3150   24.7250 N.3    50  LYS50      -0.1314
     66  N         41.3660   63.0890   20.5750 N.am   51  LEU51      -0.1980
     67  CA        40.7300   61.7820   20.4180 C.3    51  LEU51       0.1596
     68  C         41.5450   60.8080   19.5760 C.2    51  LEU51       0.2287
     69  O         41.1670   59.6340   19.4490 O.2    51  LEU51      -0.2864
     70  CB        39.3220   61.9520   19.8090 C.3    51  LEU51       0.0297
     71  CG        38.3430   62.6700   20.7350 C.3    51  LEU51       0.0022
     72  CD1       37.1150   63.1670   19.9780 C.3    51  LEU51       0.0001
     73  CD2       37.9370   61.7540   21.8880 C.3    51  LEU51       0.0001
     74  N         42.0230   60.7730   16.2440 N.3    53  LEU53      -0.1245
     75  CA        41.2430   60.4040   15.0580 C.3    53  LEU53       0.1561
     76  C         41.7840   61.1390   13.8370 C.2    53  LEU53       0.2260
     77  O         41.1700   62.0890   13.3550 O.2    53  LEU53      -0.2867
     78  CB        39.7600   60.7410   15.2620 C.3    53  LEU53       0.0270
     79  CG        39.1090   60.2370   16.5480 C.3    53  LEU53       0.0019
     80  CD1       37.6770   60.7420   16.6770 C.3    53  LEU53       0.0001
     81  CD2       39.1640   58.7180   16.6110 C.3    53  LEU53       0.0001
     82  N         39.2780   61.9340   10.9230 N.3    56  TYR56      -0.1241
     83  CA        37.9580   62.5400   11.1590 C.3    56  TYR56       0.1605
     84  C         37.6790   63.6640   10.1620 C.2    56  TYR56       0.2264
     85  O         36.6280   63.6760    9.5060 O.2    56  TYR56      -0.2867
     86  CB        37.7850   63.0340   12.6040 C.3    56  TYR56       0.0534
     87  CG        36.3640   63.5330   12.8500 C.ar   56  TYR56      -0.0201
     88  CD1       35.3550   62.6360   13.1810 C.ar   56  TYR56      -0.0009
     89  CD2       36.0230   64.8730   12.6900 C.ar   56  TYR56      -0.0009
     90  CE1       34.0520   63.0560   13.3440 C.ar   56  TYR56       0.0417
     91  CE2       34.7210   65.3010   12.8520 C.ar   56  TYR56       0.0417
     92  CZ        33.7380   64.3870   13.1770 C.ar   56  TYR56       0.1957
     93  OH        32.4280   64.8270   13.3350 O.3    56  TYR56      -0.2866
     94  N         27.8550   62.2470   12.8410 N.3    95  CYS95      -0.1235
     95  CA        28.1150   61.1670   13.7810 C.3    95  CYS95       0.1677
     96  C         27.8260   59.8280   13.1150 C.2    95  CYS95       0.2270
     97  O         28.5800   58.8710   13.2680 O.2    95  CYS95      -0.2867
     98  CB        27.2480   61.3690   15.0230 C.3    95  CYS95       0.0956
     99  SG        27.6080   60.2070   16.3400 S.3    95  CYS95      -0.0801
    100  N         30.5430   58.9670   10.3520 N.3    98  TYR98      -0.1227
    101  CA        31.8930   58.6170   10.8120 C.3    98  TYR98       0.1736
    102  C         31.9440   57.3200   11.6150 C.2    98  TYR98       0.2595
    103  O         32.8980   56.5500   11.4830 O.2    98  TYR98      -0.2718
    104  CB        32.5010   59.7760   11.6240 C.3    98  TYR98       0.0548
    105  CG        33.9200   59.4610   12.0440 C.ar   98  TYR98      -0.0200
    106  CD1       34.9520   59.5480   11.1200 C.ar   98  TYR98      -0.0009
    107  CD2       34.2150   58.9940   13.3120 C.ar   98  TYR98      -0.0009
    108  CE1       36.2480   59.1980   11.4630 C.ar   98  TYR98       0.0417
    109  CE2       35.5030   58.6440   13.6700 C.ar   98  TYR98       0.0417
    110  CZ        36.5120   58.7560   12.7400 C.ar   98  TYR98       0.1957
    111  OH        37.8080   58.3750   13.0820 O.3    98  TYR98      -0.2866
    112  N         30.9500   57.1090   12.4610 N.am   99  ASN99      -0.1974
    113  CA        30.8890   55.9450   13.3640 C.3    99  ASN99       0.1688
    114  C         30.0260   54.8180   12.7950 C.2    99  ASN99       0.2292
    115  O         29.5440   54.9220   11.6890 O.2    99  ASN99      -0.2864
    116  CB        30.4070   56.4420   14.7330 C.3    99  ASN99       0.1181
    117  CG        31.2920   57.5470   15.2740 C.2    99  ASN99       0.2629
    118  OD1       32.3960   57.2810   15.7510 O.2    99  ASN99      -0.2716
    119  ND2       30.8370   58.7940   15.1760 N.am   99  ASN99      -0.0877
    120  N         28.6480   56.0000   20.9000 N.3   105  ILE105     -0.1245
    121  CA        28.3870   57.3940   20.4960 C.3   105  ILE105      0.1561
    122  C         27.1670   57.5200   19.5660 C.2   105  ILE105      0.2260
    123  O         26.4460   58.5140   19.6080 O.2   105  ILE105     -0.2867
    124  CB        29.6300   58.0650   19.8690 C.3   105  ILE105      0.0252
    125  CG1       29.4640   59.5900   19.7670 C.3   105  ILE105      0.0019
    126  CG2       29.9610   57.4720   18.5040 C.3   105  ILE105      0.0019
    127  CD1       29.3280   60.2720   21.1060 C.3   105  ILE105      0.0001
@<TRIPOS>BOND
     1    85    84    2
     2    84    83    1
     3   100   101    1
     4   101   102    1
     5   101   104    1
     6    82    83    1
     7   106   108   ar
     8   106   105   ar
     9    83    86    1
    10   108   110   ar
    11   103   102    2
    12   102   112   am
    13   104   105    1
    14   115   114    2
    15   105   107   ar
    16   112   113    1
    17    86    87    1
    18    89    87   ar
    19    89    91   ar
    20   110   111    1
    21   110   109   ar
    22   114   113    1
    23    94    95    1
    24    87    88   ar
    25    91    92   ar
    26    96    97    2
    27    96    95    1
    28    92    93    1
    29    92    90   ar
    30    88    90   ar
    31   107   109   ar
    32    77    76    2
    33   113   116    1
    34    95    98    1
    35    76    75    1
    36   116   117    1
    37    98    99    1
    38    75    78    1
    39    75    74    1
    40   119   117   am
    41    78    79    1
    42   117   118    2
    43    79    81    1
    44    79    80    1
    45    47    46    1
    46    46    48    1
    47    46    43    1
    48    45    44    2
    49    42    43    1
    50    43    44    1
    51    44    49   am
    52    51    50    1
    53    51    52    2
    54   126   124    1
    55    49    50    1
    56    30    28   ar
    57    30    32   ar
    58    50    53    1
    59    28    27   ar
    60    69    68    2
    61   122   123    2
    62   122   121    1
    63    68    67    1
    64    55    54   ar
    65   125   124    1
    66   125   127    1
    67    70    67    1
    68    70    71    1
    69    32    31   ar
    70   124   121    1
    71    72    71    1
    72    36    35    2
    73    57    58    1
    74    35    34    1
    75    53    54    1
    76    67    66    1
    77   121   120    1
    78    54    56   ar
    79    66    59   am
    80    27    26    1
    81    27    29   ar
    82    71    73    1
    83    25    24    2
    84    26    23    1
    85    31    29   ar
    86    18    17    2
    87    23    24    1
    88    23    22    1
    89    59    58    1
    90    59    60    2
    91    34    33    1
    92    34    37    1
    93    58    61    1
    94    17    22   am
    95    17    16    1
    96    61    62    1
    97    37    38    1
    98    62    63    1
    99    38    39    1
   100    19    16    1
   101    19    20    1
   102    16    15    1
   103    20    21    1
   104    63    64    1
   105    41    39   am
   106    39    40    2
   107    64    65    1
   108    15    21    1
   109    15     3   am
   110     4     3    2
   111     3     2    1
   112     1     2    1
   113     2     5    1
   114     5     6    1
   115     7     6   ar
   116     7     9   ar
   117     6     8   ar
   118     9    10   ar
   119     8    10   ar
   120     8    11   ar
   121    10    12   ar
   122    11    13   ar
   123    12    14   ar
   124    13    14   ar
