@<TRIPOS>MOLECULE
tmp/5bt5A00.pdb
 151 147 0 0 0
SMALL
GASTEIGER

@<TRIPOS>ATOM
      1  N        -16.0370    4.5050   -9.3510 N.3    25  TRP25      -0.1228
      2  CA       -17.4100    4.2470   -8.9130 C.3    25  TRP25       0.1722
      3  C        -17.6690    2.8880   -8.2590 C.2    25  TRP25       0.2437
      4  O        -18.4770    2.8550   -7.3370 O.2    25  TRP25      -0.2733
      5  CB       -18.4480    4.5520  -10.0220 C.3    25  TRP25       0.0563
      6  CG       -18.4510    3.6220  -11.1680 C.ar   25  TRP25       0.0003
      7  CD1      -17.8410    3.8210  -12.3650 C.ar   25  TRP25       0.0946
      8  CD2      -19.0650    2.3260  -11.2490 C.ar   25  TRP25       0.0152
      9  NE1      -18.0460    2.7470  -13.1960 N.ar   25  TRP25      -0.2442
     10  CE2      -18.7790    1.8110  -12.5340 C.ar   25  TRP25       0.0810
     11  CE3      -19.8150    1.5420  -10.3610 C.ar   25  TRP25       0.0012
     12  CZ2      -19.2210    0.5750  -12.9490 C.ar   25  TRP25       0.0191
     13  CZ3      -20.2390    0.3220  -10.7780 C.ar   25  TRP25       0.0001
     14  CH2      -19.9500   -0.1440  -12.0660 C.ar   25  TRP25       0.0015
     15  N        -17.0020    1.7880   -8.6860 N.am   26  PRO26      -0.2718
     16  CA       -17.2520    0.5050   -7.9970 C.3    26  PRO26       0.1535
     17  C        -16.8510    0.5210   -6.5170 C.2    26  PRO26       0.2598
     18  O        -17.2910   -0.3460   -5.7510 O.2    26  PRO26      -0.2715
     19  CB       -16.4000   -0.5030   -8.7770 C.3    26  PRO26       0.0310
     20  CG       -16.2240    0.1160  -10.1150 C.3    26  PRO26       0.0237
     21  CD       -16.0920    1.5880   -9.8350 C.3    26  PRO26       0.0939
     22  N        -16.0020    1.4810   -6.1360 N.am   27  PHE27      -0.1974
     23  CA       -15.4450    1.5960   -4.7800 C.3    27  PHE27       0.1639
     24  C        -16.1870    2.5930   -3.9030 C.2    27  PHE27       0.2290
     25  O        -15.7920    2.7990   -2.7530 O.2    27  PHE27      -0.2864
     26  CB       -13.9590    1.9480   -4.8930 C.3    27  PHE27       0.0560
     27  CG       -13.2150    0.9910   -5.7710 C.ar   27  PHE27      -0.0200
     28  CD1      -12.8940   -0.2710   -5.3020 C.ar   27  PHE27      -0.0042
     29  CD2      -12.9560    1.2990   -7.1070 C.ar   27  PHE27      -0.0042
     30  CE1      -12.2670   -1.1840   -6.1190 C.ar   27  PHE27      -0.0003
     31  CE2      -12.3440    0.3740   -7.9370 C.ar   27  PHE27      -0.0003
     32  CZ       -12.0120   -0.8560   -7.4410 C.ar   27  PHE27      -0.0000
     33  N        -19.3010    2.4760   -2.5660 N.3    29  LYS29      -0.1245
     34  CA       -20.1490    1.9030   -1.5360 C.3    29  LYS29       0.1561
     35  C        -19.7190    0.4700   -1.2440 C.2    29  LYS29       0.2260
     36  O        -19.0330   -0.1470   -2.0630 O.2    29  LYS29      -0.2867
     37  CB       -21.6020    1.9050   -2.0170 C.3    29  LYS29       0.0271
     38  CG       -22.2510    3.2940   -2.1080 C.3    29  LYS29       0.0035
     39  CD       -22.3210    3.9940   -0.7430 C.3    29  LYS29       0.0206
     40  CE       -23.3270    5.1330   -0.5630 C.3    29  LYS29       0.1093
     41  NZ       -23.3000    6.1650   -1.6290 N.3    29  LYS29      -0.1314
     42  N        -19.4250   -3.4330   -1.2030 N.3    31  VAL31      -0.1231
     43  CA       -19.8390   -4.5020   -2.1050 C.3    31  VAL31       0.1692
     44  C        -21.1140   -5.1410   -1.5480 C.2    31  VAL31       0.2592
     45  O        -21.1340   -5.5940   -0.4100 O.2    31  VAL31      -0.2718
     46  CB       -18.7270   -5.5840   -2.2390 C.3    31  VAL31       0.0266
     47  CG1      -19.2270   -6.7700   -3.0670 C.3    31  VAL31       0.0020
     48  CG2      -17.4560   -5.0020   -2.8540 C.3    31  VAL31       0.0020
     49  N        -22.1820   -5.1270   -2.3650 N.am   32  ASP32      -0.1974
     50  CA       -23.4320   -5.7930   -1.9990 C.3    32  ASP32       0.1709
     51  C        -23.3970   -7.1800   -2.6200 C.2    32  ASP32       0.2293
     52  O        -23.8330   -7.3860   -3.7540 O.2    32  ASP32      -0.2864
     53  CB       -24.6540   -5.0030   -2.4610 C.3    32  ASP32       0.1436
     54  CG       -25.9500   -5.5840   -1.9460 C.2    32  ASP32       0.3671
     55  OD1      -26.0150   -6.7890   -1.5910 O.co2  32  ASP32      -0.2456
     56  OD2      -26.9450   -4.8090   -1.9380 O.co2  32  ASP32      -0.2456
     57  N        -25.1550   -8.7280   -6.1410 N.3    36  LEU36      -0.1245
     58  CA       -24.3120   -9.0470   -7.2830 C.3    36  LEU36       0.1561
     59  C        -24.2050  -10.5520   -7.5520 C.2    36  LEU36       0.2260
     60  O        -23.5300  -10.9400   -8.4980 O.2    36  LEU36      -0.2867
     61  CB       -22.8990   -8.4670   -7.0740 C.3    36  LEU36       0.0270
     62  CG       -22.8090   -6.9340   -7.0040 C.3    36  LEU36       0.0019
     63  CD1      -21.4410   -6.5110   -6.4730 C.3    36  LEU36       0.0001
     64  CD2      -23.1090   -6.3190   -8.3590 C.3    36  LEU36       0.0001
     65  N        -22.6350  -12.6880   -5.6130 N.3    38  LEU38      -0.1245
     66  CA       -21.2890  -13.0890   -5.1870 C.3    38  LEU38       0.1561
     67  C        -21.3830  -13.7450   -3.8270 C.2    38  LEU38       0.2260
     68  O        -20.9330  -13.2270   -2.8060 O.2    38  LEU38      -0.2867
     69  CB       -20.3730  -11.8620   -5.1550 C.3    38  LEU38       0.0270
     70  CG       -20.3610  -11.0490   -6.4430 C.3    38  LEU38       0.0019
     71  CD1      -19.4440   -9.8550   -6.2420 C.3    38  LEU38       0.0001
     72  CD2      -19.9540  -11.8810   -7.6420 C.3    38  LEU38       0.0001
     73  N        -18.3240  -14.0410   -1.4780 N.3    41  TYR41      -0.1241
     74  CA       -17.5420  -12.8370   -1.2100 C.3    41  TYR41       0.1605
     75  C        -17.1350  -12.7570    0.2490 C.2    41  TYR41       0.2264
     76  O        -15.9490  -12.5330    0.5830 O.2    41  TYR41      -0.2867
     77  CB       -18.3350  -11.5910   -1.6050 C.3    41  TYR41       0.0534
     78  CG       -17.4580  -10.3450   -1.5170 C.ar   41  TYR41      -0.0201
     79  CD1      -16.5630  -10.0450   -2.5190 C.ar   41  TYR41      -0.0009
     80  CD2      -17.5060   -9.5010   -0.4100 C.ar   41  TYR41      -0.0009
     81  CE1      -15.7320   -8.9320   -2.4500 C.ar   41  TYR41       0.0417
     82  CE2      -16.6910   -8.3660   -0.3350 C.ar   41  TYR41       0.0417
     83  CZ       -15.8150   -8.1160   -1.3580 C.ar   41  TYR41       0.1957
     84  OH       -14.9730   -7.0100   -1.2760 O.3    41  TYR41      -0.2866
     85  N         -9.0670   -1.8860    0.8090 N.3    76  MET76      -0.1245
     86  CA       -10.0690   -1.8490   -0.2330 C.3    76  MET76       0.1570
     87  C         -9.5270   -2.3800   -1.5690 C.2    76  MET76       0.2261
     88  O        -10.1380   -3.2370   -2.2130 O.2    76  MET76      -0.2867
     89  CB       -10.5750   -0.4170   -0.3610 C.3    76  MET76       0.0387
     90  CG       -11.6220   -0.2220   -1.4470 C.3    76  MET76       0.0595
     91  SD       -12.0080    1.5270   -1.6270 S.3    76  MET76      -0.1393
     92  CE       -10.6250    2.0700   -2.6090 C.3    76  MET76       0.0692
     93  N        -10.1580   -6.2590   -3.6310 N.3    80  CYS80      -0.1235
     94  CA       -10.4680   -6.3630   -5.0520 C.3    80  CYS80       0.1677
     95  C         -9.4950   -7.3310   -5.7610 C.2    80  CYS80       0.2270
     96  O         -9.9090   -8.1980   -6.5480 O.2    80  CYS80      -0.2867
     97  CB       -10.4430   -4.9670   -5.6920 C.3    80  CYS80       0.0956
     98  SG       -10.9330   -4.9230   -7.4080 S.3    80  CYS80      -0.0801
     99  N        -10.2320  -11.0670   -4.5790 N.3    83  TYR83      -0.1227
    100  CA       -11.4970  -11.7240   -4.9700 C.3    83  TYR83       0.1736
    101  C        -11.6090  -11.9450   -6.4730 C.2    83  TYR83       0.2595
    102  O        -12.1420  -12.9710   -6.9190 O.2    83  TYR83      -0.2718
    103  CB       -12.6970  -10.9080   -4.4420 C.3    83  TYR83       0.0548
    104  CG       -13.9940  -11.6020   -4.7930 C.ar   83  TYR83      -0.0200
    105  CD1      -14.4280  -12.6970   -4.0580 C.ar   83  TYR83      -0.0009
    106  CD2      -14.7410  -11.2270   -5.9150 C.ar   83  TYR83      -0.0009
    107  CE1      -15.5600  -13.4080   -4.4200 C.ar   83  TYR83       0.0417
    108  CE2      -15.8690  -11.9470   -6.2760 C.ar   83  TYR83       0.0417
    109  CZ       -16.2670  -13.0260   -5.5200 C.ar   83  TYR83       0.1957
    110  OH       -17.4090  -13.7320   -5.8920 O.3    83  TYR83      -0.2866
    111  N        -11.1760  -10.9710   -7.2610 N.am   84  ASN84      -0.1974
    112  CA       -11.4390  -10.9740   -8.7090 C.3    84  ASN84       0.1688
    113  C        -10.2630  -11.5180   -9.5070 C.2    84  ASN84       0.2292
    114  O         -9.1340  -11.2590   -9.1650 O.2    84  ASN84      -0.2864
    115  CB       -11.7340   -9.5530   -9.1830 C.3    84  ASN84       0.1181
    116  CG       -12.9580   -8.9700   -8.5190 C.2    84  ASN84       0.2629
    117  OD1      -14.0980   -9.3250   -8.8600 O.2    84  ASN84      -0.2716
    118  ND2      -12.7540   -8.1060   -7.5550 N.am   84  ASN84      -0.0877
    119  N        -10.1410   -9.0640  -14.8390 N.3    88  HIS88      -0.1226
    120  CA       -11.4850   -8.5150  -14.6560 C.3    88  HIS88       0.1752
    121  C        -11.4670   -6.9740  -14.8220 C.2    88  HIS88       0.2596
    122  O        -10.5180   -6.3100  -14.4140 O.2    88  HIS88      -0.2718
    123  CB       -11.9890   -8.9480  -13.2570 C.3    88  HIS88       0.0759
    124  CG       -13.4640   -8.7880  -13.0340 C.ar   88  HIS88       0.0818
    125  ND1      -14.0920   -7.5710  -13.0940 N.ar   88  HIS88      -0.2268
    126  CD2      -14.4230   -9.6780  -12.6800 C.ar   88  HIS88       0.1154
    127  CE1      -15.3720   -7.7070  -12.8270 C.ar   88  HIS88       0.1986
    128  NE2      -15.6030   -8.9790  -12.5660 N.ar   88  HIS88      -0.2212
    129  N        -12.5000   -6.4080  -15.4420 N.am   89  ASP89      -0.1960
    130  CA       -12.5990   -4.9540  -15.6130 C.3    89  ASP89       0.1840
    131  C        -12.4380   -4.1720  -14.2960 C.2    89  ASP89       0.2621
    132  O        -11.7870   -3.1430  -14.2690 O.2    89  ASP89      -0.2715
    133  CB       -13.9490   -4.5950  -16.2510 C.3    89  ASP89       0.1450
    134  CG       -14.0970   -5.1200  -17.6860 C.2    89  ASP89       0.3671
    135  OD1      -13.0820   -5.4290  -18.3570 O.co2  89  ASP89      -0.2456
    136  OD2      -15.2620   -5.2250  -18.1220 O.co2  89  ASP89      -0.2456
    137  N        -13.0180   -4.6680  -13.2080 N.am   90  VAL90      -0.1977
    138  CA       -12.9360   -3.9800  -11.9370 C.3    90  VAL90       0.1596
    139  C        -11.5100   -3.9040  -11.3900 C.2    90  VAL90       0.2287
    140  O        -11.1650   -2.9330  -10.7300 O.2    90  VAL90      -0.2864
    141  CB       -13.9070   -4.5610  -10.9070 C.3    90  VAL90       0.0276
    142  CG1      -13.4330   -5.8940  -10.3460 C.3    90  VAL90       0.0022
    143  CG2      -14.1570   -3.5630   -9.7980 C.3    90  VAL90       0.0022
    144  N         -9.8060   -1.0350  -13.0860 N.3    93  MET93      -0.1245
    145  CA       -10.2660    0.1950  -12.4590 C.3    93  MET93       0.1570
    146  C         -9.5580    0.4090  -11.1300 C.2    93  MET93       0.2261
    147  O         -9.0720    1.5170  -10.8640 O.2    93  MET93      -0.2867
    148  CB       -11.7710    0.1590  -12.2440 C.3    93  MET93       0.0387
    149  CG       -12.5200    0.1080  -13.5650 C.3    93  MET93       0.0595
    150  SD       -14.2330   -0.4400  -13.4490 S.3    93  MET93      -0.1393
    151  CE       -14.9800    1.0560  -13.0830 C.3    93  MET93       0.0692
@<TRIPOS>BOND
     1   135   134   ar
     2   136   134   ar
     3   134   133    1
     4   133   130    1
     5   130   129    1
     6   130   131    1
     7   129   121   am
     8   119   120    1
     9   121   120    1
    10   121   122    2
    11   120   123    1
    12   131   132    2
    13   131   137   am
    14   149   150    1
    15   149   148    1
    16   150   151    1
    17   123   124    1
    18   137   138    1
    19     9    10   ar
    20     9     7   ar
    21   125   124   ar
    22   125   127   ar
    23   144   145    1
    24   124   126   ar
    25    12    10   ar
    26    12    14   ar
    27   127   128   ar
    28   126   128   ar
    29    10     8   ar
    30   145   148    1
    31   145   146    1
    32     7     6   ar
    33    14    13   ar
    34   138   139    1
    35   138   141    1
    36   139   140    2
    37     8     6   ar
    38     8    11   ar
    39     6     5    1
    40   146   147    2
    41   141   142    1
    42   141   143    1
    43    13    11   ar
    44    20    21    1
    45    20    19    1
    46     5     2    1
    47    21    15    1
    48   113   114    2
    49   113   112    1
    50     1     2    1
    51   115   112    1
    52   115   116    1
    53     2     3    1
    54   117   116    2
    55    19    16    1
    56   112   111    1
    57    15     3   am
    58    15    16    1
    59   116   118   am
    60    60    59    2
    61    64    62    1
    62     3     4    2
    63    16    17    1
    64    31    32   ar
    65    31    29   ar
    66    72    70    1
    67    59    58    1
    68    32    30   ar
    69    98    97    1
    70    58    61    1
    71    58    57    1
    72   111   101   am
    73    29    27   ar
    74    61    62    1
    75    62    63    1
    76   102   101    2
    77    96    95    2
    78    17    22   am
    79    17    18    2
    80   101   100    1
    81    70    71    1
    82    70    69    1
    83   108   106   ar
    84   108   109   ar
    85    22    23    1
    86    30    28   ar
    87   106   104   ar
    88   110   109    1
    89    27    28   ar
    90    27    26    1
    91    95    94    1
    92    97    94    1
    93    65    66    1
    94   109   107   ar
    95    66    69    1
    96    66    67    1
    97    94    93    1
    98   100    99    1
    99   100   103    1
   100    26    23    1
   101   104   103    1
   102   104   105   ar
   103    23    24    1
   104   107   105   ar
   105    24    25    2
   106    67    68    2
   107    52    51    2
   108    47    46    1
   109    48    46    1
   110    51    50    1
   111    92    91    1
   112    33    34    1
   113    79    81   ar
   114    79    78   ar
   115    53    50    1
   116    53    54    1
   117    81    83   ar
   118    49    50    1
   119    49    44   am
   120    46    43    1
   121    88    87    2
   122    38    37    1
   123    38    39    1
   124    43    44    1
   125    43    42    1
   126    36    35    2
   127    37    34    1
   128    54    56   ar
   129    54    55   ar
   130    41    40    1
   131    91    90    1
   132    77    78    1
   133    77    74    1
   134    87    86    1
   135    44    45    2
   136    34    35    1
   137    78    80   ar
   138    73    74    1
   139    90    89    1
   140    83    84    1
   141    83    82   ar
   142    74    75    1
   143    39    40    1
   144    80    82   ar
   145    89    86    1
   146    86    85    1
   147    75    76    2
