@<TRIPOS>MOLECULE
tmp/5btrC04.pdb
 112 106 0 0 0
SMALL
GASTEIGER

@<TRIPOS>ATOM
      1  N        -28.7930   83.4300   39.8620 N.3    40  LEU40      -0.1245
      2  CA       -28.7710   84.7280   40.5310 C.3    40  LEU40       0.1561
      3  C        -27.4560   84.9720   41.2800 C.2    40  LEU40       0.2260
      4  O        -26.9320   86.0910   41.2850 O.2    40  LEU40      -0.2867
      5  CB       -29.9630   84.8420   41.4860 C.3    40  LEU40       0.0270
      6  CG       -30.5600   86.2400   41.6660 C.3    40  LEU40       0.0019
      7  CD1      -30.7030   86.9340   40.3310 C.3    40  LEU40       0.0001
      8  CD2      -31.9090   86.1570   42.3630 C.3    40  LEU40       0.0001
      9  N        -24.9150   87.7240   40.3500 N.3    44  LEU44      -0.1245
     10  CA       -24.5950   88.6050   41.4660 C.3    44  LEU44       0.1561
     11  C        -24.0420   87.8190   42.6500 C.2    44  LEU44       0.2260
     12  O        -24.7940   87.4220   43.5440 O.2    44  LEU44      -0.2867
     13  CB       -25.8280   89.4000   41.8980 C.3    44  LEU44       0.0270
     14  CG       -26.5230   90.2060   40.8020 C.3    44  LEU44       0.0019
     15  CD1      -27.7020   90.9750   41.3760 C.3    44  LEU44       0.0001
     16  CD2      -25.5330   91.1390   40.1250 C.3    44  LEU44       0.0001
     17  N        -24.0590   89.1100   46.6440 N.3    47  THR47      -0.1203
     18  CA       -25.3420   89.2860   47.3130 C.3    47  THR47       0.1994
     19  C        -26.2030   88.0290   47.2720 C.2    47  THR47       0.2618
     20  O        -26.2600   87.3210   46.2670 O.2    47  THR47      -0.2717
     21  CB       -26.1420   90.4600   46.6900 C.3    47  THR47       0.1784
     22  OG1      -26.0140   90.4290   45.2620 O.3    47  THR47      -0.2211
     23  CG2      -25.6240   91.8000   47.1920 C.3    47  THR47       0.0376
     24  N        -26.8580   87.7550   48.3920 N.am   48  ILE48      -0.1966
     25  CA       -27.7910   86.6430   48.4990 C.3    48  ILE48       0.1712
     26  C        -29.2300   87.1450   48.4720 C.2    48  ILE48       0.2458
     27  O        -29.5670   88.1060   49.1630 O.2    48  ILE48      -0.2730
     28  CB       -27.5400   85.8250   49.7800 C.3    48  ILE48       0.0289
     29  CG1      -26.1210   85.2500   49.7540 C.3    48  ILE48       0.0022
     30  CG2      -28.5580   84.7020   49.9190 C.3    48  ILE48       0.0023
     31  CD1      -25.6880   84.6110   51.0530 C.3    48  ILE48       0.0001
     32  N        -30.0810   86.5060   47.6540 N.am   49  PRO49      -0.2716
     33  CA       -31.5160   86.8040   47.6780 C.3    49  PRO49       0.1521
     34  C        -32.1680   86.4580   49.0110 C.2    49  PRO49       0.2440
     35  O        -31.9460   85.3600   49.5200 O.2    49  PRO49      -0.2731
     36  CB       -32.0800   85.9110   46.5670 C.3    49  PRO49       0.0310
     37  CG       -31.0730   84.8170   46.4060 C.3    49  PRO49       0.0237
     38  CD       -29.7480   85.4720   46.6590 C.3    49  PRO49       0.0939
     39  N        -32.9460   87.3940   49.5800 N.am   50  PRO50      -0.2727
     40  CA       -33.7850   87.1200   50.7510 C.3    50  PRO50       0.1402
     41  C        -34.6730   85.8980   50.5260 C.2    50  PRO50       0.2269
     42  O        -35.2210   85.7360   49.4360 O.2    50  PRO50      -0.2865
     43  CB       -34.6160   88.3940   50.8880 C.3    50  PRO50       0.0296
     44  CG       -33.7250   89.4570   50.3460 C.3    50  PRO50       0.0237
     45  CD       -32.9670   88.8210   49.2120 C.3    50  PRO50       0.0939
     46  N        -38.5610   85.0760   48.8640 N.3    53  LEU53      -0.1245
     47  CA       -38.7820   85.3340   47.4430 C.3    53  LEU53       0.1561
     48  C        -39.2220   84.0960   46.6710 C.2    53  LEU53       0.2260
     49  O        -38.5200   83.0840   46.6650 O.2    53  LEU53      -0.2867
     50  CB       -37.5100   85.9030   46.8180 C.3    53  LEU53       0.0270
     51  CG       -37.2030   87.3370   47.2380 C.3    53  LEU53       0.0019
     52  CD1      -35.9440   87.8490   46.5600 C.3    53  LEU53       0.0001
     53  CD2      -38.3940   88.2270   46.9320 C.3    53  LEU53       0.0001
     54  N        -36.2940   88.3960   38.2170 N.3    61  ILE61      -0.1245
     55  CA       -35.1230   89.1910   38.5510 C.3    61  ILE61       0.1561
     56  C        -33.9570   88.8240   37.6370 C.2    61  ILE61       0.2260
     57  O        -33.2020   89.6940   37.1750 O.2    61  ILE61      -0.2867
     58  CB       -34.7300   88.9830   40.0160 C.3    61  ILE61       0.0252
     59  CG1      -35.8860   89.3890   40.9300 C.3    61  ILE61       0.0019
     60  CG2      -33.4550   89.7460   40.3420 C.3    61  ILE61       0.0019
     61  CD1      -35.7230   88.9250   42.3490 C.3    61  ILE61       0.0001
     62  N        -34.5650   90.3750   34.3640 N.3    64  ASN64      -0.1225
     63  CA       -34.1980   91.7790   34.5190 C.3    64  ASN64       0.1785
     64  C        -32.7210   92.0030   34.2800 C.2    64  ASN64       0.2597
     65  O        -32.3370   92.7880   33.4120 O.2    64  ASN64      -0.2718
     66  CB       -34.5520   92.2950   35.9110 C.3    64  ASN64       0.1169
     67  CG       -35.9390   92.8660   35.9810 C.2    64  ASN64       0.2627
     68  OD1      -36.7580   92.6490   35.0920 O.2    64  ASN64      -0.2716
     69  ND2      -36.2040   93.6350   37.0260 N.am   64  ASN64      -0.0877
     70  N        -31.9020   91.3180   35.0750 N.am   65  ILE65      -0.1980
     71  CA       -30.4520   91.4490   34.9870 C.3    65  ILE65       0.1595
     72  C        -29.9480   91.1780   33.5740 C.2    65  ILE65       0.2287
     73  O        -29.1630   91.9520   33.0250 O.2    65  ILE65      -0.2864
     74  CB       -29.7540   90.5010   35.9740 C.3    65  ILE65       0.0276
     75  CG1      -30.1790   90.8330   37.4050 C.3    65  ILE65       0.0022
     76  CG2      -28.2460   90.5980   35.8310 C.3    65  ILE65       0.0022
     77  CD1      -29.5970   89.9150   38.4390 C.3    65  ILE65       0.0001
     78  N        -30.5270   93.9880   30.9900 N.3    68  GLU68      -0.1245
     79  CA       -29.9130   95.2870   31.2310 C.3    68  GLU68       0.1567
     80  C        -29.0400   95.7390   30.0590 C.2    68  GLU68       0.2260
     81  O        -28.4590   94.9120   29.3600 O.2    68  GLU68      -0.2867
     82  CB       -29.0950   95.2350   32.5190 C.3    68  GLU68       0.0388
     83  CG       -29.9390   94.9680   33.7450 C.3    68  GLU68       0.1160
     84  CD       -29.1040   94.7660   34.9820 C.2    68  GLU68       0.3649
     85  OE1      -27.8680   94.8910   34.8800 O.co2  68  GLU68      -0.2457
     86  OE2      -29.6780   94.4670   36.0490 O.co2  68  GLU68      -0.2457
     87  N        -29.9520   98.3140   42.6340 N.3   257  ARG257     -0.1231
     88  CA       -30.7500   98.5260   41.4380 C.3   257  ARG257      0.1679
     89  C        -32.1710   98.9360   41.8100 C.2   257  ARG257      0.2434
     90  O        -32.6360   98.6240   42.9090 O.2   257  ARG257     -0.2733
     91  CB       -30.7420   97.2500   40.6040 C.3   257  ARG257      0.0321
     92  CG       -29.3390   96.8090   40.2620 C.3   257  ARG257      0.0489
     93  CD       -29.2430   95.3130   40.0610 C.3   257  ARG257      0.2205
     94  NE       -27.8590   94.8760   40.1910 N.pl3 257  ARG257     -0.0865
     95  CZ       -27.0820   94.5660   39.1600 C.cat 257  ARG257      0.5346
     96  NH1      -25.8300   94.1860   39.3650 N.pl3 257  ARG257      0.1354
     97  NH2      -27.5580   94.6500   37.9230 N.pl3 257  ARG257      0.1354
     98  N        -32.8790   99.6240   40.8980 N.am  258  PRO258     -0.2729
     99  CA       -32.5520   99.9600   39.5060 C.3   258  PRO258      0.1401
    100  C        -31.7910  101.2660   39.3280 C.2   258  PRO258      0.2269
    101  O        -31.5270  101.6580   38.1900 O.2   258  PRO258     -0.2865
    102  CB       -33.9260  100.0690   38.8560 C.3   258  PRO258      0.0296
    103  CG       -34.7670  100.6290   39.9370 C.3   258  PRO258      0.0237
    104  CD       -34.2530  100.0360   41.2340 C.3   258  PRO258      0.0939
    105  N        -28.4990  101.3250   37.4700 N.3   261  LEU261     -0.1245
    106  CA       -28.5440  101.1400   36.0260 C.3   261  LEU261      0.1561
    107  C        -28.3900  102.4510   35.2730 C.2   261  LEU261      0.2260
    108  O        -28.1260  102.4460   34.0730 O.2   261  LEU261     -0.2867
    109  CB       -29.8460  100.4580   35.6110 C.3   261  LEU261      0.0270
    110  CG       -29.9500   98.9880   36.0160 C.3   261  LEU261      0.0019
    111  CD1      -31.3470   98.4440   35.7570 C.3   261  LEU261      0.0001
    112  CD2      -28.9050   98.1660   35.2840 C.3   261  LEU261      0.0001
@<TRIPOS>BOND
     1    81    80    2
     2    80    79    1
     3    78    79    1
     4    79    82    1
     5    82    83    1
     6    73    72    2
     7    65    64    2
     8    72    71    1
     9    83    84    1
    10   108   107    2
    11    64    63    1
    12    64    70   am
    13    62    63    1
    14    63    66    1
    15    85    84   ar
    16    84    86   ar
    17    71    70    1
    18    71    74    1
    19    68    67    2
    20   107   106    1
    21   112   110    1
    22   109   110    1
    23   109   106    1
    24   111   110    1
    25    76    74    1
    26    66    67    1
    27    74    75    1
    28    67    69   am
    29   106   105    1
    30    57    56    2
    31    75    77    1
    32    56    55    1
    33    97    95    1
    34   101   100    2
    35    54    55    1
    36    55    58    1
    37   102    99    1
    38   102   103    1
    39    95    96    1
    40    95    94    2
    41   100    99    1
    42    99    98    1
    43     1     2    1
    44   103   104    1
    45    58    60    1
    46    58    59    1
    47    93    94    1
    48    93    92    1
    49    16    14    1
    50    92    91    1
    51     7     6    1
    52     9    10    1
    53     2     3    1
    54     2     5    1
    55    91    88    1
    56    14    15    1
    57    14    13    1
    58    98   104    1
    59    98    89   am
    60    59    61    1
    61     3     4    2
    62    88    89    1
    63    88    87    1
    64    10    13    1
    65    10    11    1
    66     5     6    1
    67     6     8    1
    68    89    90    2
    69    11    12    2
    70    22    21    1
    71    20    19    2
    72    37    36    1
    73    37    38    1
    74    52    51    1
    75    36    33    1
    76    17    18    1
    77    38    32    1
    78    49    48    2
    79    48    47    1
    80    21    23    1
    81    21    18    1
    82    50    51    1
    83    50    47    1
    84    53    51    1
    85    19    18    1
    86    19    24   am
    87    47    46    1
    88    32    33    1
    89    32    26   am
    90    33    34    1
    91    24    25    1
    92    26    25    1
    93    26    27    2
    94    25    28    1
    95    34    35    2
    96    34    39   am
    97    45    39    1
    98    45    44    1
    99    42    41    2
   100    39    40    1
   101    29    28    1
   102    29    31    1
   103    28    30    1
   104    44    43    1
   105    41    40    1
   106    40    43    1
