@<TRIPOS>MOLECULE
tmp/5btrA00.pdb
 232 228 0 0 0
SMALL
GASTEIGER

@<TRIPOS>ATOM
      1  N        -33.6230   77.4610   19.1610 N.3    25  TYR25      -0.1241
      2  CA       -33.8870   76.9840   20.5170 C.3    25  TYR25       0.1605
      3  C        -35.3790   76.9170   20.8010 C.2    25  TYR25       0.2264
      4  O        -35.8530   75.9610   21.4000 O.2    25  TYR25      -0.2867
      5  CB       -33.1870   77.8640   21.5530 C.3    25  TYR25       0.0534
      6  CG       -31.7430   77.4790   21.8020 C.ar   25  TYR25      -0.0201
      7  CD1      -31.4300   76.3980   22.6150 C.ar   25  TYR25      -0.0009
      8  CD2      -30.6950   78.1930   21.2290 C.ar   25  TYR25      -0.0009
      9  CE1      -30.1170   76.0340   22.8500 C.ar   25  TYR25       0.0417
     10  CE2      -29.3770   77.8390   21.4620 C.ar   25  TYR25       0.0417
     11  CZ       -29.0920   76.7550   22.2740 C.ar   25  TYR25       0.1957
     12  OH       -27.7850   76.3860   22.5160 O.3    25  TYR25      -0.2866
     13  N        -30.7400   66.7690    7.0810 N.3    46  LEU46      -0.1245
     14  CA       -29.7400   65.9920    6.3670 C.3    46  LEU46       0.1561
     15  C        -30.3390   64.6560    5.9510 C.2    46  LEU46       0.2260
     16  O        -30.2290   63.6600    6.6720 O.2    46  LEU46      -0.2867
     17  CB       -28.5000   65.7780    7.2350 C.3    46  LEU46       0.0270
     18  CG       -27.8860   67.0590    7.7960 C.3    46  LEU46       0.0019
     19  CD1      -26.6600   66.7580    8.6130 C.3    46  LEU46       0.0001
     20  CD2      -27.5450   67.9860    6.6680 C.3    46  LEU46       0.0001
     21  N        -27.9840   61.1100    5.2990 N.3    49  THR49      -0.1203
     22  CA       -27.1610   60.4580    6.3190 C.3    49  THR49       0.1994
     23  C        -27.9030   60.1290    7.6010 C.2    49  THR49       0.2618
     24  O        -28.7000   60.9230    8.1040 O.2    49  THR49      -0.2717
     25  CB       -25.9440   61.3220    6.7000 C.3    49  THR49       0.1784
     26  OG1      -26.3380   62.6960    6.8280 O.3    49  THR49      -0.2211
     27  CG2      -24.8710   61.2130    5.6410 C.3    49  THR49       0.0376
     28  N        -27.5950   58.9600    8.1440 N.am   50  ILE50      -0.1966
     29  CA       -28.1730   58.5190    9.4020 C.3    50  ILE50       0.1712
     30  C        -27.1900   58.7170   10.5520 C.2    50  ILE50       0.2458
     31  O        -26.0270   58.3210   10.4560 O.2    50  ILE50      -0.2730
     32  CB       -28.5750   57.0350    9.3250 C.3    50  ILE50       0.0289
     33  CG1      -29.5750   56.8200    8.1890 C.3    50  ILE50       0.0022
     34  CG2      -29.1330   56.5500   10.6530 C.3    50  ILE50       0.0023
     35  CD1      -29.8520   55.3600    7.8880 C.3    50  ILE50       0.0001
     36  N        -27.6540   59.3390   11.6460 N.am   51  PRO51      -0.2716
     37  CA       -26.8390   59.4130   12.8600 C.3    51  PRO51       0.1521
     38  C        -26.5850   58.0330   13.4560 C.2    51  PRO51       0.2440
     39  O        -27.5170   57.2340   13.5790 O.2    51  PRO51      -0.2731
     40  CB       -27.6840   60.2790   13.8030 C.3    51  PRO51       0.0310
     41  CG       -29.0770   60.1560   13.2920 C.3    51  PRO51       0.0237
     42  CD       -28.9360   60.0470   11.8030 C.3    51  PRO51       0.0939
     43  N        -25.3230   57.7520   13.8030 N.am   52  PRO52      -0.2727
     44  CA       -24.9230   56.5550   14.5430 C.3    52  PRO52       0.1402
     45  C        -25.7740   56.3540   15.7870 C.2    52  PRO52       0.2269
     46  O        -26.1070   57.3220   16.4750 O.2    52  PRO52      -0.2865
     47  CB       -23.4720   56.8500   14.9190 C.3    52  PRO52       0.0296
     48  CG       -22.9900   57.7160   13.8130 C.3    52  PRO52       0.0237
     49  CD       -24.1620   58.5730   13.4190 C.3    52  PRO52       0.0939
     50  N        -28.6720   68.7590   20.1710 N.3    62  GLN62      -0.1245
     51  CA       -27.5800   69.7290   20.0950 C.3    62  GLN62       0.1566
     52  C        -27.0640   69.8530   18.6490 C.2    62  GLN62       0.2260
     53  O        -26.7350   70.9460   18.1710 O.2    62  GLN62      -0.2867
     54  CB       -26.4460   69.3450   21.0460 C.3    62  GLN62       0.0367
     55  CG       -25.2390   70.2580   20.9340 C.3    62  GLN62       0.0905
     56  CD       -24.1970   69.9960   22.0020 C.2    62  GLN62       0.2608
     57  OE1      -22.9970   70.0700   21.7410 O.2    62  GLN62      -0.2717
     58  NE2      -24.6500   69.6920   23.2130 N.am   62  GLN62      -0.0878
     59  N        -29.6390   71.9260   16.7220 N.3    65  ILE65      -0.1231
     60  CA       -29.4960   73.3480   17.0110 C.3    65  ILE65       0.1692
     61  C        -28.2790   73.8860   16.2780 C.2    65  ILE65       0.2592
     62  O        -28.3130   74.9880   15.7240 O.2    65  ILE65      -0.2718
     63  CB       -29.3660   73.6190   18.5100 C.3    65  ILE65       0.0266
     64  CG1      -30.6830   73.2970   19.2070 C.3    65  ILE65       0.0019
     65  CG2      -28.9890   75.0660   18.7650 C.3    65  ILE65       0.0020
     66  CD1      -30.5660   73.3170   20.6780 C.3    65  ILE65       0.0001
     67  N        -27.2080   73.0930   16.2630 N.am   66  ASN66      -0.1974
     68  CA       -26.0380   73.4190   15.4500 C.3    66  ASN66       0.1688
     69  C        -26.3880   73.6720   13.9970 C.2    66  ASN66       0.2292
     70  O        -26.1400   74.7580   13.4780 O.2    66  ASN66      -0.2864
     71  CB       -24.9970   72.3130   15.5270 C.3    66  ASN66       0.1181
     72  CG       -23.9910   72.5550   16.6110 C.2    66  ASN66       0.2629
     73  OD1      -24.1890   73.4110   17.4730 O.2    66  ASN66      -0.2716
     74  ND2      -22.8830   71.8250   16.5650 N.am   66  ASN66      -0.0877
     75  N        -12.4840   55.3570    1.8760 N.3   114  ARG114     -0.1245
     76  CA       -13.7120   56.1060    2.0630 C.3   114  ARG114      0.1563
     77  C        -14.8110   55.4650    1.2310 C.2   114  ARG114      0.2260
     78  O        -15.9990   55.7260    1.4360 O.2   114  ARG114     -0.2867
     79  CB       -13.5180   57.5760    1.6780 C.3   114  ARG114      0.0307
     80  CG       -12.4360   58.2970    2.4780 C.3   114  ARG114      0.0489
     81  CD       -12.7010   58.2380    3.9840 C.3   114  ARG114      0.2205
     82  NE       -11.7180   59.0220    4.7290 N.pl3 114  ARG114     -0.0865
     83  CZ       -11.9200   60.2580    5.1810 C.cat 114  ARG114      0.5346
     84  NH1      -13.0870   60.8630    4.9850 N.pl3 114  ARG114      0.1354
     85  NH2      -10.9550   60.8890    5.8380 N.pl3 114  ARG114      0.1354
     86  N        -13.3000   55.0340   11.1520 N.3   137  PHE137     -0.1241
     87  CA       -12.8220   56.2230   11.8500 C.3   137  PHE137      0.1605
     88  C        -13.7950   56.6920   12.9260 C.2   137  PHE137      0.2264
     89  O        -13.7270   57.8390   13.3670 O.2   137  PHE137     -0.2867
     90  CB       -12.5520   57.3690   10.8750 C.3   137  PHE137      0.0534
     91  CG       -11.4880   57.0690    9.8620 C.ar  137  PHE137     -0.0203
     92  CD1      -11.6820   56.1100    8.8790 C.ar  137  PHE137     -0.0042
     93  CD2      -10.2900   57.7570    9.8870 C.ar  137  PHE137     -0.0042
     94  CE1      -10.6960   55.8370    7.9460 C.ar  137  PHE137     -0.0003
     95  CE2       -9.3010   57.4930    8.9560 C.ar  137  PHE137     -0.0003
     96  CZ        -9.5040   56.5310    7.9830 C.ar  137  PHE137     -0.0000
     97  N         -5.1340   63.0650    5.8490 N.3   187  ILE187     -0.1245
     98  CA        -4.3560   62.5600    6.9670 C.3   187  ILE187      0.1561
     99  C         -3.1380   61.7970    6.4580 C.2   187  ILE187      0.2260
    100  O         -2.5650   60.9680    7.1670 O.2   187  ILE187     -0.2867
    101  CB        -5.2130   61.6480    7.8510 C.3   187  ILE187      0.0252
    102  CG1       -5.6920   60.4340    7.0390 C.3   187  ILE187      0.0019
    103  CG2       -6.3850   62.4390    8.4170 C.3   187  ILE187      0.0019
    104  CD1       -6.5770   59.4720    7.7890 C.3   187  ILE187      0.0001
    105  N         -8.2390   67.4220   10.2110 N.3   203  HIS203     -0.1241
    106  CA        -8.6770   66.1670   10.7980 C.3   203  HIS203      0.1621
    107  C         -7.5150   65.3840   11.3990 C.2   203  HIS203      0.2264
    108  O         -7.6200   64.1810   11.6180 O.2   203  HIS203     -0.2867
    109  CB        -9.4220   65.3300    9.7700 C.3   203  HIS203      0.0745
    110  CG       -10.7240   65.9320    9.3550 C.ar  203  HIS203      0.0817
    111  ND1      -11.3390   65.6320    8.1600 N.ar  203  HIS203     -0.2268
    112  CD2      -11.5070   66.8560    9.9590 C.ar  203  HIS203      0.1154
    113  CE1      -12.4580   66.3270    8.0560 C.ar  203  HIS203      0.1986
    114  NE2      -12.5830   67.0780    9.1350 N.ar  203  HIS203     -0.2212
    115  N         -5.4580   61.4270   14.4690 N.3   251  ILE251     -0.1231
    116  CA        -6.3630   61.9020   13.4460 C.3   251  ILE251      0.1692
    117  C         -7.7080   62.1130   14.1070 C.2   251  ILE251      0.2592
    118  O         -8.0850   61.3490   14.9930 O.2   251  ILE251     -0.2718
    119  CB        -6.4850   60.9080   12.2850 C.3   251  ILE251      0.0266
    120  CG1       -6.6980   59.4980   12.8120 C.3   251  ILE251      0.0019
    121  CG2       -5.2200   60.8680   11.4770 C.3   251  ILE251      0.0020
    122  CD1       -6.4280   58.4210   11.7580 C.3   251  ILE251      0.0001
    123  N         -8.4240   63.1580   13.7070 N.am  252  VAL252     -0.1966
    124  CA        -9.7150   63.4410   14.3180 C.3   252  VAL252      0.1727
    125  C        -10.7630   62.4350   13.8750 C.2   252  VAL252      0.2616
    126  O        -11.2550   62.4950   12.7570 O.2   252  VAL252     -0.2715
    127  CB       -10.2230   64.8450   13.9770 C.3   252  VAL252      0.0290
    128  CG1      -11.5820   65.0820   14.6170 C.3   252  VAL252      0.0023
    129  CG2       -9.2280   65.8940   14.4160 C.3   252  VAL252      0.0023
    130  N        -11.1020   61.5130   14.7650 N.am  253  PHE253     -0.1960
    131  CA       -12.1480   60.5370   14.5060 C.3   253  PHE253      0.1771
    132  C        -13.5170   61.2150   14.5130 C.2   253  PHE253      0.2620
    133  O        -13.6660   62.3490   14.9820 O.2   253  PHE253     -0.2715
    134  CB       -12.1120   59.4170   15.5470 C.3   253  PHE253      0.0574
    135  CG       -11.1950   58.2850   15.1950 C.ar  253  PHE253     -0.0200
    136  CD1      -11.5860   56.9720   15.4130 C.ar  253  PHE253     -0.0042
    137  CD2       -9.9530   58.5230   14.6390 C.ar  253  PHE253     -0.0042
    138  CE1      -10.7530   55.9160   15.0870 C.ar  253  PHE253     -0.0003
    139  CE2       -9.1120   57.4690   14.3130 C.ar  253  PHE253     -0.0003
    140  CZ        -9.5140   56.1650   14.5360 C.ar  253  PHE253     -0.0000
    141  N        -14.5120   60.5350   13.9580 N.am  254  PHE254     -0.1960
    142  CA       -15.8650   61.0610   13.9840 C.3   254  PHE254      0.1771
    143  C        -16.3790   61.1380   15.4160 C.2   254  PHE254      0.2620
    144  O        -16.3620   60.1500   16.1440 O.2   254  PHE254     -0.2715
    145  CB       -16.8090   60.2050   13.1420 C.3   254  PHE254      0.0574
    146  CG       -16.5690   60.3070   11.6670 C.ar  254  PHE254     -0.0200
    147  CD1      -16.8850   61.4660   10.9810 C.ar  254  PHE254     -0.0042
    148  CD2      -16.0870   59.2220   10.9530 C.ar  254  PHE254     -0.0042
    149  CE1      -16.6790   61.5580    9.6110 C.ar  254  PHE254     -0.0003
    150  CE2      -15.8890   59.3040    9.5840 C.ar  254  PHE254     -0.0003
    151  CZ       -16.1830   60.4720    8.9130 C.ar  254  PHE254     -0.0000
    152  N        -16.8410   62.3110   15.8210 N.am  255  GLY255     -0.1940
    153  CA       -17.3570   62.4690   17.1620 C.3   255  GLY255      0.2014
    154  C        -16.3220   63.0820   18.0680 C.2   255  GLY255      0.2639
    155  O        -16.5540   63.2500   19.2590 O.2   255  GLY255     -0.2714
    156  N        -15.1650   63.3970   17.5060 N.am  256  GLU256     -0.1963
    157  CA       -14.1030   64.0380   18.2650 C.3   256  GLU256      0.1733
    158  C        -13.9790   65.5250   17.9380 C.2   256  GLU256      0.2616
    159  O        -14.3390   65.9380   16.8430 O.2   256  GLU256     -0.2715
    160  CB       -12.7780   63.3290   17.9920 C.3   256  GLU256      0.0429
    161  CG       -12.7260   61.8990   18.5040 C.3   256  GLU256      0.1163
    162  CD       -11.3270   61.3310   18.4460 C.2   256  GLU256      0.3649
    163  OE1      -10.6330   61.5780   17.4370 O.co2 256  GLU256     -0.2457
    164  OE2      -10.9080   60.6680   19.4210 O.co2 256  GLU256     -0.2457
    165  N        -13.4890   66.3320   18.8790 N.am  257  ASN257     -0.1958
    166  CA       -13.2370   67.7440   18.5810 C.3   257  ASN257      0.1819
    167  C        -12.0710   67.8760   17.6110 C.2   257  ASN257      0.2621
    168  O        -11.1510   67.0570   17.6270 O.2   257  ASN257     -0.2715
    169  CB       -12.9240   68.5590   19.8430 C.3   257  ASN257      0.1195
    170  CG       -13.9310   68.3550   20.9500 C.2   257  ASN257      0.2630
    171  OD1      -15.0440   67.8870   20.7250 O.2   257  ASN257     -0.2716
    172  ND2      -13.5480   68.7350   22.1610 N.am  257  ASN257     -0.0877
    173  N        -12.1090   68.9040   16.7710 N.am  258  LEU258     -0.1977
    174  CA       -10.9730   69.2360   15.9130 C.3   258  LEU258      0.1596
    175  C         -9.8970   69.9400   16.7560 C.2   258  LEU258      0.2287
    176  O        -10.2210   70.5210   17.7890 O.2   258  LEU258     -0.2864
    177  CB       -11.4280   70.1150   14.7390 C.3   258  LEU258      0.0297
    178  CG       -12.0180   69.4300   13.4970 C.3   258  LEU258      0.0022
    179  CD1      -13.3130   68.6800   13.8010 C.3   258  LEU258      0.0001
    180  CD2      -12.2440   70.4480   12.3890 C.3   258  LEU258      0.0001
    181  N         -9.1580   75.8860   14.9900 N.3   263  HIS263     -0.1241
    182  CA       -10.1300   76.9310   15.3070 C.3   263  HIS263      0.1621
    183  C         -9.4370   78.2880   15.4450 C.2   263  HIS263      0.2264
    184  O         -9.9670   79.3240   15.0160 O.2   263  HIS263     -0.2867
    185  CB       -10.9040   76.5810   16.5790 C.3   263  HIS263      0.0745
    186  CG       -11.7400   75.3420   16.4610 C.ar  263  HIS263      0.0817
    187  ND1      -12.8950   75.2930   15.7110 N.ar  263  HIS263     -0.2268
    188  CD2      -11.5890   74.1080   16.9990 C.ar  263  HIS263      0.1154
    189  CE1      -13.4210   74.0830   15.7940 C.ar  263  HIS263      0.1986
    190  NE2      -12.6480   73.3440   16.5690 N.ar  263  HIS263     -0.2212
    191  N        -18.4610   67.4090    2.5600 N.3   284  LYS284     -0.1231
    192  CA       -19.6130   66.7280    3.1330 C.3   284  LYS284      0.1693
    193  C        -19.5460   66.6920    4.6630 C.2   284  LYS284      0.2592
    194  O        -20.5820   66.6370    5.3360 O.2   284  LYS284     -0.2718
    195  CB       -19.7180   65.3040    2.5930 C.3   284  LYS284      0.0285
    196  CG       -19.2770   65.1450    1.1520 C.3   284  LYS284      0.0035
    197  CD       -20.3510   65.6140    0.1870 C.3   284  LYS284      0.0206
    198  CE       -21.3370   64.4930   -0.1330 C.3   284  LYS284      0.1093
    199  NZ       -20.6630   63.2870   -0.6910 N.3   284  LYS284     -0.1314
    200  N        -18.3380   66.7150    5.2200 N.am  285  VAL285     -0.1966
    201  CA       -18.1900   66.6250    6.6700 C.3   285  VAL285      0.1727
    202  C        -18.0450   67.9780    7.3550 C.2   285  VAL285      0.2616
    203  O        -17.2240   68.7980    6.9530 O.2   285  VAL285     -0.2715
    204  CB       -16.9940   65.7660    7.0440 C.3   285  VAL285      0.0290
    205  CG1      -16.9110   65.6150    8.5520 C.3   285  VAL285      0.0023
    206  CG2      -17.1190   64.4130    6.3860 C.3   285  VAL285      0.0023
    207  N        -18.8470   68.1970    8.3960 N.am  286  ARG286     -0.1964
    208  CA       -18.7700   69.4070    9.2190 C.3   286  ARG286      0.1714
    209  C        -17.8400   69.1930   10.4150 C.2   286  ARG286      0.2458
    210  O        -17.6720   68.0640   10.8770 O.2   286  ARG286     -0.2730
    211  CB       -20.1670   69.8060    9.7070 C.3   286  ARG286      0.0347
    212  CG       -21.1670   70.0110    8.6040 C.3   286  ARG286      0.0492
    213  CD       -22.5690   69.7430    9.0850 C.3   286  ARG286      0.2205
    214  NE       -23.4570   69.4630    7.9630 N.pl3 286  ARG286     -0.0865
    215  CZ       -24.3510   70.3190    7.4810 C.cat 286  ARG286      0.5346
    216  NH1      -25.1080   69.9710    6.4550 N.pl3 286  ARG286      0.1354
    217  NH2      -24.4880   71.5170    8.0200 N.pl3 286  ARG286      0.1354
    218  N        -17.2600   70.2760   10.9510 N.am  287  PRO287     -0.2727
    219  CA       -17.4840   71.6870   10.6240 C.3   287  PRO287      0.1402
    220  C        -16.6210   72.2460    9.5010 C.2   287  PRO287      0.2269
    221  O        -16.7350   73.4350    9.2110 O.2   287  PRO287     -0.2865
    222  CB       -17.1410   72.3890   11.9300 C.3   287  PRO287      0.0296
    223  CG       -16.0650   71.5530   12.5040 C.3   287  PRO287      0.0237
    224  CD       -16.3920   70.1290   12.1330 C.3   287  PRO287      0.0939
    225  N        -18.1950   73.9590    6.6320 N.3   290  LEU290     -0.1245
    226  CA       -18.7860   75.2520    6.9410 C.3   290  LEU290      0.1561
    227  C        -17.8900   76.4210    6.5480 C.2   290  LEU290      0.2260
    228  O        -18.3770   77.5400    6.4030 O.2   290  LEU290     -0.2867
    229  CB       -19.1090   75.3280    8.4360 C.3   290  LEU290      0.0270
    230  CG       -20.2660   74.4560    8.9210 C.3   290  LEU290      0.0019
    231  CD1      -20.2840   74.4190   10.4220 C.3   290  LEU290      0.0001
    232  CD2      -21.5710   75.0180    8.4100 C.3   290  LEU290      0.0001
@<TRIPOS>BOND
     1   199   198    1
     2   198   197    1
     3   197   196    1
     4   196   195    1
     5    77    78    2
     6    77    76    1
     7    79    76    1
     8    79    80    1
     9    75    76    1
    10    80    81    1
    11   191   192    1
    12   195   192    1
    13   192   193    1
    14    81    82    1
    15   193   200   am
    16   193   194    2
    17    82    83    2
    18    84    83    1
    19    83    85    1
    20   200   201    1
    21    21    22    1
    22    27    25    1
    23    97    98    1
    24    15    14    1
    25    15    16    2
    26    22    25    1
    27    22    23    1
    28    14    13    1
    29    14    17    1
    30   206   204    1
    31   228   227    2
    32   216   215    1
    33    99    98    1
    34    99   100    2
    35   227   226    1
    36   225   226    1
    37    20    18    1
    38   201   204    1
    39   201   202    1
    40    25    26    1
    41   226   229    1
    42   203   202    2
    43    98   101    1
    44   102   104    1
    45   102   101    1
    46   204   205    1
    47    17    18    1
    48   202   207   am
    49   215   214    2
    50   215   217    1
    51    23    24    2
    52    23    28   am
    53    18    19    1
    54   101   103    1
    55    35    33    1
    56    94    96   ar
    57    94    92   ar
    58   214   213    1
    59    96    95   ar
    60   113   111   ar
    61   113   114   ar
    62    28    29    1
    63   111   110   ar
    64    33    32    1
    65   207   208    1
    66   232   230    1
    67   229   230    1
    68   212   213    1
    69   212   211    1
    70    92    91   ar
    71   151   150   ar
    72   151   149   ar
    73   230   231    1
    74    95    93   ar
    75   114   112   ar
    76   221   220    2
    77   208   211    1
    78   208   209    1
    79    32    29    1
    80    32    34    1
    81   110   109    1
    82   110   112   ar
    83    29    30    1
    84   220   219    1
    85   150   148   ar
    86   149   147   ar
    87   109   106    1
    88    91    93   ar
    89    91    90    1
    90   105   106    1
    91   209   210    2
    92   209   218   am
    93    31    30    2
    94    30    36   am
    95   219   218    1
    96   219   222    1
    97   106   107    1
    98    90    87    1
    99   218   224    1
   100   148   146   ar
   101   147   146   ar
   102    86    87    1
   103   107   108    2
   104   121   119    1
   105    36    42    1
   106    36    37    1
   107   146   145    1
   108   122   120    1
   109    42    41    1
   110    87    88    1
   111   222   223    1
   112   224   223    1
   113   119   120    1
   114   119   116    1
   115   180   178    1
   116   126   125    2
   117    37    38    1
   118    37    40    1
   119    88    89    2
   120   145   142    1
   121    41    40    1
   122    49    43    1
   123    49    48    1
   124   116   117    1
   125   116   115    1
   126    38    39    2
   127    38    43   am
   128    70    69    2
   129   178   179    1
   130   178   177    1
   131   123   117   am
   132   123   124    1
   133    43    44    1
   134    48    47    1
   135   125   124    1
   136   125   130   am
   137   141   142    1
   138   141   132   am
   139   127   124    1
   140   127   129    1
   141   127   128    1
   142   142   143    1
   143    69    68    1
   144   117   118    2
   145   139   140   ar
   146   139   137   ar
   147   131   132    1
   148   131   130    1
   149   131   134    1
   150   132   133    2
   151   140   138   ar
   152    44    47    1
   153    44    45    1
   154   137   135   ar
   155   177   174    1
   156   181   182    1
   157   184   183    2
   158   138   136   ar
   159   135   136   ar
   160   135   134    1
   161   182   183    1
   162   182   185    1
   163   143   152   am
   164   143   144    2
   165    68    71    1
   166    68    67    1
   167    71    72    1
   168   187   189   ar
   169   187   186   ar
   170    62    61    2
   171    45    46    2
   172   189   190   ar
   173   152   153    1
   174   174   175    1
   175   174   173    1
   176    67    61   am
   177    61    60    1
   178   186   185    1
   179   186   188   ar
   180    74    72   am
   181   190   188   ar
   182    72    73    2
   183    59    60    1
   184   175   176    2
   185   173   167   am
   186   159   158    2
   187    60    63    1
   188   153   154    1
   189   163   162   ar
   190   156   154   am
   191   156   157    1
   192   167   168    2
   193   167   166    1
   194   158   157    1
   195   158   165   am
   196   160   157    1
   197   160   161    1
   198   154   155    2
   199    53    52    2
   200   162   161    1
   201   162   164   ar
   202    63    65    1
   203    63    64    1
   204   166   165    1
   205   166   169    1
   206    52    51    1
   207     1     2    1
   208    64    66    1
   209   169   170    1
   210    51    50    1
   211    51    54    1
   212     2     3    1
   213     2     5    1
   214   171   170    2
   215     3     4    2
   216    55    54    1
   217    55    56    1
   218   170   172   am
   219     8    10   ar
   220     8     6   ar
   221    10    11   ar
   222     5     6    1
   223    57    56    2
   224     6     7   ar
   225    56    58   am
   226    11    12    1
   227    11     9   ar
   228     7     9   ar
