@<TRIPOS>MOLECULE
tmp/5btrA01.pdb
 90 91 0 0 0
SMALL
GASTEIGER

@<TRIPOS>ATOM
      1  N        -47.5190   74.0530   18.6660 N.3     3  LEU3       -0.1245
      2  CA       -47.7580   75.3980   18.1550 C.3     3  LEU3        0.1561
      3  C        -47.3030   75.5810   16.7110 C.2     3  LEU3        0.2260
      4  O        -47.8080   76.4560   16.0070 O.2     3  LEU3       -0.2867
      5  CB       -47.0540   76.4410   19.0160 C.3     3  LEU3        0.0270
      6  CG       -47.6080   76.6590   20.4100 C.3     3  LEU3        0.0019
      7  CD1      -46.7970   77.7450   21.0960 C.3     3  LEU3        0.0001
      8  CD2      -49.0730   77.0270   20.3290 C.3     3  LEU3        0.0001
      9  N        -46.6080   74.8780   12.7130 N.3     5  PHE5       -0.1241
     10  CA       -47.4460   74.4900   11.5980 C.3     5  PHE5        0.1605
     11  C        -46.5950   73.9100   10.4870 C.2     5  PHE5        0.2264
     12  O        -47.1040   73.3200    9.5360 O.2     5  PHE5       -0.2867
     13  CB       -48.2260   75.7220   11.1280 C.3     5  PHE5        0.0534
     14  CG       -49.3670   75.4250   10.2080 C.ar    5  PHE5       -0.0203
     15  CD1      -49.3050   75.7870    8.8750 C.ar    5  PHE5       -0.0042
     16  CD2      -50.5270   74.8400   10.6900 C.ar    5  PHE5       -0.0042
     17  CE1      -50.3630   75.5340    8.0270 C.ar    5  PHE5       -0.0003
     18  CE2      -51.5940   74.5820    9.8450 C.ar    5  PHE5       -0.0003
     19  CZ       -51.5130   74.9300    8.5130 C.ar    5  PHE5       -0.0000
     20  N        -44.4950   75.6620    8.4880 N.3     7  ASP7       -0.1225
     21  CA       -44.1320   76.5980    7.4320 C.3     7  ASP7        0.1805
     22  C        -43.2440   77.7110    7.9570 C.2     7  ASP7        0.2597
     23  O        -42.8430   78.6010    7.2160 O.2     7  ASP7       -0.2718
     24  CB       -45.3810   77.1860    6.7620 C.3     7  ASP7        0.1424
     25  CG       -46.2180   78.0240    7.7030 C.2     7  ASP7        0.3668
     26  OD1      -46.4250   77.5970    8.8600 O.co2   7  ASP7       -0.2456
     27  OD2      -46.6780   79.1070    7.2750 O.co2   7  ASP7       -0.2456
     28  N        -42.9370   77.6580    9.2410 N.am    8  GLU8       -0.1979
     29  CA       -42.1250   78.6910    9.8590 C.3     8  GLU8        0.1602
     30  C        -40.7150   78.6520    9.3120 C.2     8  GLU8        0.2287
     31  O        -40.2410   77.6060    8.8720 O.2     8  GLU8       -0.2864
     32  CB       -42.1090   78.5140   11.3730 C.3     8  GLU8        0.0415
     33  CG       -43.4980   78.4450   11.9620 C.3     8  GLU8        0.1163
     34  CD       -44.0300   77.0320   11.9870 C.2     8  GLU8        0.3649
     35  OE1      -43.2960   76.1220   11.5380 O.co2   8  GLU8       -0.2457
     36  OE2      -45.1890   76.8390   12.4190 O.co2   8  GLU8       -0.2457
     37  N        -45.8560   83.3560   -1.1060 N.3    15  ASP15      -0.1225
     38  CA       -45.6620   84.0830    0.1550 C.3    15  ASP15       0.1805
     39  C        -45.5710   85.6000    0.0290 C.2    15  ASP15       0.2598
     40  O        -44.4810   86.1600   -0.1020 O.2    15  ASP15      -0.2718
     41  CB       -44.4190   83.5610    0.8650 C.3    15  ASP15       0.1424
     42  CG       -44.6930   82.2910    1.6320 C.2    15  ASP15       0.3668
     43  OD1      -45.6470   82.2890    2.4450 O.co2  15  ASP15      -0.2456
     44  OD2      -43.9860   81.2900    1.3980 O.co2  15  ASP15      -0.2456
     45  N        -46.7290   86.2490    0.1250 N.am   16  TRP16      -0.1962
     46  CA       -46.8490   87.6970   -0.0010 C.3    16  TRP16       0.1771
     47  C        -46.9160   88.3960    1.3560 C.2    16  TRP16       0.2620
     48  O        -46.6020   89.5820    1.4590 O.2    16  TRP16      -0.2715
     49  CB       -48.0690   88.0590   -0.8400 C.3    16  TRP16       0.0590
     50  CG       -49.3260   87.3870   -0.4120 C.ar   16  TRP16       0.0006
     51  CD1      -49.7110   86.1030   -0.6900 C.ar   16  TRP16       0.0946
     52  CD2      -50.3580   87.9470    0.3970 C.ar   16  TRP16       0.0152
     53  NE1      -50.9330   85.8400   -0.1190 N.ar   16  TRP16      -0.2442
     54  CE2      -51.3500   86.9560    0.5590 C.ar   16  TRP16       0.0810
     55  CE3      -50.5460   89.1940    0.9980 C.ar   16  TRP16       0.0012
     56  CZ2      -52.5060   87.1740    1.2980 C.ar   16  TRP16       0.0191
     57  CZ3      -51.6960   89.4060    1.7280 C.ar   16  TRP16       0.0001
     58  CH2      -52.6600   88.4010    1.8750 C.ar   16  TRP16       0.0015
     59  N        -47.3470   87.6670    2.3830 N.am   17  THR17      -0.1937
     60  CA       -47.2170   88.1220    3.7720 C.3    17  THR17       0.2013
     61  C        -46.1640   87.3040    4.4940 C.2    17  THR17       0.2484
     62  O        -45.9960   86.1170    4.2080 O.2    17  THR17      -0.2729
     63  CB       -48.5380   88.0220    4.5630 C.3    17  THR17       0.1807
     64  OG1      -49.2800   86.8770    4.1210 O.3    17  THR17      -0.2208
     65  CG2      -49.3730   89.2700    4.3710 C.3    17  THR17       0.0379
     66  N        -45.4440   87.9390    5.4290 N.am   18  PRO18      -0.2715
     67  CA       -44.3400   87.2860    6.1430 C.3    18  PRO18       0.1536
     68  C        -44.7510   86.0110    6.8890 C.2    18  PRO18       0.2598
     69  O        -45.7770   85.9820    7.5760 O.2    18  PRO18      -0.2715
     70  CB       -43.8900   88.3580    7.1440 C.3    18  PRO18       0.0310
     71  CG       -44.3450   89.6480    6.5630 C.3    18  PRO18       0.0237
     72  CD       -45.6320   89.3350    5.8650 C.3    18  PRO18       0.0939
     73  N        -43.9430   84.9670    6.7400 N.am   19  ARG19      -0.1964
     74  CA       -44.0870   83.7550    7.5330 C.3    19  ARG19       0.1714
     75  C        -43.6130   84.0080    8.9540 C.2    19  ARG19       0.2458
     76  O        -42.7990   84.9050    9.1890 O.2    19  ARG19      -0.2730
     77  CB       -43.2880   82.6020    6.9310 C.3    19  ARG19       0.0347
     78  CG       -43.7240   82.1410    5.5610 C.3    19  ARG19       0.0492
     79  CD       -42.8480   80.9820    5.1260 C.3    19  ARG19       0.2205
     80  NE       -43.3400   80.3340    3.9170 N.pl3  19  ARG19      -0.0865
     81  CZ       -43.0320   79.0910    3.5600 C.cat  19  ARG19       0.5346
     82  NH1      -42.2350   78.3580    4.3280 N.pl3  19  ARG19       0.1354
     83  NH2      -43.5250   78.5780    2.4390 N.pl3  19  ARG19       0.1354
     84  N        -44.1350   83.2380    9.9160 N.am   20  PRO20      -0.2727
     85  CA       -43.6220   83.3810   11.2800 C.3    20  PRO20       0.1402
     86  C        -42.1350   83.0270   11.3590 C.2    20  PRO20       0.2269
     87  O        -41.6400   82.2110   10.5790 O.2    20  PRO20      -0.2865
     88  CB       -44.4720   82.3920   12.0770 C.3    20  PRO20       0.0296
     89  CG       -45.7410   82.2730   11.2860 C.3    20  PRO20       0.0237
     90  CD       -45.3190   82.3630    9.8550 C.3    20  PRO20       0.0939
@<TRIPOS>BOND
     1    37    38    1
     2    49    50    1
     3    49    46    1
     4    51    50   ar
     5    51    53   ar
     6    50    52   ar
     7    53    54   ar
     8    40    39    2
     9    46    45    1
    10    46    47    1
    11    39    45   am
    12    39    38    1
    13    38    41    1
    14    52    54   ar
    15    52    55   ar
    16    54    56   ar
    17    41    42    1
    18    55    57   ar
    19    56    58   ar
    20    47    48    2
    21    47    59   am
    22    44    42   ar
    23    42    43   ar
    24    57    58   ar
    25    59    60    1
    26    83    81    1
    27    81    80    2
    28    81    82    1
    29    60    61    1
    30    60    63    1
    31    80    79    1
    32    64    63    1
    33    62    61    2
    34    65    63    1
    35    61    66   am
    36    79    78    1
    37    66    72    1
    38    66    67    1
    39    78    77    1
    40    72    71    1
    41    67    68    1
    42    67    70    1
    43    71    70    1
    44    73    68   am
    45    73    74    1
    46    24    21    1
    47    24    25    1
    48    68    69    2
    49    77    74    1
    50    23    22    2
    51    27    25   ar
    52    21    22    1
    53    21    20    1
    54    74    75    1
    55    25    26   ar
    56    22    28   am
    57    17    19   ar
    58    17    15   ar
    59    19    18   ar
    60    31    30    2
    61    15    14   ar
    62    75    76    2
    63    75    84   am
    64    28    29    1
    65    30    29    1
    66    12    11    2
    67    18    16   ar
    68    90    84    1
    69    90    89    1
    70    29    32    1
    71    84    85    1
    72    14    16   ar
    73    14    13    1
    74    11    10    1
    75    87    86    2
    76    13    10    1
    77    85    86    1
    78    85    88    1
    79    89    88    1
    80    32    33    1
    81    35    34   ar
    82    10     9    1
    83    33    34    1
    84    34    36   ar
    85     4     3    2
    86     3     2    1
    87     2     1    1
    88     2     5    1
    89     5     6    1
    90     8     6    1
    91     6     7    1
