@<TRIPOS>MOLECULE
tmp/5btrA03.pdb
 112 106 0 0 0
SMALL
GASTEIGER

@<TRIPOS>ATOM
      1  N        -33.4410   65.4480   12.1130 N.3    42  LEU42      -0.1245
      2  CA       -32.1050   65.2590   11.5870 C.3    42  LEU42       0.1561
      3  C        -32.1710   64.7390   10.1580 C.2    42  LEU42       0.2260
      4  O        -31.3710   65.1400    9.3190 O.2    42  LEU42      -0.2867
      5  CB       -31.3090   64.2950   12.4550 C.3    42  LEU42       0.0270
      6  CG       -29.8210   64.6220   12.5360 C.3    42  LEU42       0.0019
      7  CD1      -29.6040   66.0950   12.8140 C.3    42  LEU42       0.0001
      8  CD2      -29.1310   63.7650   13.5660 C.3    42  LEU42       0.0001
      9  N        -30.7400   66.7690    7.0810 N.3    46  LEU46      -0.1245
     10  CA       -29.7400   65.9920    6.3670 C.3    46  LEU46       0.1561
     11  C        -30.3390   64.6560    5.9510 C.2    46  LEU46       0.2260
     12  O        -30.2290   63.6600    6.6720 O.2    46  LEU46      -0.2867
     13  CB       -28.5000   65.7780    7.2350 C.3    46  LEU46       0.0270
     14  CG       -27.8860   67.0590    7.7960 C.3    46  LEU46       0.0019
     15  CD1      -26.6600   66.7580    8.6130 C.3    46  LEU46       0.0001
     16  CD2      -27.5450   67.9860    6.6680 C.3    46  LEU46       0.0001
     17  N        -27.9840   61.1100    5.2990 N.3    49  THR49      -0.1203
     18  CA       -27.1610   60.4580    6.3190 C.3    49  THR49       0.1994
     19  C        -27.9030   60.1290    7.6010 C.2    49  THR49       0.2618
     20  O        -28.7000   60.9230    8.1040 O.2    49  THR49      -0.2717
     21  CB       -25.9440   61.3220    6.7000 C.3    49  THR49       0.1784
     22  OG1      -26.3380   62.6960    6.8280 O.3    49  THR49      -0.2211
     23  CG2      -24.8710   61.2130    5.6410 C.3    49  THR49       0.0376
     24  N        -27.5950   58.9600    8.1440 N.am   50  ILE50      -0.1966
     25  CA       -28.1730   58.5190    9.4020 C.3    50  ILE50       0.1712
     26  C        -27.1900   58.7170   10.5520 C.2    50  ILE50       0.2458
     27  O        -26.0270   58.3210   10.4560 O.2    50  ILE50      -0.2730
     28  CB       -28.5750   57.0350    9.3250 C.3    50  ILE50       0.0289
     29  CG1      -29.5750   56.8200    8.1890 C.3    50  ILE50       0.0022
     30  CG2      -29.1330   56.5500   10.6530 C.3    50  ILE50       0.0023
     31  CD1      -29.8520   55.3600    7.8880 C.3    50  ILE50       0.0001
     32  N        -27.6540   59.3390   11.6460 N.am   51  PRO51      -0.2716
     33  CA       -26.8390   59.4130   12.8600 C.3    51  PRO51       0.1521
     34  C        -26.5850   58.0330   13.4560 C.2    51  PRO51       0.2440
     35  O        -27.5170   57.2340   13.5790 O.2    51  PRO51      -0.2731
     36  CB       -27.6840   60.2790   13.8030 C.3    51  PRO51       0.0310
     37  CG       -29.0770   60.1560   13.2920 C.3    51  PRO51       0.0237
     38  CD       -28.9360   60.0470   11.8030 C.3    51  PRO51       0.0939
     39  N        -25.3230   57.7520   13.8030 N.am   52  PRO52      -0.2727
     40  CA       -24.9230   56.5550   14.5430 C.3    52  PRO52       0.1402
     41  C        -25.7740   56.3540   15.7870 C.2    52  PRO52       0.2269
     42  O        -26.1070   57.3220   16.4750 O.2    52  PRO52      -0.2865
     43  CB       -23.4720   56.8500   14.9190 C.3    52  PRO52       0.0296
     44  CG       -22.9900   57.7160   13.8130 C.3    52  PRO52       0.0237
     45  CD       -24.1620   58.5730   13.4190 C.3    52  PRO52       0.0939
     46  N        -25.8240   57.6260   19.6670 N.3    55  LEU55      -0.1245
     47  CA       -26.0910   59.0180   19.9670 C.3    55  LEU55       0.1561
     48  C        -27.3340   59.1630   20.8270 C.2    55  LEU55       0.2260
     49  O        -28.4480   58.8500   20.4020 O.2    55  LEU55      -0.2867
     50  CB       -26.2430   59.8150   18.6730 C.3    55  LEU55       0.0270
     51  CG       -24.9190   60.0480   17.9450 C.3    55  LEU55       0.0019
     52  CD1      -25.1040   60.8480   16.6630 C.3    55  LEU55       0.0001
     53  CD2      -23.9660   60.7600   18.8840 C.3    55  LEU55       0.0001
     54  N        -27.0010   68.7210   17.9570 N.3    63  ILE63      -0.1245
     55  CA       -26.6280   68.6910   16.5500 C.3    63  ILE63       0.1561
     56  C        -27.6320   69.4470   15.6770 C.2    63  ILE63       0.2260
     57  O        -27.2450   70.1660   14.7550 O.2    63  ILE63      -0.2867
     58  CB       -26.5150   67.2360   16.0600 C.3    63  ILE63       0.0252
     59  CG1      -25.4070   66.5210   16.8380 C.3    63  ILE63       0.0019
     60  CG2      -26.2770   67.1750   14.5510 C.3    63  ILE63       0.0019
     61  CD1      -25.4110   65.0210   16.6620 C.3    63  ILE63       0.0001
     62  N        -27.2080   73.0930   16.2630 N.3    66  ASN66      -0.1225
     63  CA       -26.0380   73.4190   15.4500 C.3    66  ASN66       0.1785
     64  C        -26.3880   73.6720   13.9970 C.2    66  ASN66       0.2597
     65  O        -26.1400   74.7580   13.4780 O.2    66  ASN66      -0.2718
     66  CB       -24.9970   72.3130   15.5270 C.3    66  ASN66       0.1169
     67  CG       -23.9910   72.5550   16.6110 C.2    66  ASN66       0.2627
     68  OD1      -24.1890   73.4110   17.4730 O.2    66  ASN66      -0.2716
     69  ND2      -22.8830   71.8250   16.5650 N.am   66  ASN66      -0.0877
     70  N        -26.9760   72.6720   13.3520 N.am   67  ILE67      -0.1980
     71  CA       -27.3480   72.7850   11.9520 C.3    67  ILE67       0.1595
     72  C        -28.2000   74.0180   11.7090 C.2    67  ILE67       0.2287
     73  O        -27.9210   74.7960   10.7990 O.2    67  ILE67      -0.2864
     74  CB       -28.1090   71.5460   11.4790 C.3    67  ILE67       0.0276
     75  CG1      -27.2200   70.3080   11.6000 C.3    67  ILE67       0.0022
     76  CG2      -28.5610   71.7210   10.0490 C.3    67  ILE67       0.0022
     77  CD1      -27.9110   69.0310   11.2140 C.3    67  ILE67       0.0001
     78  N        -26.2480   77.3670   11.6470 N.3    70  GLU70      -0.1245
     79  CA       -25.1690   77.5540   10.6800 C.3    70  GLU70       0.1567
     80  C        -25.3430   78.8170    9.8460 C.2    70  GLU70       0.2260
     81  O        -26.4670   79.2610    9.6140 O.2    70  GLU70      -0.2867
     82  CB       -25.0700   76.3270    9.7870 C.3    70  GLU70       0.0388
     83  CG       -24.6680   75.1090   10.5600 C.3    70  GLU70       0.1160
     84  CD       -24.7170   73.8610    9.7320 C.2    70  GLU70       0.3649
     85  OE1      -25.0460   73.9490    8.5260 O.co2  70  GLU70      -0.2457
     86  OE2      -24.4160   72.7800   10.2810 O.co2  70  GLU70      -0.2457
     87  N        -18.8470   68.1970    8.3960 N.3   286  ARG286     -0.1231
     88  CA       -18.7700   69.4070    9.2190 C.3   286  ARG286      0.1679
     89  C        -17.8400   69.1930   10.4150 C.2   286  ARG286      0.2434
     90  O        -17.6720   68.0640   10.8770 O.2   286  ARG286     -0.2733
     91  CB       -20.1670   69.8060    9.7070 C.3   286  ARG286      0.0321
     92  CG       -21.1670   70.0110    8.6040 C.3   286  ARG286      0.0489
     93  CD       -22.5690   69.7430    9.0850 C.3   286  ARG286      0.2205
     94  NE       -23.4570   69.4630    7.9630 N.pl3 286  ARG286     -0.0865
     95  CZ       -24.3510   70.3190    7.4810 C.cat 286  ARG286      0.5346
     96  NH1      -25.1080   69.9710    6.4550 N.pl3 286  ARG286      0.1354
     97  NH2      -24.4880   71.5170    8.0200 N.pl3 286  ARG286      0.1354
     98  N        -17.2600   70.2760   10.9510 N.am  287  PRO287     -0.2729
     99  CA       -17.4840   71.6870   10.6240 C.3   287  PRO287      0.1401
    100  C        -16.6210   72.2460    9.5010 C.2   287  PRO287      0.2269
    101  O        -16.7350   73.4350    9.2110 O.2   287  PRO287     -0.2865
    102  CB       -17.1410   72.3890   11.9300 C.3   287  PRO287      0.0296
    103  CG       -16.0650   71.5530   12.5040 C.3   287  PRO287      0.0237
    104  CD       -16.3920   70.1290   12.1330 C.3   287  PRO287      0.0939
    105  N        -18.1950   73.9590    6.6320 N.3   290  LEU290     -0.1245
    106  CA       -18.7860   75.2520    6.9410 C.3   290  LEU290      0.1561
    107  C        -17.8900   76.4210    6.5480 C.2   290  LEU290      0.2260
    108  O        -18.3770   77.5400    6.4030 O.2   290  LEU290     -0.2867
    109  CB       -19.1090   75.3280    8.4360 C.3   290  LEU290      0.0270
    110  CG       -20.2660   74.4560    8.9210 C.3   290  LEU290      0.0019
    111  CD1      -20.2840   74.4190   10.4220 C.3   290  LEU290      0.0001
    112  CD2      -21.5710   75.0180    8.4100 C.3   290  LEU290      0.0001
@<TRIPOS>BOND
     1    17    18    1
     2    23    21    1
     3    11    10    1
     4    11    12    2
     5    18    21    1
     6    18    19    1
     7    10     9    1
     8    10    13    1
     9   108   107    2
    10    96    95    1
    11   107   106    1
    12   105   106    1
    13    16    14    1
    14    21    22    1
    15   106   109    1
    16    13    14    1
    17    95    94    2
    18    95    97    1
    19    19    20    2
    20    19    24   am
    21    14    15    1
    22    31    29    1
    23    94    93    1
    24    24    25    1
    25    29    28    1
    26    87    88    1
    27   112   110    1
    28   109   110    1
    29    85    84   ar
    30    92    93    1
    31    92    91    1
    32   110   111    1
    33   101   100    2
    34    88    91    1
    35    88    89    1
    36     4     3    2
    37    28    25    1
    38    28    30    1
    39    25    26    1
    40   100    99    1
    41    81    80    2
    42    84    86   ar
    43    84    83    1
    44    82    83    1
    45    82    79    1
    46    80    79    1
    47    76    74    1
    48     3     2    1
    49    89    90    2
    50    89    98   am
    51    27    26    2
    52    26    32   am
    53    99    98    1
    54    99   102    1
    55    79    78    1
    56    73    72    2
    57    98   104    1
    58    77    75    1
    59    74    75    1
    60    74    71    1
    61     2     1    1
    62     2     5    1
    63    32    38    1
    64    32    33    1
    65    72    71    1
    66    38    37    1
    67   102   103    1
    68    71    70    1
    69   104   103    1
    70     5     6    1
    71     6     7    1
    72     6     8    1
    73    33    34    1
    74    33    36    1
    75    37    36    1
    76    70    64   am
    77    45    39    1
    78    45    44    1
    79    34    35    2
    80    34    39   am
    81    65    64    2
    82    39    40    1
    83    44    43    1
    84    64    63    1
    85    40    43    1
    86    40    41    1
    87    60    58    1
    88    57    56    2
    89    63    66    1
    90    63    62    1
    91    66    67    1
    92    56    55    1
    93    41    42    2
    94    58    55    1
    95    58    59    1
    96    55    54    1
    97    69    67   am
    98    67    68    2
    99    61    59    1
   100    52    51    1
   101    51    50    1
   102    51    53    1
   103    50    47    1
   104    46    47    1
   105    47    48    1
   106    49    48    2
