@<TRIPOS>MOLECULE
tmp/5btrA02.pdb
 95 90 0 0 0
SMALL
GASTEIGER

@<TRIPOS>ATOM
      1  N        -27.9840   61.1100    5.2990 N.3    49  THR49      -0.1203
      2  CA       -27.1610   60.4580    6.3190 C.3    49  THR49       0.1994
      3  C        -27.9030   60.1290    7.6010 C.2    49  THR49       0.2617
      4  O        -28.7000   60.9230    8.1040 O.2    49  THR49      -0.2717
      5  CB       -25.9440   61.3220    6.7000 C.3    49  THR49       0.1784
      6  OG1      -26.3380   62.6960    6.8280 O.3    49  THR49      -0.2211
      7  CG2      -24.8710   61.2130    5.6410 C.3    49  THR49       0.0376
      8  N        -27.5950   58.9600    8.1440 N.am   50  ILE50      -0.1979
      9  CA       -28.1730   58.5190    9.4020 C.3    50  ILE50       0.1595
     10  C        -27.1900   58.7170   10.5520 C.2    50  ILE50       0.2287
     11  O        -26.0270   58.3210   10.4560 O.2    50  ILE50      -0.2864
     12  CB       -28.5750   57.0350    9.3250 C.3    50  ILE50       0.0276
     13  CG1      -29.5750   56.8200    8.1890 C.3    50  ILE50       0.0022
     14  CG2      -29.1330   56.5500   10.6530 C.3    50  ILE50       0.0022
     15  CD1      -29.8520   55.3600    7.8880 C.3    50  ILE50       0.0001
     16  N        -25.3230   57.7520   13.8030 N.3    52  PRO52      -0.2116
     17  CA       -24.9230   56.5550   14.5430 C.3    52  PRO52       0.1372
     18  C        -25.7740   56.3540   15.7870 C.2    52  PRO52       0.2244
     19  O        -26.1070   57.3220   16.4750 O.2    52  PRO52      -0.2868
     20  CB       -23.4720   56.8500   14.9190 C.3    52  PRO52       0.0268
     21  CG       -22.9900   57.7160   13.8130 C.3    52  PRO52       0.0207
     22  CD       -24.1620   58.5730   13.4190 C.3    52  PRO52       0.0892
     23  N        -25.2880   55.2920   18.6540 N.3    54  GLU54      -0.1245
     24  CA       -24.7330   55.4920   19.9820 C.3    54  GLU54       0.1567
     25  C        -24.9440   56.9400   20.3870 C.2    54  GLU54       0.2260
     26  O        -24.3410   57.4260   21.3440 O.2    54  GLU54      -0.2867
     27  CB       -23.2420   55.1400   20.0340 C.3    54  GLU54       0.0388
     28  CG       -22.3800   55.8090   18.9740 C.3    54  GLU54       0.1160
     29  CD       -21.9690   54.8700   17.8500 C.2    54  GLU54       0.3649
     30  OE1      -22.3250   53.6700   17.9050 O.co2  54  GLU54      -0.2457
     31  OE2      -21.2770   55.3370   16.9160 O.co2  54  GLU54      -0.2457
     32  N        -20.3250   48.6490    9.8350 N.3   131  PRO131     -0.2102
     33  CA       -21.4320   49.0550    8.9590 C.3   131  PRO131      0.1504
     34  C        -20.9910   49.6630    7.6360 C.2   131  PRO131      0.2575
     35  O        -21.5500   49.3310    6.5950 O.2   131  PRO131     -0.2718
     36  CB       -22.1700   50.1120    9.7860 C.3   131  PRO131      0.0282
     37  CG       -21.6610   49.9610   11.1690 C.3   131  PRO131      0.0208
     38  CD       -20.2590   49.4770   11.0430 C.3   131  PRO131      0.0893
     39  N        -20.0160   50.5630    7.6880 N.am  132  ASP132     -0.1974
     40  CA       -19.5810   51.3040    6.5080 C.3   132  ASP132      0.1708
     41  C        -18.1550   51.8230    6.7090 C.2   132  ASP132      0.2293
     42  O        -17.6630   51.8220    7.8360 O.2   132  ASP132     -0.2864
     43  CB       -20.5590   52.4510    6.2140 C.3   132  ASP132      0.1436
     44  CG       -21.0710   53.1220    7.4690 C.2   132  ASP132      0.3671
     45  OD1      -22.2870   53.4090    7.5330 O.co2 132  ASP132     -0.2456
     46  OD2      -20.2580   53.3680    8.3830 O.co2 132  ASP132     -0.2456
     47  N        -16.8610   54.6980    7.0060 N.3   134  GLN134     -0.1231
     48  CA       -16.6740   55.7620    7.9840 C.3   134  GLN134      0.1698
     49  C        -16.5430   55.2220    9.4040 C.2   134  GLN134      0.2592
     50  O        -15.9310   55.8560   10.2600 O.2   134  GLN134     -0.2718
     51  CB       -17.8200   56.7670    7.9060 C.3   134  GLN134      0.0381
     52  CG       -17.7380   57.6660    6.6940 C.3   134  GLN134      0.0905
     53  CD       -18.0530   56.9280    5.4260 C.2   134  GLN134      0.2608
     54  OE1      -18.5370   55.7950    5.4640 O.2   134  GLN134     -0.2717
     55  NE2      -17.7640   57.5500    4.2880 N.am  134  GLN134     -0.0878
     56  N        -17.1290   54.0580    9.6580 N.am  135  ALA135     -0.1980
     57  CA       -17.0410   53.4470   10.9790 C.3   135  ALA135      0.1597
     58  C        -15.5940   53.1030   11.3200 C.2   135  ALA135      0.2287
     59  O        -15.2310   52.9660   12.4840 O.2   135  ALA135     -0.2864
     60  CB       -17.9100   52.2130   11.0510 C.3   135  ALA135      0.0319
     61  N        -14.7140   55.8230   13.3340 N.3   138  ASP138     -0.1239
     62  CA       -15.6200   56.1570   14.4310 C.3   138  ASP138      0.1674
     63  C        -14.9260   55.8880   15.7570 C.2   138  ASP138      0.2266
     64  O        -14.4120   54.7950   15.9830 O.2   138  ASP138     -0.2867
     65  CB       -16.9160   55.3470   14.3430 C.3   138  ASP138      0.1410
     66  CG       -17.8580   55.6120   15.5120 C.2   138  ASP138      0.3668
     67  OD1      -17.6450   55.0200   16.5900 O.co2 138  ASP138     -0.2456
     68  OD2      -18.8230   56.3910   15.3530 O.co2 138  ASP138     -0.2456
     69  N        -14.5120   60.5350   13.9580 N.3   254  PHE254     -0.1241
     70  CA       -15.8650   61.0610   13.9840 C.3   254  PHE254      0.1605
     71  C        -16.3790   61.1380   15.4160 C.2   254  PHE254      0.2264
     72  O        -16.3620   60.1500   16.1440 O.2   254  PHE254     -0.2867
     73  CB       -16.8090   60.2050   13.1420 C.3   254  PHE254      0.0534
     74  CG       -16.5690   60.3070   11.6670 C.ar  254  PHE254     -0.0203
     75  CD1      -16.8850   61.4660   10.9810 C.ar  254  PHE254     -0.0042
     76  CD2      -16.0870   59.2220   10.9530 C.ar  254  PHE254     -0.0042
     77  CE1      -16.6790   61.5580    9.6110 C.ar  254  PHE254     -0.0003
     78  CE2      -15.8890   59.3040    9.5840 C.ar  254  PHE254     -0.0003
     79  CZ       -16.1830   60.4720    8.9130 C.ar  254  PHE254     -0.0000
     80  N        -18.4610   67.4090    2.5600 N.3   284  LYS284     -0.1231
     81  CA       -19.6130   66.7280    3.1330 C.3   284  LYS284      0.1693
     82  C        -19.5460   66.6920    4.6630 C.2   284  LYS284      0.2591
     83  O        -20.5820   66.6370    5.3360 O.2   284  LYS284     -0.2718
     84  CB       -19.7180   65.3040    2.5930 C.3   284  LYS284      0.0285
     85  CG       -19.2770   65.1450    1.1520 C.3   284  LYS284      0.0035
     86  CD       -20.3510   65.6140    0.1870 C.3   284  LYS284      0.0206
     87  CE       -21.3370   64.4930   -0.1330 C.3   284  LYS284      0.1093
     88  NZ       -20.6630   63.2870   -0.6910 N.3   284  LYS284     -0.1314
     89  N        -18.3380   66.7150    5.2200 N.am  285  VAL285     -0.1980
     90  CA       -18.1900   66.6250    6.6700 C.3   285  VAL285      0.1595
     91  C        -18.0450   67.9780    7.3550 C.2   285  VAL285      0.2287
     92  O        -17.2240   68.7980    6.9530 O.2   285  VAL285     -0.2864
     93  CB       -16.9940   65.7660    7.0440 C.3   285  VAL285      0.0276
     94  CG1      -16.9110   65.6150    8.5520 C.3   285  VAL285      0.0022
     95  CG2      -17.1190   64.4130    6.3860 C.3   285  VAL285      0.0022
@<TRIPOS>BOND
     1    88    87    1
     2    87    86    1
     3    86    85    1
     4    85    84    1
     5    80    81    1
     6    84    81    1
     7    81    82    1
     8    55    53   am
     9    82    89   am
    10    82    83    2
    11    89    90    1
    12     1     2    1
    13    53    54    2
    14    53    52    1
    15     7     5    1
    16    43    40    1
    17    43    44    1
    18     2     5    1
    19     2     3    1
    20    95    93    1
    21    40    41    1
    22    40    39    1
    23    35    34    2
    24    90    93    1
    25    90    91    1
    26    52    51    1
    27     5     6    1
    28    41    42    2
    29    92    91    2
    30    47    48    1
    31    93    94    1
    32    44    45   ar
    33    44    46   ar
    34     3     4    2
    35     3     8   am
    36    34    39   am
    37    34    33    1
    38    15    13    1
    39    51    48    1
    40    48    49    1
    41     8     9    1
    42    13    12    1
    43    79    78   ar
    44    79    77   ar
    45    33    36    1
    46    33    32    1
    47    12     9    1
    48    12    14    1
    49     9    10    1
    50    49    56   am
    51    49    50    2
    52    78    76   ar
    53    77    75   ar
    54    56    57    1
    55    36    37    1
    56    32    38    1
    57    11    10    2
    58    76    74   ar
    59    57    60    1
    60    57    58    1
    61    75    74   ar
    62    38    37    1
    63    58    59    2
    64    74    73    1
    65    73    70    1
    66    61    62    1
    67    22    16    1
    68    22    21    1
    69    16    17    1
    70    21    20    1
    71    69    70    1
    72    70    71    1
    73    65    62    1
    74    65    66    1
    75    62    63    1
    76    17    20    1
    77    17    18    1
    78    68    66   ar
    79    71    72    2
    80    66    67   ar
    81    63    64    2
    82    18    19    2
    83    31    29   ar
    84    29    30   ar
    85    29    28    1
    86    23    24    1
    87    28    27    1
    88    24    27    1
    89    24    25    1
    90    25    26    2
