@<TRIPOS>MOLECULE
tmp/5btrC03.pdb
 96 91 0 0 0
SMALL
GASTEIGER

@<TRIPOS>ATOM
      1  N        -32.9460   87.3940   49.5800 N.3    50  PRO50      -0.2116
      2  CA       -33.7850   87.1200   50.7510 C.3    50  PRO50       0.1372
      3  C        -34.6730   85.8980   50.5260 C.2    50  PRO50       0.2244
      4  O        -35.2210   85.7360   49.4360 O.2    50  PRO50      -0.2868
      5  CB       -34.6160   88.3940   50.8880 C.3    50  PRO50       0.0268
      6  CG       -33.7250   89.4570   50.3460 C.3    50  PRO50       0.0207
      7  CD       -32.9670   88.8210   49.2120 C.3    50  PRO50       0.0892
      8  N        -37.5990   84.9320   51.3780 N.3    52  GLU52      -0.1231
      9  CA       -39.0480   85.0550   51.2410 C.3    52  GLU52       0.1699
     10  C        -39.4750   85.3240   49.7970 C.2    52  GLU52       0.2592
     11  O        -40.6140   85.7220   49.5380 O.2    52  GLU52      -0.2718
     12  CB       -39.5700   86.1680   52.1540 C.3    52  GLU52       0.0402
     13  CG       -38.8130   87.4860   52.0320 C.3    52  GLU52       0.1161
     14  CD       -37.8780   87.7400   53.2040 C.2    52  GLU52       0.3649
     15  OE1      -37.8500   86.9100   54.1390 O.co2  52  GLU52      -0.2457
     16  OE2      -37.1710   88.7700   53.1890 O.co2  52  GLU52      -0.2457
     17  N        -38.5610   85.0760   48.8640 N.am   53  LEU53      -0.1980
     18  CA       -38.7820   85.3340   47.4430 C.3    53  LEU53       0.1596
     19  C        -39.2220   84.0960   46.6710 C.2    53  LEU53       0.2287
     20  O        -38.5200   83.0840   46.6650 O.2    53  LEU53      -0.2864
     21  CB       -37.5100   85.9030   46.8180 C.3    53  LEU53       0.0297
     22  CG       -37.2030   87.3370   47.2380 C.3    53  LEU53       0.0022
     23  CD1      -35.9440   87.8490   46.5600 C.3    53  LEU53       0.0001
     24  CD2      -38.3940   88.2270   46.9320 C.3    53  LEU53       0.0001
     25  N        -40.4880   84.9320   41.0280 N.3    57  THR57      -0.1218
     26  CA       -39.9860   86.2850   41.2080 C.3    57  THR57       0.1862
     27  C        -38.4900   86.3070   40.9380 C.2    57  THR57       0.2287
     28  O        -37.9910   87.1780   40.2270 O.2    57  THR57      -0.2866
     29  CB       -40.2700   86.8230   42.6130 C.3    57  THR57       0.1770
     30  OG1      -41.6870   86.9100   42.8120 O.3    57  THR57      -0.2211
     31  CG2      -39.6470   88.2030   42.7820 C.3    57  THR57       0.0375
     32  N        -37.7780   86.2280   37.3670 N.3    60  GLN60      -0.1231
     33  CA       -38.0660   87.5430   36.8120 C.3    60  GLN60       0.1698
     34  C        -36.8990   88.5000   37.0420 C.2    60  GLN60       0.2592
     35  O        -36.5630   89.3200   36.1850 O.2    60  GLN60      -0.2718
     36  CB       -39.3360   88.1170   37.4320 C.3    60  GLN60       0.0381
     37  CG       -39.6040   89.5570   37.0420 C.3    60  GLN60       0.0905
     38  CD       -40.9420   90.0530   37.5360 C.2    60  GLN60       0.2608
     39  OE1      -41.0740   91.2050   37.9500 O.2    60  GLN60      -0.2717
     40  NE2      -41.9470   89.1850   37.4970 N.am   60  GLN60      -0.0878
     41  N        -36.2940   88.3960   38.2170 N.am   61  ILE61      -0.1980
     42  CA       -35.1230   89.1910   38.5510 C.3    61  ILE61       0.1595
     43  C        -33.9570   88.8240   37.6370 C.2    61  ILE61       0.2287
     44  O        -33.2020   89.6940   37.1750 O.2    61  ILE61      -0.2864
     45  CB       -34.7300   88.9830   40.0160 C.3    61  ILE61       0.0276
     46  CG1      -35.8860   89.3890   40.9300 C.3    61  ILE61       0.0022
     47  CG2      -33.4550   89.7460   40.3420 C.3    61  ILE61       0.0022
     48  CD1      -35.7230   88.9250   42.3490 C.3    61  ILE61       0.0001
     49  N        -34.5650   90.3750   34.3640 N.3    64  ASN64      -0.1240
     50  CA       -34.1980   91.7790   34.5190 C.3    64  ASN64       0.1653
     51  C        -32.7210   92.0030   34.2800 C.2    64  ASN64       0.2266
     52  O        -32.3370   92.7880   33.4120 O.2    64  ASN64      -0.2867
     53  CB       -34.5520   92.2950   35.9110 C.3    64  ASN64       0.1155
     54  CG       -35.9390   92.8660   35.9810 C.2    64  ASN64       0.2627
     55  OD1      -36.7580   92.6490   35.0920 O.2    64  ASN64      -0.2716
     56  ND2      -36.2040   93.6350   37.0260 N.am   64  ASN64      -0.0877
     57  N        -36.4110   96.2140   54.9950 N.3   118  ASP118     -0.1225
     58  CA       -37.1820   95.0760   54.4960 C.3   118  ASP118      0.1805
     59  C        -38.6480   95.1440   54.9200 C.2   118  ASP118      0.2598
     60  O        -38.9490   95.3850   56.0870 O.2   118  ASP118     -0.2718
     61  CB       -36.5540   93.7620   54.9670 C.3   118  ASP118      0.1424
     62  CG       -37.3290   92.5420   54.4990 C.2   118  ASP118      0.3668
     63  OD1      -38.3370   92.1850   55.1420 O.co2 118  ASP118     -0.2456
     64  OD2      -36.9270   91.9370   53.4820 O.co2 118  ASP118     -0.2456
     65  N        -39.5530   94.9450   53.9640 N.am  119  ILE119     -0.1966
     66  CA       -40.9880   95.1110   54.2030 C.3   119  ILE119      0.1727
     67  C        -41.5650   94.0500   55.1590 C.2   119  ILE119      0.2616
     68  O        -42.4070   94.3590   56.0150 O.2   119  ILE119     -0.2715
     69  CB       -41.7710   95.0820   52.8610 C.3   119  ILE119      0.0290
     70  CG1      -43.2730   95.2680   53.0900 C.3   119  ILE119      0.0022
     71  CG2      -41.4760   93.8070   52.0760 C.3   119  ILE119      0.0023
     72  CD1      -43.6330   96.5910   53.7250 C.3   119  ILE119      0.0001
     73  N        -41.0920   92.8120   55.0350 N.am  120  GLU120     -0.1977
     74  CA       -41.5490   91.7240   55.9010 C.3   120  GLU120      0.1602
     75  C        -41.0270   91.8870   57.3200 C.2   120  GLU120      0.2287
     76  O        -41.7290   91.5780   58.2840 O.2   120  GLU120     -0.2864
     77  CB       -41.1450   90.3610   55.3350 C.3   120  GLU120      0.0415
     78  CG       -42.0150   89.9080   54.1790 C.3   120  GLU120      0.1163
     79  CD       -43.4910   89.8810   54.5540 C.2   120  GLU120      0.3649
     80  OE1      -43.8120   89.4820   55.6950 O.co2 120  GLU120     -0.2457
     81  OE2      -44.3310   90.2630   53.7130 O.co2 120  GLU120     -0.2457
     82  N        -37.1890   97.9040   50.0480 N.3   225  PHE225     -0.1227
     83  CA       -36.7360   96.8780   49.1220 C.3   225  PHE225      0.1736
     84  C        -37.9440   96.0600   48.6800 C.2   225  PHE225      0.2596
     85  O        -38.6510   95.4810   49.5060 O.2   225  PHE225     -0.2718
     86  CB       -35.6750   95.9760   49.7620 C.3   225  PHE225      0.0547
     87  CG       -34.3450   96.6490   49.9720 C.ar  225  PHE225     -0.0202
     88  CD1      -33.5160   96.9270   48.8950 C.ar  225  PHE225     -0.0042
     89  CD2      -33.9140   96.9840   51.2460 C.ar  225  PHE225     -0.0042
     90  CE1      -32.2890   97.5420   49.0820 C.ar  225  PHE225     -0.0003
     91  CE2      -32.6860   97.5970   51.4410 C.ar  225  PHE225     -0.0003
     92  CZ       -31.8730   97.8750   50.3570 C.ar  225  PHE225     -0.0000
     93  N        -38.1670   96.0040   47.3720 N.am  226  GLY226     -0.1957
     94  CA       -39.2910   95.2730   46.8190 C.3   226  GLY226      0.1869
     95  C        -40.4700   96.1730   46.5090 C.2   226  GLY226      0.2309
     96  O        -41.4980   95.7150   46.0030 O.2   226  GLY226     -0.2863
@<TRIPOS>BOND
     1    52    51    2
     2    51    50    1
     3    49    50    1
     4    50    53    1
     5    55    54    2
     6    53    54    1
     7    54    56   am
     8    35    34    2
     9    33    34    1
    10    33    32    1
    11    33    36    1
    12    37    36    1
    13    37    38    1
    14    34    41   am
    15    44    43    2
    16    40    38   am
    17    38    39    2
    18    43    42    1
    19    41    42    1
    20    42    45    1
    21    45    47    1
    22    45    46    1
    23    28    27    2
    24    46    48    1
    25    27    26    1
    26    25    26    1
    27    26    29    1
    28    29    31    1
    29    29    30    1
    30    96    95    2
    31    95    94    1
    32    23    22    1
    33    20    19    2
    34    19    18    1
    35    21    22    1
    36    21    18    1
    37    94    93    1
    38    24    22    1
    39    93    84   am
    40    18    17    1
    41    84    83    1
    42    84    85    2
    43    17    10   am
    44    88    90   ar
    45    88    87   ar
    46    90    92   ar
    47    83    86    1
    48    83    82    1
    49     7     1    1
    50     7     6    1
    51     4     3    2
    52    11    10    2
    53     1     2    1
    54    86    87    1
    55    10     9    1
    56    87    89   ar
    57     6     5    1
    58    92    91   ar
    59     3     2    1
    60     2     5    1
    61     9     8    1
    62     9    12    1
    63    89    91   ar
    64    13    12    1
    65    13    14    1
    66    71    69    1
    67    69    70    1
    68    69    66    1
    69    70    72    1
    70    16    14   ar
    71    14    15   ar
    72    64    62   ar
    73    81    79   ar
    74    65    66    1
    75    65    59   am
    76    78    79    1
    77    78    77    1
    78    66    67    1
    79    58    59    1
    80    58    61    1
    81    58    57    1
    82    62    61    1
    83    62    63   ar
    84    79    80   ar
    85    59    60    2
    86    73    67   am
    87    73    74    1
    88    67    68    2
    89    77    74    1
    90    74    75    1
    91    75    76    2
