@<TRIPOS>MOLECULE
tmp/5btrC02.pdb
 95 90 0 0 0
SMALL
GASTEIGER

@<TRIPOS>ATOM
      1  N        -24.0590   89.1100   46.6440 N.3    47  THR47      -0.1203
      2  CA       -25.3420   89.2860   47.3130 C.3    47  THR47       0.1994
      3  C        -26.2030   88.0290   47.2720 C.2    47  THR47       0.2617
      4  O        -26.2600   87.3210   46.2670 O.2    47  THR47      -0.2717
      5  CB       -26.1420   90.4600   46.6900 C.3    47  THR47       0.1784
      6  OG1      -26.0140   90.4290   45.2620 O.3    47  THR47      -0.2211
      7  CG2      -25.6240   91.8000   47.1920 C.3    47  THR47       0.0376
      8  N        -26.8580   87.7550   48.3920 N.am   48  ILE48      -0.1979
      9  CA       -27.7910   86.6430   48.4990 C.3    48  ILE48       0.1595
     10  C        -29.2300   87.1450   48.4720 C.2    48  ILE48       0.2287
     11  O        -29.5670   88.1060   49.1630 O.2    48  ILE48      -0.2864
     12  CB       -27.5400   85.8250   49.7800 C.3    48  ILE48       0.0276
     13  CG1      -26.1210   85.2500   49.7540 C.3    48  ILE48       0.0022
     14  CG2      -28.5580   84.7020   49.9190 C.3    48  ILE48       0.0022
     15  CD1      -25.6880   84.6110   51.0530 C.3    48  ILE48       0.0001
     16  N        -32.9460   87.3940   49.5800 N.3    50  PRO50      -0.2116
     17  CA       -33.7850   87.1200   50.7510 C.3    50  PRO50       0.1372
     18  C        -34.6730   85.8980   50.5260 C.2    50  PRO50       0.2244
     19  O        -35.2210   85.7360   49.4360 O.2    50  PRO50      -0.2868
     20  CB       -34.6160   88.3940   50.8880 C.3    50  PRO50       0.0268
     21  CG       -33.7250   89.4570   50.3460 C.3    50  PRO50       0.0207
     22  CD       -32.9670   88.8210   49.2120 C.3    50  PRO50       0.0892
     23  N        -37.5990   84.9320   51.3780 N.3    52  GLU52      -0.1245
     24  CA       -39.0480   85.0550   51.2410 C.3    52  GLU52       0.1567
     25  C        -39.4750   85.3240   49.7970 C.2    52  GLU52       0.2260
     26  O        -40.6140   85.7220   49.5380 O.2    52  GLU52      -0.2867
     27  CB       -39.5700   86.1680   52.1540 C.3    52  GLU52       0.0388
     28  CG       -38.8130   87.4860   52.0320 C.3    52  GLU52       0.1160
     29  CD       -37.8780   87.7400   53.2040 C.2    52  GLU52       0.3649
     30  OE1      -37.8500   86.9100   54.1390 O.co2  52  GLU52      -0.2457
     31  OE2      -37.1710   88.7700   53.1890 O.co2  52  GLU52      -0.2457
     32  N        -30.5250   90.6490   60.7880 N.3   111  PRO111     -0.2102
     33  CA       -29.5780   89.8380   60.0130 C.3   111  PRO111      0.1504
     34  C        -28.4290   90.6940   59.4630 C.2   111  PRO111      0.2575
     35  O        -27.2680   90.2920   59.5370 O.2   111  PRO111     -0.2718
     36  CB       -30.4410   89.2670   58.8780 C.3   111  PRO111      0.0282
     37  CG       -31.8650   89.4780   59.3110 C.3   111  PRO111      0.0208
     38  CD       -31.8470   90.7120   60.1450 C.3   111  PRO111      0.0893
     39  N        -28.7690   91.8620   58.9200 N.am  112  ASP112     -0.1974
     40  CA       -27.8080   92.7550   58.2700 C.3   112  ASP112      0.1708
     41  C        -28.3700   94.1840   58.2800 C.2   112  ASP112      0.2293
     42  O        -29.5510   94.3690   58.5760 O.2   112  ASP112     -0.2864
     43  CB       -27.5140   92.2850   56.8370 C.3   112  ASP112      0.1436
     44  CG       -28.7520   91.7750   56.1150 C.2   112  ASP112      0.3671
     45  OD1      -28.6530   90.7420   55.4180 O.co2 112  ASP112     -0.2456
     46  OD2      -29.8200   92.4120   56.2270 O.co2 112  ASP112     -0.2456
     47  N        -29.1830   96.2430   55.8700 N.3   114  GLN114     -0.1231
     48  CA       -30.2170   96.4430   54.8570 C.3   114  GLN114      0.1698
     49  C        -31.5890   95.9480   55.3140 C.2   114  GLN114      0.2592
     50  O        -32.6150   96.3930   54.8020 O.2   114  GLN114     -0.2718
     51  CB       -29.8260   95.7620   53.5450 C.3   114  GLN114      0.0381
     52  CG       -28.7700   96.5010   52.7280 C.3   114  GLN114      0.0905
     53  CD       -27.3870   96.4430   53.3470 C.2   114  GLN114      0.2608
     54  OE1      -27.1440   95.6870   54.2870 O.2   114  GLN114     -0.2717
     55  NE2      -26.4710   97.2460   52.8190 N.am  114  GLN114     -0.0878
     56  N        -31.5980   95.0220   56.2710 N.am  115  ALA115     -0.1980
     57  CA       -32.8360   94.4670   56.8210 C.3   115  ALA115      0.1597
     58  C        -33.6850   95.5640   57.4500 C.2   115  ALA115      0.2287
     59  O        -34.8720   95.3710   57.7190 O.2   115  ALA115     -0.2864
     60  CB       -32.5310   93.3880   57.8450 C.3   115  ALA115      0.0319
     61  N        -36.4110   96.2140   54.9950 N.3   118  ASP118     -0.1239
     62  CA       -37.1820   95.0760   54.4960 C.3   118  ASP118      0.1674
     63  C        -38.6480   95.1440   54.9200 C.2   118  ASP118      0.2266
     64  O        -38.9490   95.3850   56.0870 O.2   118  ASP118     -0.2867
     65  CB       -36.5540   93.7620   54.9670 C.3   118  ASP118      0.1410
     66  CG       -37.3290   92.5420   54.4990 C.2   118  ASP118      0.3668
     67  OD1      -38.3370   92.1850   55.1420 O.co2 118  ASP118     -0.2456
     68  OD2      -36.9270   91.9370   53.4820 O.co2 118  ASP118     -0.2456
     69  N        -37.1890   97.9040   50.0480 N.3   225  PHE225     -0.1241
     70  CA       -36.7360   96.8780   49.1220 C.3   225  PHE225      0.1605
     71  C        -37.9440   96.0600   48.6800 C.2   225  PHE225      0.2264
     72  O        -38.6510   95.4810   49.5060 O.2   225  PHE225     -0.2867
     73  CB       -35.6750   95.9760   49.7620 C.3   225  PHE225      0.0534
     74  CG       -34.3450   96.6490   49.9720 C.ar  225  PHE225     -0.0203
     75  CD1      -33.5160   96.9270   48.8950 C.ar  225  PHE225     -0.0042
     76  CD2      -33.9140   96.9840   51.2460 C.ar  225  PHE225     -0.0042
     77  CE1      -32.2890   97.5420   49.0820 C.ar  225  PHE225     -0.0003
     78  CE2      -32.6860   97.5970   51.4410 C.ar  225  PHE225     -0.0003
     79  CZ       -31.8730   97.8750   50.3570 C.ar  225  PHE225     -0.0000
     80  N        -24.6650  100.2420   44.1130 N.3   255  LYS255     -0.1231
     81  CA       -24.7270   98.7960   44.2690 C.3   255  LYS255      0.1693
     82  C        -26.1650   98.3150   44.1360 C.2   255  LYS255      0.2591
     83  O        -26.4220   97.1860   43.7140 O.2   255  LYS255     -0.2718
     84  CB       -24.1420   98.3790   45.6220 C.3   255  LYS255      0.0285
     85  CG       -22.9620   99.2340   46.0810 C.3   255  LYS255      0.0035
     86  CD       -21.6580   98.8340   45.3950 C.3   255  LYS255      0.0206
     87  CE       -20.9160   97.7400   46.1650 C.3   255  LYS255      0.1093
     88  NZ       -20.5910   98.1300   47.5710 N.3   255  LYS255     -0.1314
     89  N        -27.0990   99.1930   44.4880 N.am  256  VAL256     -0.1980
     90  CA       -28.5190   98.8580   44.4880 C.3   256  VAL256      0.1595
     91  C        -29.2180   99.2670   43.1940 C.2   256  VAL256      0.2287
     92  O        -29.0950  100.4020   42.7210 O.2   256  VAL256     -0.2864
     93  CB       -29.2470   99.5110   45.6810 C.3   256  VAL256      0.0276
     94  CG1      -30.7140   99.1140   45.6930 C.3   256  VAL256      0.0022
     95  CG2      -28.5760   99.1170   46.9860 C.3   256  VAL256      0.0022
@<TRIPOS>BOND
     1    92    91    2
     2    91    90    1
     3    83    82    2
     4    80    81    1
     5    82    81    1
     6    82    89   am
     7    81    84    1
     8    89    90    1
     9    90    93    1
    10     6     5    1
    11    86    85    1
    12    86    87    1
    13    84    85    1
    14    93    94    1
    15    93    95    1
    16    87    88    1
    17     4     3    2
    18     1     2    1
    19     5     7    1
    20     5     2    1
    21     3     2    1
    22     3     8   am
    23     8     9    1
    24    10     9    1
    25    10    11    2
    26     9    12    1
    27    71    70    1
    28    71    72    2
    29    75    77   ar
    30    75    74   ar
    31    77    79   ar
    32    70    73    1
    33    70    69    1
    34    22    16    1
    35    22    21    1
    36    19    18    2
    37    26    25    2
    38    16    17    1
    39    13    12    1
    40    13    15    1
    41    73    74    1
    42    12    14    1
    43    25    24    1
    44    74    76   ar
    45    21    20    1
    46    79    78   ar
    47    18    17    1
    48    17    20    1
    49    24    23    1
    50    24    27    1
    51    76    78   ar
    52    28    27    1
    53    28    29    1
    54    52    53    1
    55    52    51    1
    56    55    53   am
    57    31    29   ar
    58    29    30   ar
    59    53    54    2
    60    68    66   ar
    61    51    48    1
    62    62    63    1
    63    62    65    1
    64    62    61    1
    65    66    65    1
    66    66    67   ar
    67    50    49    2
    68    48    49    1
    69    48    47    1
    70    63    64    2
    71    49    56   am
    72    45    44   ar
    73    44    46   ar
    74    44    43    1
    75    56    57    1
    76    57    58    1
    77    57    60    1
    78    43    40    1
    79    58    59    2
    80    40    41    1
    81    40    39    1
    82    41    42    2
    83    36    37    1
    84    36    33    1
    85    39    34   am
    86    37    38    1
    87    34    35    2
    88    34    33    1
    89    33    32    1
    90    38    32    1
