@<TRIPOS>MOLECULE
tmp/5btrA04.pdb
 96 91 0 0 0
SMALL
GASTEIGER

@<TRIPOS>ATOM
      1  N        -25.3230   57.7520   13.8030 N.3    52  PRO52      -0.2116
      2  CA       -24.9230   56.5550   14.5430 C.3    52  PRO52       0.1372
      3  C        -25.7740   56.3540   15.7870 C.2    52  PRO52       0.2244
      4  O        -26.1070   57.3220   16.4750 O.2    52  PRO52      -0.2868
      5  CB       -23.4720   56.8500   14.9190 C.3    52  PRO52       0.0268
      6  CG       -22.9900   57.7160   13.8130 C.3    52  PRO52       0.0207
      7  CD       -24.1620   58.5730   13.4190 C.3    52  PRO52       0.0892
      8  N        -25.2880   55.2920   18.6540 N.3    54  GLU54      -0.1231
      9  CA       -24.7330   55.4920   19.9820 C.3    54  GLU54       0.1699
     10  C        -24.9440   56.9400   20.3870 C.2    54  GLU54       0.2592
     11  O        -24.3410   57.4260   21.3440 O.2    54  GLU54      -0.2718
     12  CB       -23.2420   55.1400   20.0340 C.3    54  GLU54       0.0402
     13  CG       -22.3800   55.8090   18.9740 C.3    54  GLU54       0.1161
     14  CD       -21.9690   54.8700   17.8500 C.2    54  GLU54       0.3649
     15  OE1      -22.3250   53.6700   17.9050 O.co2  54  GLU54      -0.2457
     16  OE2      -21.2770   55.3370   16.9160 O.co2  54  GLU54      -0.2457
     17  N        -25.8240   57.6260   19.6670 N.am   55  LEU55      -0.1980
     18  CA       -26.0910   59.0180   19.9670 C.3    55  LEU55       0.1596
     19  C        -27.3340   59.1630   20.8270 C.2    55  LEU55       0.2287
     20  O        -28.4480   58.8500   20.4020 O.2    55  LEU55      -0.2864
     21  CB       -26.2430   59.8150   18.6730 C.3    55  LEU55       0.0297
     22  CG       -24.9190   60.0480   17.9450 C.3    55  LEU55       0.0022
     23  CD1      -25.1040   60.8480   16.6630 C.3    55  LEU55       0.0001
     24  CD2      -23.9660   60.7600   18.8840 C.3    55  LEU55       0.0001
     25  N        -27.9280   64.8100   22.6300 N.3    59  THR59      -0.1218
     26  CA       -26.8350   65.1070   21.7170 C.3    59  THR59       0.1862
     27  C        -27.3970   65.4420   20.3460 C.2    59  THR59       0.2287
     28  O        -27.0870   66.4930   19.7880 O.2    59  THR59      -0.2866
     29  CB       -25.8530   63.9330   21.5980 C.3    59  THR59       0.1770
     30  OG1      -25.2070   63.7280   22.8600 O.3    59  THR59      -0.2211
     31  CG2      -24.7990   64.2270   20.5450 C.3    59  THR59       0.0375
     32  N        -28.6720   68.7590   20.1710 N.3    62  GLN62      -0.1231
     33  CA       -27.5800   69.7290   20.0950 C.3    62  GLN62       0.1698
     34  C        -27.0640   69.8530   18.6490 C.2    62  GLN62       0.2592
     35  O        -26.7350   70.9460   18.1710 O.2    62  GLN62      -0.2718
     36  CB       -26.4460   69.3450   21.0460 C.3    62  GLN62       0.0381
     37  CG       -25.2390   70.2580   20.9340 C.3    62  GLN62       0.0905
     38  CD       -24.1970   69.9960   22.0020 C.2    62  GLN62       0.2608
     39  OE1      -22.9970   70.0700   21.7410 O.2    62  GLN62      -0.2717
     40  NE2      -24.6500   69.6920   23.2130 N.am   62  GLN62      -0.0878
     41  N        -27.0010   68.7210   17.9570 N.am   63  ILE63      -0.1980
     42  CA       -26.6280   68.6910   16.5500 C.3    63  ILE63       0.1595
     43  C        -27.6320   69.4470   15.6770 C.2    63  ILE63       0.2287
     44  O        -27.2450   70.1660   14.7550 O.2    63  ILE63      -0.2864
     45  CB       -26.5150   67.2360   16.0600 C.3    63  ILE63       0.0276
     46  CG1      -25.4070   66.5210   16.8380 C.3    63  ILE63       0.0022
     47  CG2      -26.2770   67.1750   14.5510 C.3    63  ILE63       0.0022
     48  CD1      -25.4110   65.0210   16.6620 C.3    63  ILE63       0.0001
     49  N        -27.2080   73.0930   16.2630 N.3    66  ASN66      -0.1240
     50  CA       -26.0380   73.4190   15.4500 C.3    66  ASN66       0.1653
     51  C        -26.3880   73.6720   13.9970 C.2    66  ASN66       0.2266
     52  O        -26.1400   74.7580   13.4780 O.2    66  ASN66      -0.2867
     53  CB       -24.9970   72.3130   15.5270 C.3    66  ASN66       0.1155
     54  CG       -23.9910   72.5550   16.6110 C.2    66  ASN66       0.2627
     55  OD1      -24.1890   73.4110   17.4730 O.2    66  ASN66      -0.2716
     56  ND2      -22.8830   71.8250   16.5650 N.am   66  ASN66      -0.0877
     57  N        -14.7140   55.8230   13.3340 N.3   138  ASP138     -0.1225
     58  CA       -15.6200   56.1570   14.4310 C.3   138  ASP138      0.1805
     59  C        -14.9260   55.8880   15.7570 C.2   138  ASP138      0.2598
     60  O        -14.4120   54.7950   15.9830 O.2   138  ASP138     -0.2718
     61  CB       -16.9160   55.3470   14.3430 C.3   138  ASP138      0.1424
     62  CG       -17.8580   55.6120   15.5120 C.2   138  ASP138      0.3668
     63  OD1      -17.6450   55.0200   16.5900 O.co2 138  ASP138     -0.2456
     64  OD2      -18.8230   56.3910   15.3530 O.co2 138  ASP138     -0.2456
     65  N        -14.9330   56.8790   16.6400 N.am  139  ILE139     -0.1966
     66  CA       -14.1790   56.7900   17.8830 C.3   139  ILE139      0.1727
     67  C        -14.7630   55.7280   18.8070 C.2   139  ILE139      0.2616
     68  O        -14.0320   55.0230   19.5160 O.2   139  ILE139     -0.2715
     69  CB       -14.1210   58.1510   18.6080 C.3   139  ILE139      0.0290
     70  CG1      -13.3400   58.0160   19.9140 C.3   139  ILE139      0.0022
     71  CG2      -15.5150   58.7010   18.8420 C.3   139  ILE139      0.0023
     72  CD1      -11.9080   57.5740   19.7160 C.3   139  ILE139      0.0001
     73  N        -16.0810   55.5930   18.7740 N.am  140  GLU140     -0.1977
     74  CA       -16.7420   54.6390   19.6420 C.3   140  GLU140      0.1602
     75  C        -16.4310   53.2120   19.1990 C.2   140  GLU140      0.2287
     76  O        -16.1670   52.3340   20.0310 O.2   140  GLU140     -0.2864
     77  CB       -18.2540   54.8760   19.6410 C.3   140  GLU140      0.0415
     78  CG       -18.6760   56.1510   20.3430 C.3   140  GLU140      0.1163
     79  CD       -18.1240   56.2550   21.7420 C.2   140  GLU140      0.3649
     80  OE1      -18.0790   55.2220   22.4490 O.co2 140  GLU140     -0.2457
     81  OE2      -17.7180   57.3760   22.1230 O.co2 140  GLU140     -0.2457
     82  N        -14.5120   60.5350   13.9580 N.3   254  PHE254     -0.1227
     83  CA       -15.8650   61.0610   13.9840 C.3   254  PHE254      0.1736
     84  C        -16.3790   61.1380   15.4160 C.2   254  PHE254      0.2596
     85  O        -16.3620   60.1500   16.1440 O.2   254  PHE254     -0.2718
     86  CB       -16.8090   60.2050   13.1420 C.3   254  PHE254      0.0547
     87  CG       -16.5690   60.3070   11.6670 C.ar  254  PHE254     -0.0202
     88  CD1      -16.8850   61.4660   10.9810 C.ar  254  PHE254     -0.0042
     89  CD2      -16.0870   59.2220   10.9530 C.ar  254  PHE254     -0.0042
     90  CE1      -16.6790   61.5580    9.6110 C.ar  254  PHE254     -0.0003
     91  CE2      -15.8890   59.3040    9.5840 C.ar  254  PHE254     -0.0003
     92  CZ       -16.1830   60.4720    8.9130 C.ar  254  PHE254     -0.0000
     93  N        -16.8410   62.3110   15.8210 N.am  255  GLY255     -0.1957
     94  CA       -17.3570   62.4690   17.1620 C.3   255  GLY255      0.1869
     95  C        -16.3220   63.0820   18.0680 C.2   255  GLY255      0.2309
     96  O        -16.5540   63.2500   19.2590 O.2   255  GLY255     -0.2863
@<TRIPOS>BOND
     1    92    91   ar
     2    92    90   ar
     3    91    89   ar
     4    90    88   ar
     5    89    87   ar
     6    88    87   ar
     7    87    86    1
     8    86    83    1
     9    57    58    1
    10     7     1    1
    11     7     6    1
    12    52    51    2
    13     1     2    1
    14     6     5    1
    15    82    83    1
    16    83    84    1
    17    51    50    1
    18    61    58    1
    19    61    62    1
    20    58    59    1
    21     2     5    1
    22     2     3    1
    23    47    45    1
    24    44    43    2
    25    64    62   ar
    26    84    93   am
    27    84    85    2
    28    50    53    1
    29    50    49    1
    30    62    63   ar
    31    53    54    1
    32    43    42    1
    33    59    60    2
    34    59    65   am
    35     3     4    2
    36    93    94    1
    37    45    42    1
    38    45    46    1
    39    42    41    1
    40    56    54   am
    41    54    55    2
    42    65    66    1
    43    48    46    1
    44    23    22    1
    45    16    14   ar
    46    94    95    1
    47    14    15   ar
    48    14    13    1
    49    66    69    1
    50    66    67    1
    51    22    21    1
    52    22    24    1
    53    41    34   am
    54    95    96    2
    55    35    34    2
    56    69    71    1
    57    69    70    1
    58    34    33    1
    59     8     9    1
    60    21    18    1
    61    73    67   am
    62    73    74    1
    63    67    68    2
    64    13    12    1
    65    75    74    1
    66    75    76    2
    67    77    74    1
    68    77    78    1
    69    17    18    1
    70    17    10   am
    71    72    70    1
    72    28    27    2
    73    18    19    1
    74     9    12    1
    75     9    10    1
    76    33    32    1
    77    33    36    1
    78    78    79    1
    79    27    26    1
    80    10    11    2
    81    20    19    2
    82    31    29    1
    83    37    36    1
    84    37    38    1
    85    29    26    1
    86    29    30    1
    87    26    25    1
    88    39    38    2
    89    79    81   ar
    90    79    80   ar
    91    38    40   am
