@<TRIPOS>MOLECULE
tmp/5btrC01.pdb
 231 227 0 0 0
SMALL
GASTEIGER

@<TRIPOS>ATOM
      1  N        -35.5740   85.1030   27.8810 N.3    23  TYR23      -0.1241
      2  CA       -36.7910   84.3610   28.1750 C.3    23  TYR23       0.1605
      3  C        -36.6310   82.8980   27.7830 C.2    23  TYR23       0.2264
      4  O        -37.0390   81.9950   28.5150 O.2    23  TYR23      -0.2867
      5  CB       -37.9780   84.9820   27.4460 C.3    23  TYR23       0.0534
      6  CG       -38.5680   86.1810   28.1580 C.ar   23  TYR23      -0.0201
      7  CD1      -39.7330   86.0720   28.9060 C.ar   23  TYR23      -0.0009
      8  CD2      -37.9520   87.4230   28.0830 C.ar   23  TYR23      -0.0009
      9  CE1      -40.2680   87.1680   29.5530 C.ar   23  TYR23       0.0417
     10  CE2      -38.4800   88.5230   28.7290 C.ar   23  TYR23       0.0417
     11  CZ       -39.6360   88.3900   29.4590 C.ar   23  TYR23       0.1957
     12  OH       -40.1570   89.4910   30.0970 O.3    23  TYR23      -0.2866
     13  N        -24.9150   87.7240   40.3500 N.3    44  LEU44      -0.1245
     14  CA       -24.5950   88.6050   41.4660 C.3    44  LEU44       0.1561
     15  C        -24.0420   87.8190   42.6500 C.2    44  LEU44       0.2260
     16  O        -24.7940   87.4220   43.5440 O.2    44  LEU44      -0.2867
     17  CB       -25.8280   89.4000   41.8980 C.3    44  LEU44       0.0270
     18  CG       -26.5230   90.2060   40.8020 C.3    44  LEU44       0.0019
     19  CD1      -27.7020   90.9750   41.3760 C.3    44  LEU44       0.0001
     20  CD2      -25.5330   91.1390   40.1250 C.3    44  LEU44       0.0001
     21  N        -21.9420   88.7980   45.0480 N.3    46  GLU46      -0.1231
     22  CA       -21.6920   89.5370   46.2800 C.3    46  GLU46       0.1699
     23  C        -22.9610   89.6960   47.1080 C.2    46  GLU46       0.2593
     24  O        -22.9440   90.3300   48.1620 O.2    46  GLU46      -0.2718
     25  CB       -21.1110   90.9250   45.9780 C.3    46  GLU46       0.0402
     26  CG       -22.0790   91.8810   45.2780 C.3    46  GLU46       0.1161
     27  CD       -22.1380   91.6990   43.7680 C.2    46  GLU46       0.3649
     28  OE1      -21.4730   90.7800   43.2440 O.co2  46  GLU46      -0.2457
     29  OE2      -22.8620   92.4770   43.1060 O.co2  46  GLU46      -0.2457
     30  N        -24.0590   89.1100   46.6440 N.am   47  THR47      -0.1939
     31  CA       -25.3420   89.2860   47.3130 C.3    47  THR47       0.2028
     32  C        -26.2030   88.0290   47.2720 C.2    47  THR47       0.2642
     33  O        -26.2600   87.3210   46.2670 O.2    47  THR47      -0.2714
     34  CB       -26.1420   90.4600   46.6900 C.3    47  THR47       0.1808
     35  OG1      -26.0140   90.4290   45.2620 O.3    47  THR47      -0.2208
     36  CG2      -25.6240   91.8000   47.1920 C.3    47  THR47       0.0379
     37  N        -26.8580   87.7550   48.3920 N.am   48  ILE48      -0.1963
     38  CA       -27.7910   86.6430   48.4990 C.3    48  ILE48       0.1712
     39  C        -29.2300   87.1450   48.4720 C.2    48  ILE48       0.2458
     40  O        -29.5670   88.1060   49.1630 O.2    48  ILE48      -0.2730
     41  CB       -27.5400   85.8250   49.7800 C.3    48  ILE48       0.0289
     42  CG1      -26.1210   85.2500   49.7540 C.3    48  ILE48       0.0022
     43  CG2      -28.5580   84.7020   49.9190 C.3    48  ILE48       0.0023
     44  CD1      -25.6880   84.6110   51.0530 C.3    48  ILE48       0.0001
     45  N        -30.0810   86.5060   47.6540 N.am   49  PRO49      -0.2716
     46  CA       -31.5160   86.8040   47.6780 C.3    49  PRO49       0.1521
     47  C        -32.1680   86.4580   49.0110 C.2    49  PRO49       0.2440
     48  O        -31.9460   85.3600   49.5200 O.2    49  PRO49      -0.2731
     49  CB       -32.0800   85.9110   46.5670 C.3    49  PRO49       0.0310
     50  CG       -31.0730   84.8170   46.4060 C.3    49  PRO49       0.0237
     51  CD       -29.7480   85.4720   46.6590 C.3    49  PRO49       0.0939
     52  N        -32.9460   87.3940   49.5800 N.am   50  PRO50      -0.2727
     53  CA       -33.7850   87.1200   50.7510 C.3    50  PRO50       0.1402
     54  C        -34.6730   85.8980   50.5260 C.2    50  PRO50       0.2269
     55  O        -35.2210   85.7360   49.4360 O.2    50  PRO50      -0.2865
     56  CB       -34.6160   88.3940   50.8880 C.3    50  PRO50       0.0296
     57  CG       -33.7250   89.4570   50.3460 C.3    50  PRO50       0.0237
     58  CD       -32.9670   88.8210   49.2120 C.3    50  PRO50       0.0939
     59  N        -37.7780   86.2280   37.3670 N.3    60  GLN60      -0.1245
     60  CA       -38.0660   87.5430   36.8120 C.3    60  GLN60       0.1566
     61  C        -36.8990   88.5000   37.0420 C.2    60  GLN60       0.2260
     62  O        -36.5630   89.3200   36.1850 O.2    60  GLN60      -0.2867
     63  CB       -39.3360   88.1170   37.4320 C.3    60  GLN60       0.0367
     64  CG       -39.6040   89.5570   37.0420 C.3    60  GLN60       0.0905
     65  CD       -40.9420   90.0530   37.5360 C.2    60  GLN60       0.2608
     66  OE1      -41.0740   91.2050   37.9500 O.2    60  GLN60      -0.2717
     67  NE2      -41.9470   89.1850   37.4970 N.am   60  GLN60      -0.0878
     68  N        -34.2230   87.6500   34.5990 N.3    63  ILE63      -0.1231
     69  CA       -34.5640   88.2020   33.2990 C.3    63  ILE63       0.1692
     70  C        -34.2610   89.6930   33.2640 C.2    63  ILE63       0.2592
     71  O        -33.7410   90.2090   32.2690 O.2    63  ILE63      -0.2718
     72  CB       -36.0430   87.9600   32.9700 C.3    63  ILE63       0.0266
     73  CG1      -36.2930   86.4680   32.7670 C.3    63  ILE63       0.0019
     74  CG2      -36.4550   88.7350   31.7380 C.3    63  ILE63       0.0020
     75  CD1      -37.7520   86.1020   32.6490 C.3    63  ILE63       0.0001
     76  N        -34.5650   90.3750   34.3640 N.am   64  ASN64      -0.1974
     77  CA       -34.1980   91.7790   34.5190 C.3    64  ASN64       0.1688
     78  C        -32.7210   92.0030   34.2800 C.2    64  ASN64       0.2292
     79  O        -32.3370   92.7880   33.4120 O.2    64  ASN64      -0.2864
     80  CB       -34.5520   92.2950   35.9110 C.3    64  ASN64       0.1181
     81  CG       -35.9390   92.8660   35.9810 C.2    64  ASN64       0.2629
     82  OD1      -36.7580   92.6490   35.0920 O.2    64  ASN64      -0.2716
     83  ND2      -36.2040   93.6350   37.0260 N.am   64  ASN64      -0.0877
     84  N        -34.6600   98.0570   56.0020 N.3   117  PHE117     -0.1241
     85  CA       -35.5770   98.5150   54.9640 C.3   117  PHE117      0.1605
     86  C        -36.3910   97.3740   54.3460 C.2   117  PHE117      0.2264
     87  O        -37.0090   97.5510   53.3010 O.2   117  PHE117     -0.2867
     88  CB       -34.7860   99.2130   53.8530 C.3   117  PHE117      0.0534
     89  CG       -33.9360  100.3580   54.3310 C.ar  117  PHE117     -0.0203
     90  CD1      -32.5670  100.1950   54.4900 C.ar  117  PHE117     -0.0042
     91  CD2      -34.4960  101.5920   54.6120 C.ar  117  PHE117     -0.0042
     92  CE1      -31.7730  101.2410   54.9240 C.ar  117  PHE117     -0.0003
     93  CE2      -33.7070  102.6440   55.0470 C.ar  117  PHE117     -0.0003
     94  CZ       -32.3440  102.4680   55.2030 C.ar  117  PHE117     -0.0000
     95  N        -30.2850  109.4320   46.2520 N.3   165  GLN165     -0.1245
     96  CA       -30.7710  108.2200   46.8960 C.3   165  GLN165      0.1566
     97  C        -31.0100  108.4780   48.3780 C.2   165  GLN165      0.2260
     98  O        -31.3780  107.5730   49.1280 O.2   165  GLN165     -0.2867
     99  CB       -29.7780  107.0720   46.6990 C.3   165  GLN165      0.0367
    100  CG       -29.6290  106.6380   45.2490 C.3   165  GLN165      0.0905
    101  CD       -28.3410  105.8790   44.9840 C.2   165  GLN165      0.2608
    102  OE1      -27.3300  106.4650   44.5940 O.2   165  GLN165     -0.2717
    103  NE2      -28.3740  104.5680   45.1920 N.am  165  GLN165     -0.0878
    104  N        -32.6780  110.0450   51.8710 N.3   167  ILE167     -0.1245
    105  CA       -34.0280  110.1760   52.4030 C.3   167  ILE167      0.1561
    106  C        -34.0670  111.1880   53.5510 C.2   167  ILE167      0.2260
    107  O        -34.9920  111.1920   54.3670 O.2   167  ILE167     -0.2867
    108  CB       -34.5720  108.8110   52.8670 C.3   167  ILE167      0.0252
    109  CG1      -33.6590  108.1980   53.9260 C.3   167  ILE167      0.0019
    110  CG2      -34.6620  107.8570   51.6940 C.3   167  ILE167      0.0019
    111  CD1      -34.1110  106.8310   54.3940 C.3   167  ILE167      0.0001
    112  N        -35.1360  107.1720   46.1780 N.3   183  HIS183     -0.1241
    113  CA       -35.5500  106.1710   47.1530 C.3   183  HIS183      0.1621
    114  C        -36.5710  106.7740   48.1030 C.2   183  HIS183      0.2264
    115  O        -36.7960  106.2630   49.2000 O.2   183  HIS183     -0.2867
    116  CB       -34.3530  105.6170   47.9300 C.3   183  HIS183      0.0745
    117  CG       -33.4520  104.7400   47.1150 C.ar  183  HIS183      0.0817
    118  ND1      -32.1210  104.5470   47.4220 N.ar  183  HIS183     -0.2268
    119  CD2      -33.6980  103.9790   46.0220 C.ar  183  HIS183      0.1154
    120  CE1      -31.5820  103.7210   46.5440 C.ar  183  HIS183      0.1986
    121  NE2      -32.5180  103.3590   45.6840 N.ar  183  HIS183     -0.2212
    122  N        -38.7430  104.4200   49.8220 N.3   223  VAL223     -0.1231
    123  CA       -38.8430  103.2130   49.0000 C.3   223  VAL223      0.1692
    124  C        -38.1870  101.9850   49.6370 C.2   223  VAL223      0.2592
    125  O        -36.9590  101.8700   49.6780 O.2   223  VAL223     -0.2718
    126  CB       -38.2160  103.4330   47.6050 C.3   223  VAL223      0.0266
    127  CG1      -38.3340  102.1700   46.7660 C.3   223  VAL223      0.0020
    128  CG2      -38.8820  104.6020   46.9000 C.3   223  VAL223      0.0020
    129  N        -39.0130  101.0700   50.1360 N.am  224  PHE224     -0.1962
    130  CA       -38.5200   99.8220   50.7120 C.3   224  PHE224      0.1771
    131  C        -38.0020   98.8750   49.6390 C.2   224  PHE224      0.2620
    132  O        -38.3320   99.0200   48.4600 O.2   224  PHE224     -0.2715
    133  CB       -39.6250   99.1210   51.5080 C.3   224  PHE224      0.0574
    134  CG       -39.7330   99.5710   52.9360 C.ar  224  PHE224     -0.0200
    135  CD1      -39.9440   98.6470   53.9460 C.ar  224  PHE224     -0.0042
    136  CD2      -39.6140  100.9110   53.2710 C.ar  224  PHE224     -0.0042
    137  CE1      -40.0430   99.0510   55.2590 C.ar  224  PHE224     -0.0003
    138  CE2      -39.7130  101.3220   54.5840 C.ar  224  PHE224     -0.0003
    139  CZ       -39.9270  100.3900   55.5790 C.ar  224  PHE224     -0.0000
    140  N        -37.1890   97.9040   50.0480 N.am  225  PHE225     -0.1960
    141  CA       -36.7360   96.8780   49.1220 C.3   225  PHE225      0.1771
    142  C        -37.9440   96.0600   48.6800 C.2   225  PHE225      0.2620
    143  O        -38.6510   95.4810   49.5060 O.2   225  PHE225     -0.2715
    144  CB       -35.6750   95.9760   49.7620 C.3   225  PHE225      0.0574
    145  CG       -34.3450   96.6490   49.9720 C.ar  225  PHE225     -0.0200
    146  CD1      -33.5160   96.9270   48.8950 C.ar  225  PHE225     -0.0042
    147  CD2      -33.9140   96.9840   51.2460 C.ar  225  PHE225     -0.0042
    148  CE1      -32.2890   97.5420   49.0820 C.ar  225  PHE225     -0.0003
    149  CE2      -32.6860   97.5970   51.4410 C.ar  225  PHE225     -0.0003
    150  CZ       -31.8730   97.8750   50.3570 C.ar  225  PHE225     -0.0000
    151  N        -38.1670   96.0040   47.3720 N.am  226  GLY226     -0.1940
    152  CA       -39.2910   95.2730   46.8190 C.3   226  GLY226      0.2014
    153  C        -40.4700   96.1730   46.5090 C.2   226  GLY226      0.2639
    154  O        -41.4980   95.7150   46.0030 O.2   226  GLY226     -0.2714
    155  N        -40.3160   97.4620   46.7980 N.am  227  GLU227     -0.1963
    156  CA       -41.3480   98.4390   46.4800 C.3   227  GLU227      0.1733
    157  C        -40.9300   99.2080   45.2340 C.2   227  GLU227      0.2616
    158  O        -39.7390   99.3710   44.9650 O.2   227  GLU227     -0.2715
    159  CB       -41.5930   99.3990   47.6520 C.3   227  GLU227      0.0429
    160  CG       -42.2090   98.7550   48.8930 C.3   227  GLU227      0.1163
    161  CD       -42.6790   99.7800   49.9160 C.2   227  GLU227      0.3649
    162  OE1      -41.9630  100.7810   50.1350 O.co2 227  GLU227     -0.2457
    163  OE2      -43.7710   99.5870   50.4940 O.co2 227  GLU227     -0.2457
    164  N        -41.9110   99.6850   44.4770 N.am  228  ASN228     -0.1958
    165  CA       -41.6240  100.4610   43.2830 C.3   228  ASN228      0.1819
    166  C        -41.0340  101.8110   43.6260 C.2   228  ASN228      0.2621
    167  O        -41.3680  102.3970   44.6510 O.2   228  ASN228     -0.2715
    168  CB       -42.8900  100.6470   42.4540 C.3   228  ASN228      0.1195
    169  CG       -43.6380   99.3480   42.2370 C.2   228  ASN228      0.2630
    170  OD1      -43.0830   98.2670   42.4090 O.2   228  ASN228     -0.2716
    171  ND2      -44.9010   99.4480   41.8410 N.am  228  ASN228     -0.0877
    172  N        -40.1640  102.3100   42.7600 N.am  229  LEU229     -0.1977
    173  CA       -39.6660  103.6710   42.8910 C.3   229  LEU229      0.1596
    174  C        -40.7860  104.6060   42.4380 C.2   229  LEU229      0.2287
    175  O        -41.6940  104.1760   41.7280 O.2   229  LEU229     -0.2864
    176  CB       -38.3870  103.8710   42.0710 C.3   229  LEU229      0.0297
    177  CG       -37.0720  103.4510   42.7390 C.3   229  LEU229      0.0022
    178  CD1      -37.0200  101.9500   43.0200 C.3   229  LEU229      0.0001
    179  CD2      -35.8730  103.8940   41.9060 C.3   229  LEU229      0.0001
    180  N        -39.2430  107.6340   37.1970 N.3   234  HIS234     -0.1241
    181  CA       -39.2380  107.0270   35.8760 C.3   234  HIS234      0.1621
    182  C        -39.6020  108.0340   34.7880 C.2   234  HIS234      0.2264
    183  O        -39.0080  108.0250   33.7150 O.2   234  HIS234     -0.2867
    184  CB       -40.2010  105.8480   35.8430 C.3   234  HIS234      0.0745
    185  CG       -39.8650  104.7720   36.8260 C.ar  234  HIS234      0.0817
    186  ND1      -38.7590  103.9610   36.6940 N.ar  234  HIS234     -0.2268
    187  CD2      -40.4990  104.3620   37.9500 C.ar  234  HIS234      0.1154
    188  CE1      -38.7210  103.1050   37.7010 C.ar  234  HIS234      0.1986
    189  NE2      -39.7670  103.3260   38.4760 N.ar  234  HIS234     -0.2212
    190  N        -24.6650  100.2420   44.1130 N.3   255  LYS255     -0.1231
    191  CA       -24.7270   98.7960   44.2690 C.3   255  LYS255      0.1693
    192  C        -26.1650   98.3150   44.1360 C.2   255  LYS255      0.2592
    193  O        -26.4220   97.1860   43.7140 O.2   255  LYS255     -0.2718
    194  CB       -24.1420   98.3790   45.6220 C.3   255  LYS255      0.0285
    195  CG       -22.9620   99.2340   46.0810 C.3   255  LYS255      0.0035
    196  CD       -21.6580   98.8340   45.3950 C.3   255  LYS255      0.0206
    197  CE       -20.9160   97.7400   46.1650 C.3   255  LYS255      0.1093
    198  NZ       -20.5910   98.1300   47.5710 N.3   255  LYS255     -0.1314
    199  N        -27.0990   99.1930   44.4880 N.am  256  VAL256     -0.1966
    200  CA       -28.5190   98.8580   44.4880 C.3   256  VAL256      0.1727
    201  C        -29.2180   99.2670   43.1940 C.2   256  VAL256      0.2616
    202  O        -29.0950  100.4020   42.7210 O.2   256  VAL256     -0.2715
    203  CB       -29.2470   99.5110   45.6810 C.3   256  VAL256      0.0290
    204  CG1      -30.7140   99.1140   45.6930 C.3   256  VAL256      0.0023
    205  CG2      -28.5760   99.1170   46.9860 C.3   256  VAL256      0.0023
    206  N        -29.9520   98.3140   42.6340 N.am  257  ARG257     -0.1964
    207  CA       -30.7500   98.5260   41.4380 C.3   257  ARG257      0.1714
    208  C        -32.1710   98.9360   41.8100 C.2   257  ARG257      0.2458
    209  O        -32.6360   98.6240   42.9090 O.2   257  ARG257     -0.2730
    210  CB       -30.7420   97.2500   40.6040 C.3   257  ARG257      0.0347
    211  CG       -29.3390   96.8090   40.2620 C.3   257  ARG257      0.0492
    212  CD       -29.2430   95.3130   40.0610 C.3   257  ARG257      0.2205
    213  NE       -27.8590   94.8760   40.1910 N.pl3 257  ARG257     -0.0865
    214  CZ       -27.0820   94.5660   39.1600 C.cat 257  ARG257      0.5346
    215  NH1      -25.8300   94.1860   39.3650 N.pl3 257  ARG257      0.1354
    216  NH2      -27.5580   94.6500   37.9230 N.pl3 257  ARG257      0.1354
    217  N        -32.8790   99.6240   40.8980 N.am  258  PRO258     -0.2727
    218  CA       -32.5520   99.9600   39.5060 C.3   258  PRO258      0.1402
    219  C        -31.7910  101.2660   39.3280 C.2   258  PRO258      0.2269
    220  O        -31.5270  101.6580   38.1900 O.2   258  PRO258     -0.2865
    221  CB       -33.9260  100.0690   38.8560 C.3   258  PRO258      0.0296
    222  CG       -34.7670  100.6290   39.9370 C.3   258  PRO258      0.0237
    223  CD       -34.2530  100.0360   41.2340 C.3   258  PRO258      0.0939
    224  N        -28.4990  101.3250   37.4700 N.3   261  LEU261     -0.1245
    225  CA       -28.5440  101.1400   36.0260 C.3   261  LEU261      0.1561
    226  C        -28.3900  102.4510   35.2730 C.2   261  LEU261      0.2260
    227  O        -28.1260  102.4460   34.0730 O.2   261  LEU261     -0.2867
    228  CB       -29.8460  100.4580   35.6110 C.3   261  LEU261      0.0270
    229  CG       -29.9500   98.9880   36.0160 C.3   261  LEU261      0.0019
    230  CD1      -31.3470   98.4440   35.7570 C.3   261  LEU261      0.0001
    231  CD2      -28.9050   98.1660   35.2840 C.3   261  LEU261      0.0001
@<TRIPOS>BOND
     1     5     6    1
     2     5     2    1
     3     3     2    1
     4     3     4    2
     5     1     2    1
     6     8     6   ar
     7     8    10   ar
     8     6     7   ar
     9    10    11   ar
    10     7     9   ar
    11    11     9   ar
    12    11    12    1
    13    74    72    1
    14    71    70    2
    15    75    73    1
    16    73    72    1
    17    72    69    1
    18    70    69    1
    19    70    76   am
    20    69    68    1
    21    79    78    2
    22   183   182    2
    23   227   226    2
    24    78    77    1
    25    76    77    1
    26    77    80    1
    27   182   181    1
    28    82    81    2
    29   226   225    1
    30   231   229    1
    31   228   229    1
    32   228   225    1
    33   230   229    1
    34   184   181    1
    35   184   185    1
    36   181   180    1
    37    80    81    1
    38    81    83   am
    39   225   224    1
    40    62    61    2
    41   186   185   ar
    42   186   188   ar
    43    60    61    1
    44    60    59    1
    45    60    63    1
    46   185   187   ar
    47    64    63    1
    48    64    65    1
    49    67    65   am
    50    65    66    2
    51   188   189   ar
    52   216   214    1
    53   187   189   ar
    54   220   219    2
    55   221   218    1
    56   221   222    1
    57   214   215    1
    58   214   213    2
    59   219   218    1
    60   218   217    1
    61   222   223    1
    62   212   213    1
    63   212   211    1
    64    20    18    1
    65   211   210    1
    66    13    14    1
    67   210   207    1
    68    18    19    1
    69    18    17    1
    70   217   223    1
    71   217   208   am
    72   207   208    1
    73   207   206    1
    74    14    17    1
    75    14    15    1
    76   175   174    2
    77   208   209    2
    78   171   169   am
    79   179   177    1
    80   176   177    1
    81   176   173    1
    82   169   170    2
    83   169   168    1
    84   174   173    1
    85   168   165    1
    86   206   201   am
    87    15    16    2
    88   202   201    2
    89   177   178    1
    90   172   173    1
    91   172   166   am
    92    29    27   ar
    93   201   200    1
    94    28    27   ar
    95   165   166    1
    96   165   164    1
    97   166   167    2
    98   193   192    2
    99    27    26    1
   100   190   191    1
   101   192   191    1
   102   192   199   am
   103   191   194    1
   104   164   157   am
   105   199   200    1
   106   200   203    1
   107   102   101    2
   108   158   157    2
   109   101   103   am
   110   101   100    1
   111    21    22    1
   112   157   156    1
   113   100    99    1
   114    35    34    1
   115    26    25    1
   116   196   195    1
   117   196   197    1
   118   194   195    1
   119   203   204    1
   120   203   205    1
   121   121   119   ar
   122   121   120   ar
   123    25    22    1
   124   154   153    2
   125   119   117   ar
   126   197   198    1
   127   112   113    1
   128    95    96    1
   129    33    32    2
   130    22    23    1
   131    50    49    1
   132    50    51    1
   133   156   155    1
   134   156   159    1
   135   153   155   am
   136   153   152    1
   137   120   118   ar
   138    49    46    1
   139    30    23   am
   140    30    31    1
   141    51    45    1
   142    34    36    1
   143    34    31    1
   144    99    96    1
   145   127   126    1
   146   152   151    1
   147    96    97    1
   148   128   126    1
   149    23    24    2
   150   117   118   ar
   151   117   116    1
   152   113   116    1
   153   113   114    1
   154    32    31    1
   155    32    37   am
   156   151   142   am
   157   126   123    1
   158   159   160    1
   159    45    46    1
   160    45    39   am
   161    46    47    1
   162   114   115    2
   163    97    98    2
   164    37    38    1
   165   132   131    2
   166    39    38    1
   167    39    40    2
   168    38    41    1
   169   142   141    1
   170   142   143    2
   171   160   161    1
   172   146   148   ar
   173   146   145   ar
   174   123   124    1
   175   123   122    1
   176    47    48    2
   177    47    52   am
   178   148   150   ar
   179   141   144    1
   180   141   140    1
   181    58    52    1
   182    58    57    1
   183    55    54    2
   184    52    53    1
   185   124   125    2
   186   124   129   am
   187   131   140   am
   188   131   130    1
   189    42    41    1
   190    42    44    1
   191   144   145    1
   192    41    43    1
   193   161   162   ar
   194   161   163   ar
   195   145   147   ar
   196   129   130    1
   197    57    56    1
   198   150   149   ar
   199    54    53    1
   200   130   133    1
   201    53    56    1
   202   147   149   ar
   203   133   134    1
   204   110   108    1
   205   104   105    1
   206   105   108    1
   207   105   106    1
   208   108   109    1
   209   134   136   ar
   210   134   135   ar
   211   136   138   ar
   212    87    86    2
   213   106   107    2
   214    88    89    1
   215    88    85    1
   216   109   111    1
   217   135   137   ar
   218    89    90   ar
   219    89    91   ar
   220    86    85    1
   221    90    92   ar
   222   138   139   ar
   223    91    93   ar
   224    92    94   ar
   225    85    84    1
   226    93    94   ar
   227   137   139   ar
