@<TRIPOS>MOLECULE
tmp/5btuB01.pdb
 103 94 0 0 0
SMALL
GASTEIGER

@<TRIPOS>ATOM
      1  N         20.2890   14.7070   33.7630 N.3    43  GLU43      -0.1245
      2  CA        19.5800   13.8770   34.7160 C.3    43  GLU43       0.1567
      3  C         20.5160   13.2050   35.7490 C.2    43  GLU43       0.2260
      4  O         21.5750   12.6790   35.3960 O.2    43  GLU43      -0.2867
      5  CB        18.7530   12.8480   33.9580 C.3    43  GLU43       0.0388
      6  CG        18.1820   11.8000   34.8090 C.3    43  GLU43       0.1160
      7  CD        17.4390   10.7570   34.0260 C.2    43  GLU43       0.3649
      8  OE1       17.1540   10.9980   32.8380 O.co2  43  GLU43      -0.2457
      9  OE2       17.1430    9.6810   34.5950 O.co2  43  GLU43      -0.2457
     10  N         18.2230    6.6870   45.5810 N.3    48  LEU48      -0.1245
     11  CA        18.3330    5.3300   45.0930 C.3    48  LEU48       0.1561
     12  C         18.2110    4.2510   46.1190 C.2    48  LEU48       0.2260
     13  O         19.1390    4.0410   46.8460 O.2    48  LEU48      -0.2867
     14  CB        19.7360    5.0990   44.4920 C.3    48  LEU48       0.0270
     15  CG        20.1520    5.9820   43.3310 C.3    48  LEU48       0.0019
     16  CD1       21.5920    5.7260   42.9070 C.3    48  LEU48       0.0001
     17  CD2       19.1750    5.7040   42.1930 C.3    48  LEU48       0.0001
     18  N         16.3110   -1.8600   41.4740 N.3    61  VAL61      -0.1245
     19  CA        16.6230   -0.5100   41.9180 C.3    61  VAL61       0.1561
     20  C         15.3560    0.3100   41.8180 C.2    61  VAL61       0.2260
     21  O         14.6220    0.1700   40.8710 O.2    61  VAL61      -0.2867
     22  CB        17.7910    0.1280   41.1220 C.3    61  VAL61       0.0252
     23  CG1       18.2330    1.4010   41.7990 C.3    61  VAL61       0.0019
     24  CG2       18.9930   -0.8000   41.0350 C.3    61  VAL61       0.0019
     25  N         14.0940    4.3580   42.0080 N.3    63  TYR63      -0.1241
     26  CA        14.7840    5.6410   41.9570 C.3    63  TYR63       0.1605
     27  C         13.9180    6.8690   41.6960 C.2    63  TYR63       0.2264
     28  O         12.8200    6.7920   41.1620 O.2    63  TYR63      -0.2867
     29  CB        15.8930    5.5700   40.9170 C.3    63  TYR63       0.0534
     30  CG        15.4250    5.1180   39.5340 C.ar   63  TYR63      -0.0201
     31  CD1       14.9630    6.0290   38.5980 C.ar   63  TYR63      -0.0009
     32  CD2       15.4370    3.7800   39.1830 C.ar   63  TYR63      -0.0009
     33  CE1       14.5560    5.6170   37.3510 C.ar   63  TYR63       0.0417
     34  CE2       15.0230    3.3540   37.9450 C.ar   63  TYR63       0.0417
     35  CZ        14.5850    4.2650   37.0330 C.ar   63  TYR63       0.1957
     36  OH        14.1860    3.8150   35.7940 O.3    63  TYR63      -0.2866
     37  N         14.8050   10.3660   39.8770 N.3    65  GLU65      -0.1245
     38  CA        15.7910   11.1100   39.1600 C.3    65  GLU65       0.1567
     39  C         15.2340   12.4720   38.9460 C.2    65  GLU65       0.2260
     40  O         14.0450   12.7040   39.0290 O.2    65  GLU65      -0.2867
     41  CB        16.0610   10.4240   37.8570 C.3    65  GLU65       0.0388
     42  CG        16.8020    9.0840   37.9760 C.3    65  GLU65       0.1160
     43  CD        18.2970    9.2200   37.8010 C.2    65  GLU65       0.3649
     44  OE1       18.7450   10.2530   37.2610 O.co2  65  GLU65      -0.2457
     45  OE2       19.0310    8.3030   38.2180 O.co2  65  GLU65      -0.2457
     46  N         14.5890   -0.3640   38.0770 N.3    82  ALA82      -0.1245
     47  CA        15.5810   -0.9220   37.2230 C.3    82  ALA82       0.1562
     48  C         15.8110   -2.2820   37.7710 C.2    82  ALA82       0.2260
     49  O         15.7990   -2.4600   38.9670 O.2    82  ALA82      -0.2867
     50  CB        16.8390   -0.0910   37.2310 C.3    82  ALA82       0.0290
     51  N         20.3790   -3.6000   32.0890 N.3    91  GLN91      -0.1245
     52  CA        19.1660   -3.4150   32.8820 C.3    91  GLN91       0.1566
     53  C         17.9320   -3.0960   32.0830 C.2    91  GLN91       0.2260
     54  O         17.9700   -2.4000   31.0660 O.2    91  GLN91      -0.2867
     55  CB        19.3730   -2.3160   33.9100 C.3    91  GLN91       0.0367
     56  CG        20.5260   -2.6450   34.8410 C.3    91  GLN91       0.0905
     57  CD        20.9010   -1.5120   35.7510 C.2    91  GLN91       0.2608
     58  OE1       22.0630   -1.3690   36.1270 O.2    91  GLN91      -0.2717
     59  NE2       19.9240   -0.7070   36.1280 N.am   91  GLN91      -0.0878
     60  N         14.7110   -0.8340   32.4570 N.3    93  HIS93      -0.1241
     61  CA        14.2520    0.4010   33.0860 C.3    93  HIS93       0.1621
     62  C         12.8490    0.6910   32.6930 C.2    93  HIS93       0.2264
     63  O         12.4750    0.4780   31.5550 O.2    93  HIS93      -0.2867
     64  CB        15.1080    1.5900   32.6760 C.3    93  HIS93       0.0745
     65  CG        16.4380    1.5970   33.3500 C.ar   93  HIS93       0.0817
     66  ND1       16.8040    2.5700   34.2510 N.ar   93  HIS93      -0.2268
     67  CD2       17.4570    0.7070   33.3090 C.ar   93  HIS93       0.1154
     68  CE1       18.0210    2.2890   34.7140 C.ar   93  HIS93       0.1986
     69  NE2       18.4360    1.1730   34.1530 N.ar   93  HIS93      -0.2212
     70  N         18.9300   -1.3120   28.6700 N.3   110  ILE110     -0.1245
     71  CA        20.1110   -0.4980   28.6270 C.3   110  ILE110      0.1561
     72  C         21.2660   -1.4360   28.8470 C.2   110  ILE110      0.2260
     73  O         21.2390   -2.2500   29.7820 O.2   110  ILE110     -0.2867
     74  CB        20.1370    0.4680   29.8920 C.3   110  ILE110      0.0252
     75  CG1       18.8250    1.2030   30.0510 C.3   110  ILE110      0.0019
     76  CG2       21.3080    1.4100   29.8320 C.3   110  ILE110      0.0019
     77  CD1       18.8350    2.3200   31.0370 C.3   110  ILE110      0.0001
     78  N         24.4270   -0.9180   30.5070 N.3   112  CYS112     -0.1235
     79  CA        25.0490    0.0810   31.4050 C.3   112  CYS112      0.1677
     80  C         26.5220    0.2080   31.1210 C.2   112  CYS112      0.2270
     81  O         27.0660    1.2970   30.9620 O.2   112  CYS112     -0.2867
     82  CB        24.8130   -0.2940   32.8720 C.3   112  CYS112      0.0956
     83  SG        23.0700   -0.2850   33.1970 S.3   112  CYS112     -0.0801
     84  N         20.1240    8.4990   26.2900 N.3   138  LEU138     -0.1245
     85  CA        20.8410    8.6010   27.5330 C.3   138  LEU138      0.1561
     86  C         22.2720    8.4870   27.1700 C.2   138  LEU138      0.2260
     87  O         22.6250    7.5560   26.4560 O.2   138  LEU138     -0.2867
     88  CB        20.5100    7.3770   28.3810 C.3   138  LEU138      0.0270
     89  CG        19.5480    7.4920   29.5610 C.3   138  LEU138      0.0019
     90  CD1       18.4000    8.3720   29.3070 C.3   138  LEU138      0.0001
     91  CD2       19.0240    6.1310   29.8970 C.3   138  LEU138      0.0001
     92  N         23.6240   11.9980   33.4080 N.3   150  TYR150     -0.1241
     93  CA        23.2360   11.5560   32.0760 C.3   150  TYR150      0.1605
     94  C         22.7850   12.7080   31.2630 C.2   150  TYR150      0.2264
     95  O         21.9380   13.4730   31.7150 O.2   150  TYR150     -0.2867
     96  CB        22.0710   10.5940   32.1700 C.3   150  TYR150      0.0534
     97  CG        22.4230    9.3710   32.9280 C.ar  150  TYR150     -0.0201
     98  CD1       23.1030    8.3360   32.3100 C.ar  150  TYR150     -0.0009
     99  CD2       22.1070    9.2530   34.2870 C.ar  150  TYR150     -0.0009
    100  CE1       23.4420    7.1980   33.0210 C.ar  150  TYR150      0.0417
    101  CE2       22.4430    8.1370   34.9960 C.ar  150  TYR150      0.0417
    102  CZ        23.1080    7.1120   34.3670 C.ar  150  TYR150      0.1957
    103  OH        23.4470    5.9930   35.0910 O.3   150  TYR150     -0.2866
@<TRIPOS>BOND
     1    84    85    1
     2    87    86    2
     3    86    85    1
     4    85    88    1
     5    88    89    1
     6    71    70    1
     7    71    72    1
     8    71    74    1
     9    72    73    2
    10    90    89    1
    11    89    91    1
    12    76    74    1
    13    74    75    1
    14    75    77    1
    15    78    79    1
    16    81    80    2
    17    54    53    2
    18    80    79    1
    19    94    95    2
    20    94    93    1
    21    79    82    1
    22    63    62    2
    23    93    96    1
    24    93    92    1
    25    53    52    1
    26    51    52    1
    27    96    97    1
    28    98    97   ar
    29    98   100   ar
    30    60    61    1
    31    64    61    1
    32    64    65    1
    33    62    61    1
    34     8     7   ar
    35    82    83    1
    36    52    55    1
    37    97    99   ar
    38   100   102   ar
    39    67    65   ar
    40    67    69   ar
    41    65    66   ar
    42     1     2    1
    43    55    56    1
    44     5     2    1
    45     5     6    1
    46     7     9   ar
    47     7     6    1
    48    69    68   ar
    49    66    68   ar
    50    99   101   ar
    51   102   101   ar
    52   102   103    1
    53     2     3    1
    54    56    57    1
    55     4     3    2
    56    57    58    2
    57    57    59   am
    58    36    35    1
    59    35    33   ar
    60    35    34   ar
    61    47    50    1
    62    47    48    1
    63    47    46    1
    64    44    43   ar
    65    33    31   ar
    66    48    49    2
    67    43    42    1
    68    43    45   ar
    69    41    42    1
    70    41    38    1
    71    34    32   ar
    72    31    30   ar
    73    39    40    2
    74    39    38    1
    75    38    37    1
    76    32    30   ar
    77    30    29    1
    78    21    20    2
    79    29    26    1
    80    24    22    1
    81    22    23    1
    82    22    19    1
    83    28    27    2
    84    18    19    1
    85    27    26    1
    86    20    19    1
    87    26    25    1
    88    17    15    1
    89    16    15    1
    90    15    14    1
    91    14    11    1
    92    11    10    1
    93    11    12    1
    94    12    13    2
