@<TRIPOS>MOLECULE
tmp/5bu2C00.pdb
 109 103 0 0 0
SMALL
GASTEIGER

@<TRIPOS>ATOM
      1  N         36.2190   -0.3430  -38.5070 N.3    96  LYS96      -0.1245
      2  CA        35.6850    1.0100  -38.4790 C.3    96  LYS96       0.1561
      3  C         36.7350    1.9900  -37.9880 C.2    96  LYS96       0.2260
      4  O         36.9110    3.0630  -38.5550 O.2    96  LYS96      -0.2867
      5  CB        34.4850    1.0510  -37.5400 C.3    96  LYS96       0.0271
      6  CG        33.7720    2.3870  -37.4510 C.3    96  LYS96       0.0035
      7  CD        32.6750    2.2980  -36.4050 C.3    96  LYS96       0.0206
      8  CE        31.5510    3.2720  -36.7090 C.3    96  LYS96       0.1093
      9  NZ        30.2950    2.8990  -36.0040 N.3    96  LYS96      -0.1314
     10  N         39.6070    3.7120  -39.7560 N.3    99  LYS99      -0.1245
     11  CA        39.0980    4.8280  -40.5490 C.3    99  LYS99       0.1561
     12  C         39.4030    6.1500  -39.8440 C.2    99  LYS99       0.2260
     13  O         39.0750    7.2340  -40.3370 O.2    99  LYS99      -0.2867
     14  CB        37.5890    4.6380  -40.7390 C.3    99  LYS99       0.0271
     15  CG        36.8850    5.5680  -41.7090 C.3    99  LYS99       0.0035
     16  CD        35.4730    5.0730  -41.9970 C.3    99  LYS99       0.0206
     17  CE        34.5210    5.2650  -40.8190 C.3    99  LYS99       0.1093
     18  NZ        33.1640    4.6970  -41.0850 N.3    99  LYS99      -0.1314
     19  N         41.1980   13.0990  -39.2260 N.3   104  GLU104     -0.1245
     20  CA        39.9170   12.7940  -38.5840 C.3   104  GLU104      0.1567
     21  C         40.0180   12.9480  -37.0710 C.2   104  GLU104      0.2260
     22  O         39.0990   13.4600  -36.4400 O.2   104  GLU104     -0.2867
     23  CB        39.3910   11.3960  -38.9600 C.3   104  GLU104      0.0388
     24  CG        39.6510   10.9320  -40.3970 C.3   104  GLU104      0.1160
     25  CD        39.2320   11.9150  -41.4990 C.2   104  GLU104      0.3649
     26  OE1       38.0980   12.4570  -41.4460 O.co2 104  GLU104     -0.2457
     27  OE2       40.0390   12.1200  -42.4410 O.co2 104  GLU104     -0.2457
     28  N         40.0680   16.7090  -36.3420 N.3   107  LYS107     -0.1245
     29  CA        38.7000   17.2280  -36.3750 C.3   107  LYS107      0.1561
     30  C         37.9720   16.8890  -35.0750 C.2   107  LYS107      0.2260
     31  O         37.3100   17.7500  -34.5080 O.2   107  LYS107     -0.2867
     32  CB        37.9040   16.6660  -37.5560 C.3   107  LYS107      0.0271
     33  CG        38.3690   17.0810  -38.9420 C.3   107  LYS107      0.0035
     34  CD        37.6290   16.2680  -39.9970 C.3   107  LYS107      0.0206
     35  CE        38.4830   16.0360  -41.2280 C.3   107  LYS107      0.1093
     36  NZ        37.9100   15.0040  -42.1330 N.3   107  LYS107     -0.1314
     37  N         37.7910   19.4610  -44.9710 N.3   176  SER176     -0.1202
     38  CA        38.0920   19.3530  -46.4130 C.3   176  SER176      0.2020
     39  C         37.4090   20.4210  -47.2600 C.2   176  SER176      0.2618
     40  O         38.0170   20.9840  -48.1670 O.2   176  SER176     -0.2717
     41  CB        37.7380   17.9620  -46.9400 C.3   176  SER176      0.2103
     42  OG        38.4810   16.9610  -46.2580 O.3   176  SER176     -0.2182
     43  N         36.1330   20.6680  -46.9750 N.am  177  ASP177     -0.1973
     44  CA        35.3820   21.7370  -47.6260 C.3   177  ASP177      0.1709
     45  C         34.2080   22.1300  -46.7440 C.2   177  ASP177      0.2293
     46  O         34.0530   21.5820  -45.6470 O.2   177  ASP177     -0.2864
     47  CB        34.9050   21.3130  -49.0200 C.3   177  ASP177      0.1436
     48  CG        33.9640   20.1280  -48.9810 C.2   177  ASP177      0.3671
     49  OD1       33.5730   19.7000  -47.8730 O.co2 177  ASP177     -0.2456
     50  OD2       33.6090   19.6240  -50.0660 O.co2 177  ASP177     -0.2456
     51  N         31.0430   21.5180  -46.9000 N.3   179  SER179     -0.1202
     52  CA        29.9900   20.5400  -46.6440 C.3   179  SER179      0.2020
     53  C         30.3660   19.5460  -45.5390 C.2   179  SER179      0.2618
     54  O         29.4920   19.0360  -44.8310 O.2   179  SER179     -0.2717
     55  CB        29.5360   19.8460  -47.9340 C.3   179  SER179      0.2103
     56  OG        30.5810   19.1020  -48.5290 O.3   179  SER179     -0.2182
     57  N         31.6660   19.3120  -45.3720 N.am  180  GLU180     -0.1979
     58  CA        32.1740   18.5490  -44.2350 C.3   180  GLU180      0.1602
     59  C         31.9910   19.3420  -42.9480 C.2   180  GLU180      0.2287
     60  O         31.5340   18.7990  -41.9420 O.2   180  GLU180     -0.2864
     61  CB        33.6460   18.1980  -44.4320 C.3   180  GLU180      0.0415
     62  CG        34.1580   17.1620  -43.4460 C.3   180  GLU180      0.1163
     63  CD        35.5850   16.7510  -43.7390 C.2   180  GLU180      0.3649
     64  OE1       35.8130   15.5550  -43.9850 O.co2 180  GLU180     -0.2457
     65  OE2       36.4800   17.6250  -43.7440 O.co2 180  GLU180     -0.2457
     66  N         28.4920   19.1070  -41.8570 N.3   183  TYR183     -0.1227
     67  CA        28.1480   17.8630  -41.1720 C.3   183  TYR183      0.1736
     68  C         28.4390   17.9590  -39.6840 C.2   183  TYR183      0.2595
     69  O         27.6160   17.5670  -38.8670 O.2   183  TYR183     -0.2718
     70  CB        28.8840   16.6550  -41.7610 C.3   183  TYR183      0.0548
     71  CG        28.7260   15.4000  -40.9160 C.ar  183  TYR183     -0.0200
     72  CD1       27.6530   14.5430  -41.1070 C.ar  183  TYR183     -0.0009
     73  CD2       29.6460   15.0900  -39.9070 C.ar  183  TYR183     -0.0009
     74  CE1       27.5010   13.3970  -40.3330 C.ar  183  TYR183      0.0417
     75  CE2       29.5000   13.9540  -39.1190 C.ar  183  TYR183      0.0417
     76  CZ        28.4280   13.1060  -39.3350 C.ar  183  TYR183      0.1957
     77  OH        28.2780   11.9640  -38.5630 O.3   183  TYR183     -0.2866
     78  N         29.6150   18.4700  -39.3480 N.am  184  TRP184     -0.1976
     79  CA        30.0390   18.5780  -37.9520 C.3   184  TRP184      0.1640
     80  C         29.2450   19.6230  -37.1790 C.2   184  TRP184      0.2290
     81  O         28.9300   19.4190  -36.0110 O.2   184  TRP184     -0.2864
     82  CB        31.5370   18.8730  -37.8620 C.3   184  TRP184      0.0576
     83  CG        32.4050   17.7780  -38.4010 C.ar  184  TRP184      0.0006
     84  CD1       32.7910   17.6060  -39.6950 C.ar  184  TRP184      0.0946
     85  CD2       33.0010   16.7040  -37.6610 C.ar  184  TRP184      0.0152
     86  NE1       33.5890   16.4940  -39.8130 N.ar  184  TRP184     -0.2442
     87  CE2       33.7370   15.9230  -38.5790 C.ar  184  TRP184      0.0810
     88  CE3       32.9920   16.3290  -36.3140 C.ar  184  TRP184      0.0012
     89  CZ2       34.4570   14.7870  -38.1940 C.ar  184  TRP184      0.0191
     90  CZ3       33.7110   15.1980  -35.9300 C.ar  184  TRP184      0.0001
     91  CH2       34.4340   14.4440  -36.8690 C.ar  184  TRP184      0.0015
     92  N         27.4390    7.9600  -34.2080 N.3   192  SER192     -0.1202
     93  CA        27.3310    6.5350  -34.4210 C.3   192  SER192      0.2020
     94  C         28.3600    6.2280  -35.5070 C.2   192  SER192      0.2619
     95  O         28.2030    5.3000  -36.3020 O.2   192  SER192     -0.2717
     96  CB        25.9180    6.1860  -34.8830 C.3   192  SER192      0.2103
     97  OG        25.7380    4.7860  -34.9650 O.3   192  SER192     -0.2182
     98  N         29.4060    7.0540  -35.5330 N.am  193  SER193     -0.1951
     99  CA        30.5070    6.9290  -36.4690 C.3   193  SER193      0.1924
    100  C         31.7760    6.7000  -35.6710 C.2   193  SER193      0.2314
    101  O         31.7600    6.7790  -34.4400 O.2   193  SER193     -0.2863
    102  CB        30.6360    8.2020  -37.3010 C.3   193  SER193      0.2116
    103  OG        30.7630    9.3540  -36.4820 O.3   193  SER193     -0.2180
    104  N         34.2440    8.7370  -35.5130 N.3   195  SER195     -0.1217
    105  CA        34.5130   10.0180  -34.8590 C.3   195  SER195      0.1889
    106  C         33.6000   10.2800  -33.6570 C.2   195  SER195      0.2288
    107  O         34.0640   10.7210  -32.6070 O.2   195  SER195     -0.2866
    108  CB        34.3990   11.1600  -35.8660 C.3   195  SER195      0.2089
    109  OG        35.6110   11.3260  -36.5810 O.3   195  SER195     -0.2183
@<TRIPOS>BOND
     1    50    48   ar
     2    47    48    1
     3    47    44    1
     4    48    49   ar
     5    56    55    1
     6    40    39    2
     7    55    52    1
     8    44    43    1
     9    44    45    1
    10    39    43   am
    11    39    38    1
    12    41    38    1
    13    41    42    1
    14    51    52    1
    15    45    46    2
    16    52    53    1
    17    38    37    1
    18    53    57   am
    19    53    54    2
    20    57    58    1
    21    61    58    1
    22    61    62    1
    23    58    59    1
    24    64    63   ar
    25    65    63   ar
    26    63    62    1
    27    59    60    2
    28    27    25   ar
    29    36    35    1
    30    16    15    1
    31    16    17    1
    32    66    67    1
    33    70    67    1
    34    70    71    1
    35    15    14    1
    36    25    26   ar
    37    25    24    1
    38    35    34    1
    39    67    68    1
    40    72    71   ar
    41    72    74   ar
    42    18    17    1
    43    71    73   ar
    44    14    11    1
    45    11    12    1
    46    11    10    1
    47    24    23    1
    48    13    12    2
    49    74    76   ar
    50    34    33    1
    51    73    75   ar
    52    86    84   ar
    53    86    87   ar
    54    84    83   ar
    55    68    78   am
    56    68    69    2
    57    78    79    1
    58    76    75   ar
    59    76    77    1
    60    19    20    1
    61    23    20    1
    62    33    32    1
    63    20    21    1
    64    87    89   ar
    65    87    85   ar
    66     4     3    2
    67     1     2    1
    68     2     3    1
    69     2     5    1
    70    83    82    1
    71    83    85   ar
    72    89    91   ar
    73    79    82    1
    74    79    80    1
    75    85    88   ar
    76    32    29    1
    77     5     6    1
    78     6     7    1
    79   102   103    1
    80   102    99    1
    81    80    81    2
    82    21    22    2
    83    91    90   ar
    84     8     7    1
    85     8     9    1
    86   109   108    1
    87    99   100    1
    88    99    98    1
    89    29    28    1
    90    29    30    1
    91    88    90   ar
    92    95    94    2
    93   108   105    1
    94   100   101    2
    95    98    94   am
    96   104   105    1
    97    94    93    1
    98    30    31    2
    99    97    96    1
   100    96    93    1
   101   105   106    1
   102    93    92    1
   103   106   107    2
