@<TRIPOS>MOLECULE
tmp/5bu2C01.pdb
 202 196 0 0 0
SMALL
GASTEIGER

@<TRIPOS>ATOM
      1  N         32.7270   22.0770  -12.8740 N.3    68  ASN68      -0.1225
      2  CA        32.5790   20.7420  -13.4250 C.3    68  ASN68       0.1785
      3  C         32.5220   20.7130  -14.9700 C.2    68  ASN68       0.2597
      4  O         32.5730   19.6490  -15.5660 O.2    68  ASN68      -0.2718
      5  CB        31.3550   20.0520  -12.8050 C.3    68  ASN68       0.1169
      6  CG        31.4310   18.5430  -12.8950 C.2    68  ASN68       0.2627
      7  OD1       32.5040   17.9580  -12.7720 O.2    68  ASN68      -0.2716
      8  ND2       30.2930   17.9090  -13.1260 N.am   68  ASN68      -0.0877
      9  N         32.4390   21.8810  -15.6060 N.am   69  HIS69      -0.1975
     10  CA        32.3640   21.9730  -17.0700 C.3    69  HIS69       0.1656
     11  C         33.0780   23.2220  -17.6340 C.2    69  HIS69       0.2291
     12  O         32.5330   23.9640  -18.4440 O.2    69  HIS69      -0.2864
     13  CB        30.8930   21.9270  -17.5310 C.3    69  HIS69       0.0771
     14  CG        30.2550   20.5770  -17.4020 C.ar   69  HIS69       0.0820
     15  ND1       29.4960   20.2130  -16.3100 N.ar   69  HIS69      -0.2267
     16  CD2       30.2560   19.5070  -18.2300 C.ar   69  HIS69       0.1154
     17  CE1       29.0620   18.9740  -16.4660 C.ar   69  HIS69       0.1986
     18  NE2       29.5050   18.5250  -17.6250 N.ar   69  HIS69      -0.2212
     19  N         38.2040   20.5990  -17.8950 N.3    73  HIS73      -0.1241
     20  CA        37.4420   19.5330  -18.5080 C.3    73  HIS73       0.1621
     21  C         37.5180   19.5430  -20.0370 C.2    73  HIS73       0.2264
     22  O         37.7830   18.5120  -20.6670 O.2    73  HIS73      -0.2867
     23  CB        35.9940   19.6740  -18.0830 C.3    73  HIS73       0.0745
     24  CG        35.0600   18.8370  -18.8750 C.ar   73  HIS73       0.0817
     25  ND1       35.1020   17.4620  -18.8510 N.ar   73  HIS73      -0.2268
     26  CD2       34.0560   19.1730  -19.7110 C.ar   73  HIS73       0.1154
     27  CE1       34.1620   16.9860  -19.6450 C.ar   73  HIS73       0.1986
     28  NE2       33.5120   18.0040  -20.1780 N.ar   73  HIS73      -0.2212
     29  N         32.3140   21.1940  -27.1040 N.3   115  SER115     -0.1202
     30  CA        31.4110   20.1710  -26.5800 C.3   115  SER115      0.2020
     31  C         30.6390   20.5990  -25.3430 C.2   115  SER115      0.2619
     32  O         29.5580   20.0810  -25.0870 O.2   115  SER115     -0.2717
     33  CB        32.1820   18.8700  -26.3090 C.3   115  SER115      0.2103
     34  OG        33.0910   19.0460  -25.2320 O.3   115  SER115     -0.2182
     35  N         31.1770   21.5570  -24.5900 N.am  116  VAL116     -0.1965
     36  CA        30.5630   21.9820  -23.3200 C.3   116  VAL116      0.1727
     37  C         30.0550   23.4180  -23.2660 C.2   116  VAL116      0.2616
     38  O         29.4260   23.8070  -22.2740 O.2   116  VAL116     -0.2715
     39  CB        31.5290   21.8110  -22.1270 C.3   116  VAL116      0.0290
     40  CG1       30.7390   21.7640  -20.8340 C.3   116  VAL116      0.0023
     41  CG2       32.3490   20.5340  -22.2770 C.3   116  VAL116      0.0023
     42  N         30.3140   24.1910  -24.3170 N.am  117  ILE117     -0.1963
     43  CA        30.1020   25.6430  -24.2950 C.3   117  ILE117      0.1727
     44  C         28.6550   26.1270  -24.1650 C.2   117  ILE117      0.2617
     45  O         28.4010   27.2640  -23.7500 O.2   117  ILE117     -0.2715
     46  CB        30.7810   26.3250  -25.4970 C.3   117  ILE117      0.0290
     47  CG1       30.1840   25.8280  -26.8160 C.3   117  ILE117      0.0022
     48  CG2       32.2820   26.0760  -25.4190 C.3   117  ILE117      0.0023
     49  CD1       30.5420   26.6500  -28.0360 C.3   117  ILE117      0.0001
     50  N         27.7110   25.2710  -24.5140 N.am  118  GLY118     -0.1940
     51  CA        26.3150   25.6730  -24.5240 C.3   118  GLY118      0.2014
     52  C         25.6740   25.6440  -23.1540 C.2   118  GLY118      0.2638
     53  O         24.5850   26.1810  -22.9730 O.2   118  GLY118     -0.2714
     54  N         26.3600   25.0170  -22.2020 N.am  119  ARG119     -0.1977
     55  CA        25.8490   24.7970  -20.8510 C.3   119  ARG119      0.1597
     56  C         25.5340   26.0640  -20.0710 C.2   119  ARG119      0.2287
     57  O         26.3280   26.9950  -20.0560 O.2   119  ARG119     -0.2864
     58  CB        26.8510   23.9720  -20.0550 C.3   119  ARG119      0.0334
     59  CG        27.0910   22.5960  -20.6360 C.3   119  ARG119      0.0492
     60  CD        27.6270   21.6640  -19.5630 C.3   119  ARG119      0.2205
     61  NE        26.5570   21.4600  -18.6110 N.pl3 119  ARG119     -0.0865
     62  CZ        25.9290   20.3190  -18.3740 C.cat 119  ARG119      0.5346
     63  NH1       26.2750   19.1900  -18.9680 N.pl3 119  ARG119      0.1354
     64  NH2       24.9560   20.3300  -17.4940 N.pl3 119  ARG119      0.1354
     65  N         24.6890   22.9890  -14.5040 N.3   122  ASP122     -0.1239
     66  CA        25.4580   21.7600  -14.4350 C.3   122  ASP122      0.1674
     67  C         24.5660   20.5350  -14.3340 C.2   122  ASP122      0.2266
     68  O         25.0160   19.4690  -13.9160 O.2   122  ASP122     -0.2867
     69  CB        26.4260   21.7980  -13.2560 C.3   122  ASP122      0.1410
     70  CG        27.7310   21.1210  -13.5690 C.2   122  ASP122      0.3668
     71  OD1       28.5100   21.6900  -14.3650 O.co2 122  ASP122     -0.2456
     72  OD2       27.9790   20.0260  -13.0330 O.co2 122  ASP122     -0.2456
     73  N         22.4610   17.2740  -15.4490 N.3   124  SER124     -0.1202
     74  CA        22.6590   16.1920  -16.4100 C.3   124  SER124      0.2020
     75  C         21.4890   16.1280  -17.3930 C.2   124  SER124      0.2618
     76  O         20.4860   16.8330  -17.2250 O.2   124  SER124     -0.2717
     77  CB        22.8080   14.8610  -15.6770 C.3   124  SER124      0.2103
     78  OG        21.6610   14.5960  -14.8890 O.3   124  SER124     -0.2182
     79  N         21.6310   15.2890  -18.4180 N.am  125  TRP125     -0.1975
     80  CA        20.5760   15.0530  -19.4010 C.3   125  TRP125      0.1640
     81  C         19.3180   14.5200  -18.7090 C.2   125  TRP125      0.2290
     82  O         18.1970   14.9060  -19.0600 O.2   125  TRP125     -0.2864
     83  CB        21.0780   14.0690  -20.4600 C.3   125  TRP125      0.0576
     84  CG        20.1140   13.7750  -21.5690 C.ar  125  TRP125      0.0006
     85  CD1       19.8140   14.5810  -22.6330 C.ar  125  TRP125      0.0946
     86  CD2       19.3410   12.5800  -21.7400 C.ar  125  TRP125      0.0152
     87  NE1       18.8950   13.9690  -23.4480 N.ar  125  TRP125     -0.2442
     88  CE2       18.5880   12.7380  -22.9260 C.ar  125  TRP125      0.0810
     89  CE3       19.2060   11.3930  -21.0040 C.ar  125  TRP125      0.0012
     90  CZ2       17.7100   11.7490  -23.3960 C.ar  125  TRP125      0.0191
     91  CZ3       18.3330   10.4080  -21.4740 C.ar  125  TRP125      0.0001
     92  CH2       17.5970   10.5970  -22.6580 C.ar  125  TRP125      0.0015
     93  N         18.6020   20.6800  -22.5770 N.3   148  TYR148     -0.1241
     94  CA        19.7420   20.2390  -23.3830 C.3   148  TYR148      0.1605
     95  C         19.6970   20.6860  -24.8420 C.2   148  TYR148      0.2264
     96  O         20.7480   20.9470  -25.4480 O.2   148  TYR148     -0.2867
     97  CB        19.9410   18.7270  -23.2860 C.3   148  TYR148      0.0534
     98  CG        20.9960   18.3970  -22.2940 C.ar  148  TYR148     -0.0201
     99  CD1       20.7760   18.6000  -20.9470 C.ar  148  TYR148     -0.0009
    100  CD2       22.2360   17.9190  -22.7020 C.ar  148  TYR148     -0.0009
    101  CE1       21.7590   18.3320  -20.0210 C.ar  148  TYR148      0.0417
    102  CE2       23.2300   17.6270  -21.7790 C.ar  148  TYR148      0.0417
    103  CZ        22.9830   17.8410  -20.4410 C.ar  148  TYR148      0.1957
    104  OH        23.9380   17.5630  -19.4940 O.3   148  TYR148     -0.2866
    105  N         21.0650   24.0110  -24.8000 N.3   151  PHE151     -0.1227
    106  CA        22.5000   23.8780  -24.6330 C.3   151  PHE151      0.1736
    107  C         23.1550   23.5580  -25.9600 C.2   151  PHE151      0.2595
    108  O         24.0810   24.2530  -26.3810 O.2   151  PHE151     -0.2718
    109  CB        22.8000   22.7510  -23.6350 C.3   151  PHE151      0.0547
    110  CG        22.5420   23.1200  -22.1990 C.ar  151  PHE151     -0.0202
    111  CD1       21.9360   24.3340  -21.8630 C.ar  151  PHE151     -0.0042
    112  CD2       22.8770   22.2360  -21.1800 C.ar  151  PHE151     -0.0042
    113  CE1       21.6980   24.6650  -20.5370 C.ar  151  PHE151     -0.0003
    114  CE2       22.6420   22.5640  -19.8510 C.ar  151  PHE151     -0.0003
    115  CZ        22.0530   23.7770  -19.5290 C.ar  151  PHE151     -0.0000
    116  N         22.6650   22.4980  -26.6080 N.am  152  LYS152     -0.1980
    117  CA        23.2110   22.0460  -27.8840 C.3   152  LYS152      0.1596
    118  C         23.0920   23.1380  -28.9480 C.2   152  LYS152      0.2287
    119  O         24.0220   23.3470  -29.7230 O.2   152  LYS152     -0.2864
    120  CB        22.5370   20.7450  -28.3510 C.3   152  LYS152      0.0298
    121  CG        22.9500   19.4820  -27.5910 C.3   152  LYS152      0.0038
    122  CD        22.0560   18.2860  -27.9390 C.3   152  LYS152      0.0206
    123  CE        20.8800   18.1450  -26.9710 C.3   152  LYS152      0.1093
    124  NZ        19.6500   17.5270  -27.5550 N.3   152  LYS152     -0.1314
    125  N         25.7140   25.7620  -28.2540 N.3   155  ALA155     -0.1245
    126  CA        27.0600   25.3510  -28.6330 C.3   155  ALA155      0.1562
    127  C         27.2010   25.4540  -30.1380 C.2   155  ALA155      0.2260
    128  O         28.2520   25.8500  -30.6480 O.2   155  ALA155     -0.2867
    129  CB        27.3450   23.9250  -28.1850 C.3   155  ALA155      0.0290
    130  N         26.6420   18.7190  -33.9260 N.3   188  LEU188     -0.1245
    131  CA        26.6380   19.3830  -32.6200 C.3   188  LEU188      0.1561
    132  C         25.2640   19.4040  -31.9690 C.2   188  LEU188      0.2260
    133  O         25.1530   19.4710  -30.7430 O.2   188  LEU188     -0.2867
    134  CB        27.1590   20.8140  -32.7360 C.3   188  LEU188      0.0270
    135  CG        28.6670   21.0250  -32.6480 C.3   188  LEU188      0.0019
    136  CD1       29.0110   22.4270  -33.1140 C.3   188  LEU188      0.0001
    137  CD2       29.1700   20.7990  -31.2300 C.3   188  LEU188      0.0001
    138  N         34.5140   11.9940  -23.5030 N.3   203  HIS203     -0.1241
    139  CA        33.5420   12.3920  -22.4850 C.3   203  HIS203      0.1621
    140  C         33.4200   11.3340  -21.3840 C.2   203  HIS203      0.2264
    141  O         33.5460   11.6390  -20.2010 O.2   203  HIS203     -0.2867
    142  CB        32.1750   12.7050  -23.1050 C.3   203  HIS203      0.0745
    143  CG        32.0790   14.0860  -23.6790 C.ar  203  HIS203      0.0817
    144  ND1       32.3670   14.3680  -24.9970 N.ar  203  HIS203     -0.2268
    145  CD2       31.7480   15.2690  -23.1050 C.ar  203  HIS203      0.1154
    146  CE1       32.2050   15.6610  -25.2130 C.ar  203  HIS203      0.1986
    147  NE2       31.8340   16.2310  -24.0810 N.ar  203  HIS203     -0.2212
    148  N         34.3190   11.6350  -16.9690 N.3   207  LEU207     -0.1245
    149  CA        33.2920   11.5520  -15.9310 C.3   207  LEU207      0.1561
    150  C         33.7780   10.9780  -14.5840 C.2   207  LEU207      0.2260
    151  O         33.0850   11.1280  -13.5590 O.2   207  LEU207     -0.2867
    152  CB        32.0340   10.8420  -16.4370 C.3   207  LEU207      0.0270
    153  CG        31.1970   11.7370  -17.3630 C.3   207  LEU207      0.0019
    154  CD1       30.1570   10.9430  -18.1310 C.3   207  LEU207      0.0001
    155  CD2       30.5600   12.9070  -16.6080 C.3   207  LEU207      0.0001
    156  N         35.7570   12.3530  -12.9090 N.3   209  ARG209     -0.1231
    157  CA        35.8590   13.5430  -12.0720 C.3   209  ARG209      0.1694
    158  C         34.6080   13.7540  -11.2310 C.2   209  ARG209      0.2592
    159  O         34.6920   14.3460  -10.1550 O.2   209  ARG209     -0.2718
    160  CB        36.1630   14.7800  -12.9180 C.3   209  ARG209      0.0321
    161  CG        34.9460   15.3800  -13.6090 C.3   209  ARG209      0.0489
    162  CD        35.3360   16.3360  -14.7170 C.3   209  ARG209      0.2205
    163  NE        34.1510   16.9170  -15.3040 N.pl3 209  ARG209     -0.0865
    164  CZ        33.4240   16.3540  -16.2660 C.cat 209  ARG209      0.5346
    165  NH1       33.7500   15.1680  -16.7600 N.pl3 209  ARG209      0.1354
    166  NH2       32.3530   16.9950  -16.7240 N.pl3 209  ARG209      0.1354
    167  N         33.4570   13.2680  -11.6930 N.am  210  CYS210     -0.1956
    168  CA        32.2040   13.5380  -10.9600 C.3   210  CYS210      0.1843
    169  C         31.2720   12.3430  -10.7080 C.2   210  CYS210      0.2625
    170  O         30.1680   12.5170  -10.2310 O.2   210  CYS210     -0.2714
    171  CB        31.4280   14.6830  -11.6200 C.3   210  CYS210      0.0997
    172  SG        31.1380   14.4070  -13.3810 S.3   210  CYS210     -0.0797
    173  N         31.7110   11.1370  -11.0370 N.am  211  TYR211     -0.1974
    174  CA        30.9610    9.9250  -10.7190 C.3   211  TYR211      0.1639
    175  C         31.7530    9.1960   -9.6440 C.2   211  TYR211      0.2290
    176  O         32.9710    9.1490   -9.7350 O.2   211  TYR211     -0.2864
    177  CB        30.8950    9.0210  -11.9570 C.3   211  TYR211      0.0560
    178  CG        29.8360    9.3350  -13.0110 C.ar  211  TYR211     -0.0198
    179  CD1       29.1210   10.5360  -13.0110 C.ar  211  TYR211     -0.0009
    180  CD2       29.5870    8.4280  -14.0370 C.ar  211  TYR211     -0.0009
    181  CE1       28.1670   10.8040  -13.9830 C.ar  211  TYR211      0.0417
    182  CE2       28.6510    8.6920  -15.0200 C.ar  211  TYR211      0.0417
    183  CZ        27.9400    9.8720  -14.9870 C.ar  211  TYR211      0.1957
    184  OH        27.0070   10.1090  -15.9780 O.3   211  TYR211     -0.2866
    185  N         29.4420    4.0490   -9.8910 N.3   215  LYS215     -0.1245
    186  CA        28.7450    4.6640  -11.0060 C.3   215  LYS215      0.1561
    187  C         29.6500    4.7550  -12.2310 C.2   215  LYS215      0.2260
    188  O         29.2370    4.3990  -13.3350 O.2   215  LYS215     -0.2867
    189  CB        28.1990    6.0450  -10.6130 C.3   215  LYS215      0.0271
    190  CG        27.3410    6.6920  -11.6860 C.3   215  LYS215      0.0035
    191  CD        26.9110    8.1000  -11.3090 C.3   215  LYS215      0.0206
    192  CE        25.8160    8.5680  -12.2500 C.3   215  LYS215      0.1093
    193  NZ        25.4060    9.9630  -11.9300 N.3   215  LYS215     -0.1314
    194  N         30.4550    3.6910  -17.3070 N.3   220  LYS220     -0.1245
    195  CA        31.4280    4.1500  -18.2940 C.3   220  LYS220      0.1561
    196  C         32.5260    3.1530  -18.6160 C.2   220  LYS220      0.2260
    197  O         32.7970    2.8950  -19.7820 O.2   220  LYS220     -0.2867
    198  CB        32.0000    5.5020  -17.8780 C.3   220  LYS220      0.0271
    199  CG        30.9260    6.5730  -17.7540 C.3   220  LYS220      0.0035
    200  CD        30.1730    6.7730  -19.0670 C.3   220  LYS220      0.0206
    201  CE        28.8710    7.5450  -18.8790 C.3   220  LYS220      0.1093
    202  NZ        28.2620    7.9450  -20.1810 N.3   220  LYS220     -0.1314
@<TRIPOS>BOND
     1   130   131    1
     2   136   135    1
     3   134   135    1
     4   134   131    1
     5   135   137    1
     6   131   132    1
     7   132   133    2
     8   128   127    2
     9   127   126    1
    10   119   118    2
    11   118   117    1
    12   126   125    1
    13   126   129    1
    14   120   117    1
    15   120   121    1
    16    49    47    1
    17   122   121    1
    18   122   123    1
    19   117   116    1
    20   124   123    1
    21    29    30    1
    22    47    46    1
    23   116   107   am
    24    30    33    1
    25    30    31    1
    26   108   107    2
    27    33    34    1
    28   107   106    1
    29    46    48    1
    30    46    43    1
    31    96    95    2
    32    31    32    2
    33    31    35   am
    34   146   144   ar
    35   146   147   ar
    36   144   143   ar
    37    95    94    1
    38   105   106    1
    39   106   109    1
    40    35    36    1
    41    51    50    1
    42    51    52    1
    43    50    44   am
    44    42    43    1
    45    42    37   am
    46    43    44    1
    47    44    45    2
    48   147   145   ar
    49   143   142    1
    50   143   145   ar
    51   109   110    1
    52   138   139    1
    53    87    88   ar
    54    87    85   ar
    55    90    88   ar
    56    90    92   ar
    57    94    97    1
    58    94    93    1
    59    36    37    1
    60    36    39    1
    61    97    98    1
    62    37    38    2
    63    52    53    2
    64    52    54   am
    65   142   139    1
    66    88    86   ar
    67   100    98   ar
    68   100   102   ar
    69    92    91   ar
    70    85    84   ar
    71   139   140    1
    72    98    99   ar
    73    41    39    1
    74    54    55    1
    75   110   111   ar
    76   110   112   ar
    77    39    40    1
    78   111   113   ar
    79   102   103   ar
    80    86    84   ar
    81    86    89   ar
    82    84    83    1
    83    91    89   ar
    84   140   141    2
    85   112   114   ar
    86    99   101   ar
    87    55    56    1
    88    55    58    1
    89    22    21    2
    90    59    58    1
    91    59    60    1
    92   113   115   ar
    93    83    80    1
    94   103   101   ar
    95   103   104    1
    96   202   201    1
    97    28    26   ar
    98    28    27   ar
    99    56    57    2
   100    21    20    1
   101   114   115   ar
   102   197   196    2
   103    26    24   ar
   104    27    25   ar
   105    60    61    1
   106    80    81    1
   107    80    79    1
   108   200   201    1
   109   200   199    1
   110    82    81    2
   111    63    62    1
   112    24    25   ar
   113    24    23    1
   114   196   195    1
   115    61    62    2
   116    20    23    1
   117    20    19    1
   118    12    11    2
   119    79    75   am
   120    62    64    1
   121   195   198    1
   122   195   194    1
   123    16    18   ar
   124    16    14   ar
   125   154   153    1
   126   198   199    1
   127    11    10    1
   128    18    17   ar
   129    13    14    1
   130    13    10    1
   131    14    15   ar
   132    75    76    2
   133    75    74    1
   134   153   155    1
   135   153   152    1
   136    10     9    1
   137   148   149    1
   138   165   164    1
   139   166   164    1
   140    17    15   ar
   141   152   149    1
   142    74    77    1
   143    74    73    1
   144   164   163    2
   145   184   183    1
   146   149   150    1
   147    77    78    1
   148     9     3   am
   149     4     3    2
   150   163   162    1
   151   182   183   ar
   152   182   180   ar
   153   183   181   ar
   154     3     2    1
   155   162   161    1
   156   150   151    2
   157    65    66    1
   158    66    67    1
   159    66    69    1
   160    71    70   ar
   161    67    68    2
   162   180   178   ar
   163   181   179   ar
   164   161   160    1
   165    70    69    1
   166    70    72   ar
   167     2     1    1
   168     2     5    1
   169   172   171    1
   170   188   187    2
   171     8     6   am
   172   179   178   ar
   173   178   177    1
   174   160   157    1
   175   156   157    1
   176     6     5    1
   177     6     7    2
   178   192   193    1
   179   192   191    1
   180   187   186    1
   181   157   158    1
   182   177   174    1
   183   167   158   am
   184   167   168    1
   185   190   191    1
   186   190   189    1
   187   171   168    1
   188   158   159    2
   189   173   174    1
   190   173   169   am
   191   186   189    1
   192   186   185    1
   193   168   169    1
   194   174   175    1
   195   169   170    2
   196   176   175    2
