@<TRIPOS>MOLECULE
tmp/5bu2A00.pdb
 102 97 0 0 0
SMALL
GASTEIGER

@<TRIPOS>ATOM
      1  N          0.4180  -24.3510   -1.3320 N.3    96  LYS96      -0.1245
      2  CA         1.6220  -23.5210   -1.3670 C.3    96  LYS96       0.1561
      3  C          1.3690  -22.1560   -1.9830 C.2    96  LYS96       0.2260
      4  O          1.8670  -21.1480   -1.4940 O.2    96  LYS96      -0.2867
      5  CB         2.7390  -24.2100   -2.1260 C.3    96  LYS96       0.0271
      6  CG         3.3950  -25.3010   -1.3140 C.3    96  LYS96       0.0035
      7  CD         4.6550  -25.8180   -1.9610 C.3    96  LYS96       0.0206
      8  CE         4.5230  -25.8770   -3.4830 C.3    96  LYS96       0.1093
      9  NZ         5.7580  -26.4430   -4.1010 N.3    96  LYS96      -0.1314
     10  N         -0.4190  -19.5820   -0.0500 N.3    99  LYS99      -0.1245
     11  CA         0.5420  -19.0350    0.9170 C.3    99  LYS99       0.1561
     12  C          1.2950  -17.8440    0.2920 C.2    99  LYS99       0.2260
     13  O          2.2950  -17.3600    0.8350 O.2    99  LYS99      -0.2867
     14  CB         1.5310  -20.1460    1.3320 C.3    99  LYS99       0.0271
     15  CG         2.6010  -19.7790    2.3630 C.3    99  LYS99       0.0035
     16  CD         3.9730  -20.3550    2.0040 C.3    99  LYS99       0.0206
     17  CE         4.0900  -21.8500    2.2950 C.3    99  LYS99       0.1093
     18  NZ         5.4940  -22.3590    2.2550 N.3    99  LYS99      -0.1314
     19  N          5.4100  -11.3420   -0.7240 N.3   104  GLU104     -0.1245
     20  CA         6.2190  -12.3750   -1.3550 C.3   104  GLU104      0.1567
     21  C          6.1530  -12.2150   -2.8750 C.2   104  GLU104      0.2260
     22  O          7.1390  -12.4100   -3.5660 O.2   104  GLU104     -0.2867
     23  CB         5.7970  -13.7790   -0.9000 C.3   104  GLU104      0.0388
     24  CG         5.2560  -13.8760    0.5340 C.3   104  GLU104      0.1160
     25  CD         6.1290  -13.2520    1.6420 C.2   104  GLU104      0.3649
     26  OE1        7.3780  -13.3590    1.5950 O.co2 104  GLU104     -0.2457
     27  OE2        5.5540  -12.6770    2.6050 O.co2 104  GLU104     -0.2457
     28  N          8.4780   -9.1680   -3.6240 N.3   107  LYS107     -0.1245
     29  CA         9.8650   -9.6120   -3.5980 C.3   107  LYS107      0.1561
     30  C         10.2160  -10.3460   -4.8790 C.2   107  LYS107      0.2260
     31  O         11.3050  -10.1650   -5.4140 O.2   107  LYS107     -0.2867
     32  CB        10.1290  -10.5310   -2.4080 C.3   107  LYS107      0.0271
     33  CG        10.6040   -9.8120   -1.1600 C.3   107  LYS107      0.0035
     34  CD        10.9670  -10.8000   -0.0630 C.3   107  LYS107      0.0206
     35  CE         9.7330  -11.4810    0.5030 C.3   107  LYS107      0.1093
     36  NZ         9.0350  -10.5590    1.4450 N.3   107  LYS107     -0.1314
     37  N         16.5220  -12.1130    5.3940 N.3   180  GLU180     -0.1245
     38  CA        15.6390  -12.3840    4.2660 C.3   180  GLU180      0.1567
     39  C         16.2620  -11.8530    2.9930 C.2   180  GLU180      0.2260
     40  O         16.2120  -12.5080    1.9600 O.2   180  GLU180     -0.2867
     41  CB        14.2620  -11.7590    4.4630 C.3   180  GLU180      0.0388
     42  CG        13.2100  -12.3570    3.5450 C.3   180  GLU180      0.1160
     43  CD        11.8280  -11.7920    3.8000 C.2   180  GLU180      0.3649
     44  OE1       10.9090  -12.5870    4.0800 O.co2 180  GLU180     -0.2457
     45  OE2       11.6610  -10.5540    3.7350 O.co2 180  GLU180     -0.2457
     46  N         18.9330  -14.3360    1.9580 N.3   183  TYR183     -0.1227
     47  CA        18.4380  -15.5170    1.2570 C.3   183  TYR183      0.1736
     48  C         18.2520  -15.2240   -0.2390 C.2   183  TYR183      0.2595
     49  O         18.6590  -16.0160   -1.0850 O.2   183  TYR183     -0.2718
     50  CB        17.1390  -16.0120    1.9000 C.3   183  TYR183      0.0548
     51  CG        16.4730  -17.1480    1.1620 C.ar  183  TYR183     -0.0200
     52  CD1       16.8940  -18.4640    1.3390 C.ar  183  TYR183     -0.0009
     53  CD2       15.4160  -16.9040    0.2850 C.ar  183  TYR183     -0.0009
     54  CE1       16.2820  -19.5100    0.6570 C.ar  183  TYR183      0.0417
     55  CE2       14.7950  -17.9390   -0.4000 C.ar  183  TYR183      0.0417
     56  CZ        15.2280  -19.2390   -0.2140 C.ar  183  TYR183      0.1957
     57  OH        14.6060  -20.2680   -0.8940 O.3   183  TYR183     -0.2866
     58  N         17.6700  -14.0740   -0.5560 N.am  184  TRP184     -0.1976
     59  CA        17.4310  -13.7080   -1.9500 C.3   184  TRP184      0.1640
     60  C         18.7090  -13.3720   -2.7220 C.2   184  TRP184      0.2290
     61  O         18.8290  -13.6910   -3.9070 O.2   184  TRP184     -0.2864
     62  CB        16.4080  -12.5890   -2.0460 C.3   184  TRP184      0.0576
     63  CG        15.0300  -13.0780   -1.8630 C.ar  184  TRP184      0.0006
     64  CD1       14.2430  -12.9340   -0.7570 C.ar  184  TRP184      0.0946
     65  CD2       14.2590  -13.8150   -2.8110 C.ar  184  TRP184      0.0152
     66  NE1       13.0230  -13.5390   -0.9610 N.ar  184  TRP184     -0.2442
     67  CE2       13.0070  -14.0850   -2.2140 C.ar  184  TRP184      0.0810
     68  CE3       14.5130  -14.2930   -4.1040 C.ar  184  TRP184      0.0012
     69  CZ2       12.0040  -14.7990   -2.8720 C.ar  184  TRP184      0.0191
     70  CZ3       13.5200  -15.0000   -4.7590 C.ar  184  TRP184      0.0001
     71  CH2       12.2770  -15.2470   -4.1420 C.ar  184  TRP184      0.0015
     72  N         12.2990  -23.7940   -6.3890 N.3   191  SER191     -0.1202
     73  CA        11.6690  -24.9160   -5.6860 C.3   191  SER191      0.2020
     74  C         10.7660  -24.4840   -4.5090 C.2   191  SER191      0.2619
     75  O         10.2430  -25.3240   -3.7650 O.2   191  SER191     -0.2717
     76  CB        12.7350  -25.9100   -5.2090 C.3   191  SER191      0.2103
     77  OG        12.1430  -27.1480   -4.8480 O.3   191  SER191     -0.2182
     78  N         10.6020  -23.1750   -4.3440 N.am  192  SER192     -0.1937
     79  CA         9.6340  -22.6100   -3.4210 C.3   192  SER192      0.2055
     80  C          8.5480  -21.9010   -4.2270 C.2   192  SER192      0.2643
     81  O          8.6360  -21.8240   -5.4530 O.2   192  SER192     -0.2714
     82  CB        10.3140  -21.6280   -2.4830 C.3   192  SER192      0.2130
     83  OG        10.9550  -20.6100   -3.2240 O.3   192  SER192     -0.2179
     84  N          7.5340  -21.3770   -3.5500 N.am  193  ALA193     -0.1963
     85  CA         6.4360  -20.6860   -4.2370 C.3   193  ALA193      0.1728
     86  C          6.9940  -19.5510   -5.0600 C.2   193  ALA193      0.2616
     87  O          6.6310  -19.3840   -6.2220 O.2   193  ALA193     -0.2715
     88  CB         5.4040  -20.1560   -3.2510 C.3   193  ALA193      0.0334
     89  N          7.8910  -18.7900   -4.4430 N.am  194  SER194     -0.1950
     90  CA         8.5520  -17.6760   -5.1040 C.3   194  SER194      0.1924
     91  C          9.3610  -18.0930   -6.3330 C.2   194  SER194      0.2314
     92  O          9.3080  -17.4310   -7.3550 O.2   194  SER194     -0.2863
     93  CB         9.4450  -16.9380   -4.1110 C.3   194  SER194      0.2116
     94  OG         8.6670  -16.1450   -3.2430 O.3   194  SER194     -0.2180
     95  N          9.0920  -20.9250   -8.2240 N.3   196  ILE196     -0.1245
     96  CA         8.1950  -21.4250   -9.2580 C.3   196  ILE196      0.1561
     97  C          7.5080  -20.2440   -9.9390 C.2   196  ILE196      0.2260
     98  O          7.3840  -20.2140  -11.1620 O.2   196  ILE196     -0.2867
     99  CB         7.1490  -22.3970   -8.6690 C.3   196  ILE196      0.0252
    100  CG1        7.8520  -23.6020   -8.0180 C.3   196  ILE196      0.0019
    101  CG2        6.1720  -22.8540   -9.7480 C.3   196  ILE196      0.0019
    102  CD1        7.0070  -24.3510   -7.0090 C.3   196  ILE196      0.0001
@<TRIPOS>BOND
     1    98    97    2
     2    97    96    1
     3   101    99    1
     4    96    99    1
     5    96    95    1
     6    99   100    1
     7   100   102    1
     8    92    91    2
     9    72    73    1
    10    91    90    1
    11    87    86    2
    12    73    76    1
    13    73    74    1
    14    81    80    2
    15    31    30    2
    16    76    77    1
    17    90    89    1
    18    90    93    1
    19    86    89   am
    20    86    85    1
    21    30    29    1
    22    70    71   ar
    23    70    68   ar
    24    74    78   am
    25    74    75    2
    26    78    79    1
    27    85    84    1
    28    85    88    1
    29    80    84   am
    30    80    79    1
    31    71    69   ar
    32    93    94    1
    33    68    65   ar
    34     9     8    1
    35    61    60    2
    36    28    29    1
    37    29    32    1
    38    22    21    2
    39     8     7    1
    40    79    82    1
    41    83    82    1
    42    21    20    1
    43    69    67   ar
    44    65    67   ar
    45    65    63   ar
    46    60    59    1
    47    32    33    1
    48    67    66   ar
    49     5     2    1
    50     5     6    1
    51    62    59    1
    52    62    63    1
    53     3     4    2
    54     3     2    1
    55     7     6    1
    56    59    58    1
    57    63    64   ar
    58     2     1    1
    59    20    23    1
    60    20    19    1
    61    33    34    1
    62    49    48    2
    63    66    64   ar
    64    23    24    1
    65    57    56    1
    66    58    48   am
    67    55    56   ar
    68    55    53   ar
    69    48    47    1
    70    56    54   ar
    71    34    35    1
    72    10    11    1
    73    53    51   ar
    74    12    13    2
    75    12    11    1
    76    35    36    1
    77    24    25    1
    78    54    52   ar
    79    11    14    1
    80    51    52   ar
    81    51    50    1
    82    47    50    1
    83    47    46    1
    84    14    15    1
    85    26    25   ar
    86    25    27   ar
    87    40    39    2
    88    16    17    1
    89    16    15    1
    90    18    17    1
    91    39    38    1
    92    42    43    1
    93    42    41    1
    94    45    43   ar
    95    43    44   ar
    96    38    41    1
    97    38    37    1
