@<TRIPOS>MOLECULE
tmp/5bu3D00.pdb
 208 191 0 0 0
SMALL
GASTEIGER

@<TRIPOS>ATOM
      1  N        -64.6990    1.8850   -7.3840 N.3     6  ARG6       -0.1231
      2  CA       -64.0950    1.3150   -8.5690 C.3     6  ARG6        0.1694
      3  C        -62.7860    0.5730   -8.2660 C.2     6  ARG6        0.2591
      4  O        -62.4720   -0.4130   -8.9320 O.2     6  ARG6       -0.2718
      5  CB       -63.8790    2.4010   -9.6130 C.3     6  ARG6        0.0321
      6  CG       -65.1970    2.8920  -10.2200 C.3     6  ARG6        0.0489
      7  CD       -64.9730    4.1780  -10.9600 C.3     6  ARG6        0.2205
      8  NE       -64.8860    5.2950  -10.0400 N.pl3   6  ARG6       -0.0865
      9  CZ       -64.8680    6.5670  -10.4140 C.cat   6  ARG6        0.5346
     10  NH1      -64.8830    6.8890  -11.7040 N.pl3   6  ARG6        0.1354
     11  NH2      -64.8420    7.5090   -9.4860 N.pl3   6  ARG6        0.1354
     12  N        -62.0660    1.0200   -7.2390 N.am    7  ALA7       -0.1980
     13  CA       -60.8600    0.3230   -6.7740 C.3     7  ALA7        0.1597
     14  C        -61.2330   -0.9030   -5.9590 C.2     7  ALA7        0.2287
     15  O        -60.6010   -1.9530   -6.0680 O.2     7  ALA7       -0.2864
     16  CB       -59.9720    1.2590   -5.9420 C.3     7  ALA7        0.0319
     17  N        -62.3740   -3.8220   -8.4030 N.3    10  ALA10      -0.1245
     18  CA       -61.5780   -4.1320   -9.5830 C.3    10  ALA10       0.1562
     19  C        -61.1830   -5.6040   -9.6390 C.2    10  ALA10       0.2260
     20  O        -60.9660   -6.1770  -10.7150 O.2    10  ALA10      -0.2867
     21  CB       -60.3400   -3.2440   -9.6270 C.3    10  ALA10       0.0290
     22  N        -48.6400   -5.3990   -2.5250 N.3    62  GLU62      -0.1231
     23  CA       -49.1690   -4.0780   -2.2370 C.3    62  GLU62       0.1699
     24  C        -50.6630   -3.9980   -2.4530 C.2    62  GLU62       0.2592
     25  O        -51.2530   -4.7630   -3.1950 O.2    62  GLU62      -0.2718
     26  CB       -48.4600   -2.9840   -3.0700 C.3    62  GLU62       0.0402
     27  CG       -48.9730   -2.7600   -4.4430 C.3    62  GLU62       0.1161
     28  CD       -48.2740   -1.6080   -5.1800 C.2    62  GLU62       0.3649
     29  OE1      -47.5130   -0.8250   -4.5860 O.co2  62  GLU62      -0.2457
     30  OE2      -48.5460   -1.4570   -6.3710 O.co2  62  GLU62      -0.2457
     31  N        -51.2760   -3.0660   -1.7520 N.am   63  PHE63      -0.1962
     32  CA       -52.6730   -2.7990   -1.9220 C.3    63  PHE63       0.1771
     33  C        -52.9680   -1.3990   -1.4380 C.2    63  PHE63       0.2619
     34  O        -52.2300   -0.8390   -0.6420 O.2    63  PHE63      -0.2715
     35  CB       -53.5180   -3.8240   -1.1840 C.3    63  PHE63       0.0574
     36  CG       -53.1040   -4.0470    0.2390 C.ar   63  PHE63      -0.0200
     37  CD1      -52.3090   -5.1350    0.5830 C.ar   63  PHE63      -0.0042
     38  CD2      -53.5320   -3.1900    1.2360 C.ar   63  PHE63      -0.0042
     39  CE1      -51.9470   -5.3530    1.9040 C.ar   63  PHE63      -0.0003
     40  CE2      -53.1570   -3.4050    2.5680 C.ar   63  PHE63      -0.0003
     41  CZ       -52.3690   -4.4840    2.8930 C.ar   63  PHE63      -0.0000
     42  N        -54.0540   -0.8500   -1.9410 N.am   64  ALA64      -0.1977
     43  CA       -54.4660    0.5000   -1.6120 C.3    64  ALA64       0.1597
     44  C        -55.0240    0.6050   -0.1920 C.2    64  ALA64       0.2287
     45  O        -55.8130   -0.2240    0.2460 O.2    64  ALA64      -0.2864
     46  CB       -55.5040    0.9840   -2.5970 C.3    64  ALA64       0.0319
     47  N        -57.7140    5.7080   -1.8360 N.3    67  LEU67      -0.1245
     48  CA       -57.7480    5.9870   -3.2570 C.3    67  LEU67       0.1561
     49  C        -58.9060    6.9030   -3.5980 C.2    67  LEU67       0.2260
     50  O        -60.0680    6.5690   -3.3710 O.2    67  LEU67      -0.2867
     51  CB       -57.8340    4.6870   -4.0550 C.3    67  LEU67       0.0270
     52  CG       -57.6040    4.8080   -5.5520 C.3    67  LEU67       0.0019
     53  CD1      -56.8900    3.5960   -6.1630 C.3    67  LEU67       0.0001
     54  CD2      -58.9340    4.9700   -6.2650 C.3    67  LEU67       0.0001
     55  N        -60.6420    9.2700   -6.6520 N.3    69  VAL69      -0.1245
     56  CA       -60.7420    9.5320   -8.0870 C.3    69  VAL69       0.1561
     57  C        -61.3700   10.9020   -8.2910 C.2    69  VAL69       0.2260
     58  O        -62.4060   11.2250   -7.7030 O.2    69  VAL69      -0.2867
     59  CB       -61.5900    8.4610   -8.7820 C.3    69  VAL69       0.0252
     60  CG1      -61.7790    8.7770  -10.3070 C.3    69  VAL69       0.0019
     61  CG2      -61.0110    7.0590   -8.5520 C.3    69  VAL69       0.0019
     62  N        -63.0330   12.6760  -11.1620 N.3    71  ASP71      -0.1239
     63  CA       -63.6040   12.3950  -12.4740 C.3    71  ASP71       0.1674
     64  C        -63.6590   13.6210  -13.3570 C.2    71  ASP71       0.2266
     65  O        -64.0250   14.7080  -12.9160 O.2    71  ASP71      -0.2867
     66  CB       -64.9900   11.7890  -12.3170 C.3    71  ASP71       0.1410
     67  CG       -64.9360   10.3610  -11.8110 C.2    71  ASP71       0.3668
     68  OD1      -64.6830    9.4610  -12.6450 O.co2  71  ASP71      -0.2456
     69  OD2      -65.1370   10.1550  -10.6030 O.co2  71  ASP71      -0.2456
     70  N        -59.2680   12.0220  -16.3080 N.3    78  THR78      -0.1218
     71  CA       -59.6150   11.6750  -14.9460 C.3    78  THR78       0.1862
     72  C        -58.3220   11.3940  -14.1620 C.2    78  THR78       0.2287
     73  O        -57.4190   10.7480  -14.6950 O.2    78  THR78      -0.2866
     74  CB       -60.5520   10.4650  -14.9350 C.3    78  THR78       0.1770
     75  OG1      -61.8380   10.9040  -15.3780 O.3    78  THR78      -0.2211
     76  CG2      -60.6890    9.8160  -13.5190 C.3    78  THR78       0.0375
     77  N        -56.2750   10.1930  -10.3750 N.3    80  VAL80      -0.1245
     78  CA       -56.3330    9.3080   -9.2440 C.3    80  VAL80       0.1561
     79  C        -55.2160    9.6730   -8.2680 C.2    80  VAL80       0.2260
     80  O        -54.0750    9.8560   -8.6780 O.2    80  VAL80      -0.2867
     81  CB       -56.1650    7.8380   -9.6510 C.3    80  VAL80       0.0252
     82  CG1      -56.5600    6.9510   -8.4710 C.3    80  VAL80       0.0019
     83  CG2      -56.9760    7.5260  -10.8720 C.3    80  VAL80       0.0019
     84  N        -53.5530    8.0860   -4.6830 N.3    82  TYR82      -0.1241
     85  CA       -53.6090    6.9120   -3.8520 C.3    82  TYR82       0.1605
     86  C        -52.4630    6.7980   -2.8560 C.2    82  TYR82       0.2264
     87  O        -51.3640    7.3520   -3.0520 O.2    82  TYR82      -0.2867
     88  CB       -53.6800    5.6660   -4.7470 C.3    82  TYR82       0.0534
     89  CG       -52.5810    5.5150   -5.7610 C.ar   82  TYR82      -0.0201
     90  CD1      -51.4080    4.8700   -5.4440 C.ar   82  TYR82      -0.0009
     91  CD2      -52.7510    5.9550   -7.0650 C.ar   82  TYR82      -0.0009
     92  CE1      -50.3930    4.7040   -6.3790 C.ar   82  TYR82       0.0417
     93  CE2      -51.7390    5.8100   -8.0160 C.ar   82  TYR82       0.0417
     94  CZ       -50.5670    5.1560   -7.6660 C.ar   82  TYR82       0.1957
     95  OH       -49.5780    4.9790   -8.6170 O.3    82  TYR82      -0.2866
     96  N        -50.7270    3.5280   -0.7710 N.3    84  GLU84      -0.1245
     97  CA       -50.7220    2.0760   -0.6740 C.3    84  GLU84       0.1567
     98  C        -49.6850    1.6210    0.2940 C.2    84  GLU84       0.2260
     99  O        -48.7480    2.3540    0.6350 O.2    84  GLU84      -0.2867
    100  CB       -50.4940    1.4350   -2.0420 C.3    84  GLU84       0.0388
    101  CG       -49.2910    1.9230   -2.7110 C.3    84  GLU84       0.1160
    102  CD       -49.3100    1.6870   -4.1950 C.2    84  GLU84       0.3649
    103  OE1      -50.1260    0.8690   -4.6680 O.co2  84  GLU84      -0.2457
    104  OE2      -48.4670    2.3080   -4.8750 O.co2  84  GLU84      -0.2457
    105  N        -52.1810    9.2620  -10.6270 N.3   101  ALA101     -0.1245
    106  CA       -52.3340    8.6980  -11.9490 C.3   101  ALA101      0.1562
    107  C        -53.2550    9.5790  -12.7820 C.2   101  ALA101      0.2260
    108  O        -54.0990   10.2750  -12.2330 O.2   101  ALA101     -0.2867
    109  CB       -52.8740    7.3020  -11.8760 C.3   101  ALA101      0.0290
    110  N        -55.6470    9.1640  -16.3890 N.3   103  VAL103     -0.1245
    111  CA       -56.2080    8.3390  -17.4550 C.3   103  VAL103      0.1561
    112  C        -55.9090    8.9710  -18.7920 C.2   103  VAL103      0.2260
    113  O        -56.2940   10.1190  -19.0470 O.2   103  VAL103     -0.2867
    114  CB       -57.7400    8.1650  -17.3160 C.3   103  VAL103      0.0252
    115  CG1      -58.3400    7.4140  -18.5210 C.3   103  VAL103      0.0019
    116  CG2      -58.0730    7.4680  -15.9920 C.3   103  VAL103      0.0019
    117  N        -59.3540    5.2700  -22.5480 N.3   106  MET106     -0.1245
    118  CA       -60.2300    4.2630  -21.9270 C.3   106  MET106      0.1570
    119  C        -60.4960    3.0380  -22.7780 C.2   106  MET106      0.2261
    120  O        -60.6740    1.9430  -22.2370 O.2   106  MET106     -0.2867
    121  CB       -61.5760    4.8880  -21.5260 C.3   106  MET106      0.0387
    122  CG       -61.4890    5.8050  -20.3270 C.3   106  MET106      0.0595
    123  SD       -60.9340    4.9330  -18.8450 S.3   106  MET106     -0.1393
    124  CE       -62.3850    3.9290  -18.5300 C.3   106  MET106      0.0692
    125  N        -57.7300    0.6110  -21.3850 N.3   110  MET110     -0.1245
    126  CA       -57.5270    1.7880  -20.5660 C.3   110  MET110      0.1570
    127  C        -56.0230    1.9380  -20.2840 C.2   110  MET110      0.2261
    128  O        -55.3570    1.0010  -19.8320 O.2   110  MET110     -0.2867
    129  CB       -58.3250    1.7210  -19.2410 C.3   110  MET110      0.0387
    130  CG       -57.9630    2.8800  -18.2550 C.3   110  MET110      0.0595
    131  SD       -59.0120    3.0090  -16.7610 S.3   110  MET110     -0.1393
    132  CE       -58.6230    1.5440  -15.8420 C.3   110  MET110      0.0692
    133  N        -53.0860    4.3960  -18.2980 N.3   112  GLN112     -0.1245
    134  CA       -52.8260    5.4100  -17.2750 C.3   112  GLN112      0.1566
    135  C        -51.3410    5.7660  -17.1250 C.2   112  GLN112      0.2260
    136  O        -50.4700    4.8870  -17.1350 O.2   112  GLN112     -0.2867
    137  CB       -53.3190    4.9470  -15.9120 C.3   112  GLN112      0.0367
    138  CG       -54.8120    4.7670  -15.8430 C.3   112  GLN112      0.0905
    139  CD       -55.3170    4.3290  -14.4870 C.2   112  GLN112      0.2608
    140  OE1      -54.5500    4.1350  -13.5460 O.2   112  GLN112     -0.2717
    141  NE2      -56.6470    4.1930  -14.3780 N.am  112  GLN112     -0.0878
    142  N        -48.6960    6.8610  -14.4210 N.3   114  HIS114     -0.1241
    143  CA       -48.5260    6.7760  -12.9690 C.3   114  HIS114      0.1621
    144  C        -47.2160    7.3860  -12.5610 C.2   114  HIS114      0.2264
    145  O        -46.2020    7.1560  -13.2060 O.2   114  HIS114     -0.2867
    146  CB       -48.5470    5.3200  -12.4850 C.3   114  HIS114      0.0745
    147  CG       -49.9220    4.7530  -12.3650 C.ar  114  HIS114      0.0817
    148  ND1      -50.5420    4.5650  -11.1590 N.ar  114  HIS114     -0.2268
    149  CD2      -50.8090    4.3800  -13.3210 C.ar  114  HIS114      0.1154
    150  CE1      -51.7600    4.0930  -11.3690 C.ar  114  HIS114      0.1986
    151  NE2      -51.9540    4.0040  -12.6680 N.ar  114  HIS114     -0.2212
    152  N        -49.0030    2.6610  -18.2430 N.3   131  ILE131     -0.1245
    153  CA       -49.4150    1.3020  -18.0930 C.3   131  ILE131      0.1561
    154  C        -50.7990    1.0120  -18.6260 C.2   131  ILE131      0.2260
    155  O        -51.7200    1.8370  -18.5690 O.2   131  ILE131     -0.2867
    156  CB       -49.2490    0.8740  -16.6520 C.3   131  ILE131      0.0252
    157  CG1      -50.1870    1.6080  -15.7570 C.3   131  ILE131      0.0019
    158  CG2      -47.7420    1.0700  -16.1800 C.3   131  ILE131      0.0019
    159  CD1      -51.0910    0.5940  -15.1010 C.3   131  ILE131      0.0001
    160  N        -53.8790   -0.7860  -18.2350 N.3   133  CYS133     -0.1235
    161  CA       -54.7000   -1.2850  -17.1460 C.3   133  CYS133      0.1677
    162  C        -55.5970   -2.4580  -17.5610 C.2   133  CYS133      0.2270
    163  O        -55.9820   -3.2830  -16.7350 O.2   133  CYS133     -0.2867
    164  CB       -55.5690   -0.1510  -16.6210 C.3   133  CYS133      0.0956
    165  SG       -54.5770    1.2780  -16.0230 S.3   133  CYS133     -0.0801
    166  N        -53.4090   -5.3620  -17.4330 N.3   136  MET136     -0.1230
    167  CA       -53.2770   -5.7260  -16.0070 C.3   136  MET136      0.1702
    168  C        -54.4560   -6.5840  -15.5260 C.2   136  MET136      0.2592
    169  O        -54.2660   -7.5990  -14.8470 O.2   136  MET136     -0.2718
    170  CB       -53.2200   -4.4680  -15.1450 C.3   136  MET136      0.0401
    171  CG       -52.9130   -4.7420  -13.7200 C.3   136  MET136      0.0596
    172  SD       -51.1200   -4.7610  -13.5140 S.3   136  MET136     -0.1393
    173  CE       -50.7820   -3.0290  -13.6900 C.3   136  MET136      0.0692
    174  N        -55.6720   -6.1860  -15.8870 N.am  137  LEU137     -0.1980
    175  CA       -56.8420   -6.9840  -15.5170 C.3   137  LEU137      0.1596
    176  C        -56.8080   -8.3700  -16.1170 C.2   137  LEU137      0.2287
    177  O        -57.2980   -9.3300  -15.5080 O.2   137  LEU137     -0.2864
    178  CB       -58.1290   -6.3000  -15.9150 C.3   137  LEU137      0.0297
    179  CG       -58.6860   -5.2250  -14.9930 C.3   137  LEU137      0.0022
    180  CD1      -60.1480   -5.0660  -15.3800 C.3   137  LEU137      0.0001
    181  CD2      -58.5050   -5.5080  -13.4890 C.3   137  LEU137      0.0001
    182  N        -45.4070   -4.6880  -11.8130 N.3   162  LEU162     -0.1245
    183  CA       -46.7280   -4.6480  -11.1840 C.3   162  LEU162      0.1561
    184  C        -47.6440   -5.6510  -11.8250 C.2   162  LEU162      0.2260
    185  O        -47.8070   -5.6190  -13.0510 O.2   162  LEU162     -0.2867
    186  CB       -47.4310   -3.2960  -11.3600 C.3   162  LEU162      0.0270
    187  CG       -47.9430   -2.4840  -10.1860 C.3   162  LEU162      0.0019
    188  CD1      -48.8650   -1.3760  -10.7180 C.3   162  LEU162      0.0001
    189  CD2      -48.5550   -3.2800   -9.0650 C.3   162  LEU162      0.0001
    190  N        -58.1400   -5.2390   -4.3950 N.3   172  PRO172     -0.2116
    191  CA       -57.3150   -6.4130   -4.6980 C.3   172  PRO172      0.1372
    192  C        -55.8510   -6.2220   -4.2970 C.2   172  PRO172      0.2244
    193  O        -55.3890   -5.0860   -4.1640 O.2   172  PRO172     -0.2868
    194  CB       -57.4620   -6.5600   -6.2150 C.3   172  PRO172      0.0268
    195  CG       -57.8590   -5.1430   -6.6970 C.3   172  PRO172      0.0207
    196  CD       -58.6840   -4.5880   -5.6020 C.3   172  PRO172      0.0892
    197  N        -51.7710   -6.7120   -5.2010 N.3   174  TYR174     -0.1241
    198  CA       -50.8350   -6.6960   -6.3380 C.3   174  TYR174      0.1605
    199  C        -49.4850   -7.2180   -5.8960 C.2   174  TYR174      0.2264
    200  O        -49.1430   -7.0840   -4.7390 O.2   174  TYR174     -0.2867
    201  CB       -50.7280   -5.2710   -6.8940 C.3   174  TYR174      0.0534
    202  CG       -51.8840   -4.9610   -7.8020 C.ar  174  TYR174     -0.0201
    203  CD1      -53.1690   -4.6990   -7.3350 C.ar  174  TYR174     -0.0009
    204  CD2      -51.6770   -4.9780   -9.1580 C.ar  174  TYR174     -0.0009
    205  CE1      -54.2300   -4.4850   -8.2490 C.ar  174  TYR174      0.0417
    206  CE2      -52.7040   -4.7570  -10.0490 C.ar  174  TYR174      0.0417
    207  CZ       -53.9580   -4.5260   -9.6080 C.ar  174  TYR174      0.1957
    208  OH       -54.9110   -4.3230  -10.6000 O.3   174  TYR174     -0.2866
@<TRIPOS>BOND
     1   119   120    2
     2   119   118    1
     3   117   118    1
     4   118   121    1
     5   121   122    1
     6   125   126    1
     7   126   127    1
     8   126   129    1
     9   122   123    1
    10   127   128    2
    11   129   130    1
    12   113   112    2
    13   123   124    1
    14   112   111    1
    15   154   155    2
    16   154   153    1
    17   115   114    1
    18   133   134    1
    19   130   131    1
    20   152   153    1
    21   160   161    1
    22   153   156    1
    23   162   161    1
    24   162   163    2
    25   111   114    1
    26   111   110    1
    27   166   167    1
    28   114   116    1
    29   134   135    1
    30   134   137    1
    31   161   164    1
    32   136   135    2
    33   131   132    1
    34   156   158    1
    35   156   157    1
    36   164   165    1
    37    70    71    1
    38   176   175    1
    39   176   177    2
    40   167   168    1
    41   167   170    1
    42   178   175    1
    43   178   179    1
    44   137   138    1
    45   174   168   am
    46   174   175    1
    47   138   139    1
    48   157   159    1
    49   168   169    2
    50   180   179    1
    51    75    74    1
    52   170   171    1
    53   179   181    1
    54    71    74    1
    55    71    72    1
    56    74    76    1
    57    73    72    2
    58   139   141   am
    59   139   140    2
    60   142   143    1
    61   171   172    1
    62   173   172    1
    63    64    65    2
    64    64    63    1
    65   149   151   ar
    66   149   147   ar
    67   145   144    2
    68   185   184    2
    69   143   144    1
    70   143   146    1
    71   107   108    2
    72   107   106    1
    73   151   150   ar
    74    68    67   ar
    75   146   147    1
    76    63    66    1
    77    63    62    1
    78   147   148   ar
    79    66    67    1
    80   106   109    1
    81   106   105    1
    82   184   183    1
    83   182   183    1
    84    67    69   ar
    85    10     9    1
    86   150   148   ar
    87   186   183    1
    88   186   187    1
    89     7     6    1
    90     7     8    1
    91    83    81    1
    92   188   187    1
    93    20    19    2
    94   208   207    1
    95     9     8    2
    96     9    11    1
    97    77    78    1
    98    60    59    1
    99     6     5    1
   100   187   189    1
   101   206   207   ar
   102   206   204   ar
   103    81    78    1
   104    81    82    1
   105    19    18    1
   106    21    18    1
   107     5     2    1
   108   207   205   ar
   109    18    17    1
   110    78    79    1
   111   204   202   ar
   112     4     3    2
   113    59    61    1
   114    59    56    1
   115    80    79    2
   116    95    94    1
   117     2     3    1
   118     2     1    1
   119    57    56    1
   120    57    58    2
   121     3    12   am
   122   205   203   ar
   123    56    55    1
   124    93    94   ar
   125    93    91   ar
   126   202   203   ar
   127   202   201    1
   128    94    92   ar
   129    12    13    1
   130    91    89   ar
   131   201   198    1
   132    13    14    1
   133    13    16    1
   134   195   194    1
   135   195   196    1
   136    92    90   ar
   137    30    28   ar
   138   198   199    1
   139   198   197    1
   140    54    52    1
   141   194   191    1
   142    53    52    1
   143    15    14    2
   144   199   200    2
   145    89    90   ar
   146    89    88    1
   147   196   190    1
   148    52    51    1
   149    28    29   ar
   150    28    27    1
   151   104   102   ar
   152    88    85    1
   153   191   190    1
   154   191   192    1
   155    84    85    1
   156   103   102   ar
   157    27    26    1
   158   192   193    2
   159   102   101    1
   160    51    48    1
   161    85    86    1
   162    49    50    2
   163    49    48    1
   164    48    47    1
   165    25    24    2
   166    26    23    1
   167    87    86    2
   168   101   100    1
   169    46    43    1
   170    22    23    1
   171    24    23    1
   172    24    31   am
   173   100    97    1
   174    42    43    1
   175    42    33   am
   176    32    31    1
   177    32    33    1
   178    32    35    1
   179    43    44    1
   180    33    34    2
   181    35    36    1
   182    96    97    1
   183    97    98    1
   184    44    45    2
   185    36    37   ar
   186    36    38   ar
   187    98    99    2
   188    37    39   ar
   189    38    40   ar
   190    39    41   ar
   191    40    41   ar
