@<TRIPOS>MOLECULE
tmp/5bucB02.pdb
 111 107 0 0 0
SMALL
GASTEIGER

@<TRIPOS>ATOM
      1  N          1.0140    4.7710   10.8030 N.3    67  TYR67      -0.1227
      2  CA         0.3300    4.8030   12.0970 C.3    67  TYR67       0.1736
      3  C          1.1940    4.2670   13.2410 C.2    67  TYR67       0.2596
      4  O          1.2850    4.8880   14.3020 O.2    67  TYR67      -0.2718
      5  CB        -0.9860    4.0100   12.0490 C.3    67  TYR67       0.0548
      6  CG        -1.7690    4.1580   13.3440 C.ar   67  TYR67      -0.0200
      7  CD1       -2.5150    5.3050   13.5900 C.ar   67  TYR67      -0.0009
      8  CD2       -1.7390    3.1720   14.3260 C.ar   67  TYR67      -0.0009
      9  CE1       -3.2170    5.4660   14.7670 C.ar   67  TYR67       0.0417
     10  CE2       -2.4490    3.3280   15.5250 C.ar   67  TYR67       0.0417
     11  CZ        -3.1830    4.4750   15.7260 C.ar   67  TYR67       0.1957
     12  OH        -3.8830    4.6540   16.8910 O.3    67  TYR67      -0.2866
     13  N          1.8270    3.1200   13.0230 N.am   68  GLY68      -0.1957
     14  CA         2.6180    2.4780   14.0660 C.3    68  GLY68       0.1869
     15  C          3.8550    3.2750   14.4530 C.2    68  GLY68       0.2309
     16  O          4.1670    3.4340   15.6350 O.2    68  GLY68      -0.2863
     17  N          2.5450    6.6700   16.2250 N.3    71  THR71      -0.1218
     18  CA         2.0180    6.4890   17.5790 C.3    71  THR71       0.1862
     19  C          3.1330    6.0710   18.5450 C.2    71  THR71       0.2287
     20  O          3.0950    6.4200   19.7180 O.2    71  THR71      -0.2866
     21  CB         0.8550    5.4540   17.6420 C.3    71  THR71       0.1770
     22  OG1        1.2840    4.1860   17.1230 O.3    71  THR71      -0.2211
     23  CG2       -0.3330    5.9510   16.8530 C.3    71  THR71       0.0375
     24  N         -6.2280   -1.9110   19.1180 N.3   117  ASP117     -0.1239
     25  CA        -5.3810   -1.2760   18.0990 C.3   117  ASP117      0.1674
     26  C         -4.7170   -0.0000   18.6050 C.2   117  ASP117      0.2266
     27  O         -3.5340    0.2280   18.3870 O.2   117  ASP117     -0.2867
     28  CB        -6.2000   -0.9270   16.8490 C.3   117  ASP117      0.1410
     29  CG        -6.7140   -2.1480   16.0970 C.2   117  ASP117      0.3668
     30  OD1       -6.2630   -3.2980   16.3630 O.co2 117  ASP117     -0.2456
     31  OD2       -7.5660   -1.9300   15.1990 O.co2 117  ASP117     -0.2456
     32  N         -2.9480   -0.2990   22.8270 N.3   120  LEU120     -0.1231
     33  CA        -1.7660   -1.1470   23.0110 C.3   120  LEU120      0.1693
     34  C         -0.6300   -0.7740   22.0370 C.2   120  LEU120      0.2592
     35  O         -0.1580   -1.6030   21.2560 O.2   120  LEU120     -0.2718
     36  CB        -2.1640   -2.6240   22.8600 C.3   120  LEU120      0.0284
     37  CG        -3.2420   -3.0580   23.8540 C.3   120  LEU120      0.0019
     38  CD1       -3.7180   -4.4920   23.6120 C.3   120  LEU120      0.0001
     39  CD2       -2.7390   -2.9060   25.3120 C.3   120  LEU120      0.0001
     40  N         -0.1780    0.4800   22.0940 N.am  121  CYS121     -0.1956
     41  CA         0.8220    0.9510   21.1420 C.3   121  CYS121      0.1843
     42  C          2.2490    0.5780   21.5410 C.2   121  CYS121      0.2625
     43  O          2.5410    0.2080   22.6900 O.2   121  CYS121     -0.2714
     44  CB         0.7260    2.4740   20.9510 C.3   121  CYS121      0.0997
     45  SG         1.3520    3.4370   22.3620 S.3   121  CYS121     -0.0797
     46  N          3.1460    0.6690   20.5690 N.am  122  GLN122     -0.1977
     47  CA         4.5510    0.4160   20.8170 C.3   122  GLN122      0.1601
     48  C          5.0800    1.4410   21.8220 C.2   122  GLN122      0.2287
     49  O          4.7130    2.6180   21.7700 O.2   122  GLN122     -0.2864
     50  CB         5.3420    0.4490   19.5050 C.3   122  GLN122      0.0394
     51  CG         6.7770   -0.0520   19.6410 C.3   122  GLN122      0.0908
     52  CD         7.4610   -0.1840   18.2950 C.2   122  GLN122      0.2608
     53  OE1        6.8210   -0.0560   17.2480 O.2   122  GLN122     -0.2717
     54  NE2        8.7650   -0.4400   18.3140 N.am  122  GLN122     -0.0878
     55  N          4.3540   -2.9680   24.3090 N.3   126  PHE126     -0.1241
     56  CA         5.4680   -3.7990   23.8540 C.3   126  PHE126      0.1605
     57  C          6.5660   -2.8970   23.3140 C.2   126  PHE126      0.2264
     58  O          6.3330   -1.7140   23.0490 O.2   126  PHE126     -0.2867
     59  CB         5.0190   -4.7760   22.7580 C.3   126  PHE126      0.0534
     60  CG         4.6190   -4.0910   21.4790 C.ar  126  PHE126     -0.0203
     61  CD1        3.3350   -3.5870   21.3160 C.ar  126  PHE126     -0.0042
     62  CD2        5.5350   -3.9210   20.4510 C.ar  126  PHE126     -0.0042
     63  CE1        2.9660   -2.9370   20.1340 C.ar  126  PHE126     -0.0003
     64  CE2        5.1810   -3.2710   19.2710 C.ar  126  PHE126     -0.0003
     65  CZ         3.8970   -2.7770   19.1100 C.ar  126  PHE126     -0.0000
     66  N         10.3460   -3.3420   20.6200 N.3   128  ILE128     -0.1245
     67  CA        11.1190   -4.2230   19.7530 C.3   128  ILE128      0.1561
     68  C         12.6020   -4.0330   20.0540 C.2   128  ILE128      0.2260
     69  O         13.1890   -3.0480   19.6220 O.2   128  ILE128     -0.2867
     70  CB        10.8630   -3.9270   18.2620 C.3   128  ILE128      0.0252
     71  CG1        9.3570   -3.9010   17.9540 C.3   128  ILE128      0.0019
     72  CG2       11.6580   -4.8920   17.3630 C.3   128  ILE128      0.0019
     73  CD1        8.6530   -5.2280   18.1010 C.3   128  ILE128      0.0001
     74  N          8.7040   -8.2250   23.7750 N.3   131  PHE131     -0.1227
     75  CA         7.3700   -8.7490   23.5040 C.3   131  PHE131      0.1736
     76  C          7.2490  -10.2170   23.9060 C.2   131  PHE131      0.2595
     77  O          8.2130  -10.8290   24.3680 O.2   131  PHE131     -0.2718
     78  CB         6.9910   -8.5510   22.0310 C.3   131  PHE131      0.0547
     79  CG         7.9970   -9.1090   21.0420 C.ar  131  PHE131     -0.0202
     80  CD1        8.9870   -8.3000   20.5070 C.ar  131  PHE131     -0.0042
     81  CD2        7.9200  -10.4250   20.6240 C.ar  131  PHE131     -0.0042
     82  CE1        9.8970   -8.8000   19.5790 C.ar  131  PHE131     -0.0003
     83  CE2        8.8340  -10.9420   19.6940 C.ar  131  PHE131     -0.0003
     84  CZ         9.8170  -10.1280   19.1760 C.ar  131  PHE131     -0.0000
     85  N          6.0440  -10.7580   23.7450 N.am  132  TYR132     -0.1976
     86  CA         5.6490  -12.0220   24.3610 C.3   132  TYR132      0.1639
     87  C          6.1040  -12.0360   25.8240 C.2   132  TYR132      0.2290
     88  O          5.7380  -11.1380   26.5870 O.2   132  TYR132     -0.2864
     89  CB         6.1820  -13.2110   23.5440 C.3   132  TYR132      0.0560
     90  CG         5.4090  -13.3930   22.2450 C.ar  132  TYR132     -0.0198
     91  CD1        4.0340  -13.5960   22.2720 C.ar  132  TYR132     -0.0009
     92  CD2        6.0420  -13.3430   21.0020 C.ar  132  TYR132     -0.0009
     93  CE1        3.3060  -13.7470   21.1120 C.ar  132  TYR132      0.0417
     94  CE2        5.3090  -13.5030   19.8110 C.ar  132  TYR132      0.0417
     95  CZ         3.9340  -13.7030   19.8860 C.ar  132  TYR132      0.1957
     96  OH         3.1580  -13.8620   18.7520 O.3   132  TYR132     -0.2866
     97  N         -1.8320  -13.6350   20.0360 N.3   174  GLY174     -0.1225
     98  CA        -1.4060  -12.5970   19.1130 C.3   174  GLY174      0.1811
     99  C         -1.4050  -11.2170   19.7460 C.2   174  GLY174      0.2280
    100  O         -0.5870  -10.3670   19.3870 O.2   174  GLY174     -0.2866
    101  N          1.4890  -11.3210   23.5510 N.3   178  PHE178     -0.1241
    102  CA         2.4910  -10.5070   22.8710 C.3   178  PHE178      0.1605
    103  C          2.8580   -9.2890   23.6890 C.2   178  PHE178      0.2264
    104  O          4.0160   -8.8660   23.7000 O.2   178  PHE178     -0.2867
    105  CB         1.9980  -10.0630   21.4840 C.3   178  PHE178      0.0534
    106  CG         3.0240   -9.3050   20.6840 C.ar  178  PHE178     -0.0203
    107  CD1        3.9660   -9.9820   19.9140 C.ar  178  PHE178     -0.0042
    108  CD2        3.0370   -7.9180   20.6790 C.ar  178  PHE178     -0.0042
    109  CE1        4.9120   -9.2780   19.1710 C.ar  178  PHE178     -0.0003
    110  CE2        3.9750   -7.2170   19.9360 C.ar  178  PHE178     -0.0003
    111  CZ         4.9080   -7.8900   19.1820 C.ar  178  PHE178     -0.0000
@<TRIPOS>BOND
     1     1     2    1
     2     5     2    1
     3     5     6    1
     4     2     3    1
     5    13     3   am
     6    13    14    1
     7     3     4    2
     8     6     7   ar
     9     6     8   ar
    10     7     9   ar
    11    14    15    1
    12     8    10   ar
    13    15    16    2
    14     9    11   ar
    15    31    29   ar
    16    10    11   ar
    17    11    12    1
    18    29    30   ar
    19    29    28    1
    20    17    18    1
    21    28    25    1
    22    23    21    1
    23    22    21    1
    24    53    52    2
    25    72    70    1
    26    18    21    1
    27    18    19    1
    28    71    73    1
    29    71    70    1
    30    25    26    1
    31    25    24    1
    32    70    67    1
    33    52    54   am
    34    52    51    1
    35    27    26    2
    36    19    20    2
    37    96    95    1
    38    65    64   ar
    39    65    63   ar
    40    98    99    1
    41    98    97    1
    42   109   111   ar
    43   109   107   ar
    44    84    82   ar
    45    84    83   ar
    46   111   110   ar
    47    64    62   ar
    48   100    99    2
    49    50    51    1
    50    50    47    1
    51    82    80   ar
    52    69    68    2
    53    83    81   ar
    54    67    68    1
    55    67    66    1
    56    94    95   ar
    57    94    92   ar
    58    95    93   ar
    59   107   106   ar
    60   110   108   ar
    61    63    61   ar
    62    62    60   ar
    63    80    79   ar
    64    46    47    1
    65    46    42   am
    66    81    79   ar
    67   108   106   ar
    68   106   105    1
    69    47    48    1
    70    44    41    1
    71    44    45    1
    72    92    90   ar
    73    79    78    1
    74    93    91   ar
    75    41    42    1
    76    41    40    1
    77    35    34    2
    78    61    60   ar
    79    60    59    1
    80   105   102    1
    81    42    43    2
    82    49    48    2
    83    78    75    1
    84    34    40   am
    85    34    33    1
    86    90    91   ar
    87    90    89    1
    88    59    56    1
    89    32    33    1
    90    36    33    1
    91    36    37    1
    92   102   101    1
    93   102   103    1
    94    58    57    2
    95    57    56    1
    96    75    74    1
    97    75    76    1
    98    89    86    1
    99    38    37    1
   100   103   104    2
   101    85    76   am
   102    85    86    1
   103    56    55    1
   104    37    39    1
   105    76    77    2
   106    86    87    1
   107    87    88    2
