@<TRIPOS>MOLECULE
tmp/5bucA01.pdb
 103 98 0 0 0
SMALL
GASTEIGER

@<TRIPOS>ATOM
      1  N        -30.9640   -5.5360   21.2100 N.3    66  ASN66      -0.1225
      2  CA       -30.0940   -6.6090   20.7190 C.3    66  ASN66       0.1785
      3  C        -29.7110   -6.2800   19.2760 C.2    66  ASN66       0.2597
      4  O        -30.5460   -6.3700   18.3790 O.2    66  ASN66      -0.2718
      5  CB       -30.7940   -7.9830   20.7910 C.3    66  ASN66       0.1169
      6  CG       -29.8820   -9.1500   20.3680 C.2    66  ASN66       0.2627
      7  OD1      -29.2840   -9.1480   19.2830 O.2    66  ASN66      -0.2716
      8  ND2      -29.7700  -10.1500   21.2370 N.am   66  ASN66      -0.0877
      9  N        -28.4590   -5.8890   19.0620 N.am   67  TYR67      -0.1962
     10  CA       -28.0070   -5.4190   17.7520 C.3    67  TYR67       0.1771
     11  C        -28.2580   -6.4400   16.6360 C.2    67  TYR67       0.2620
     12  O        -28.7280   -6.0840   15.5500 O.2    67  TYR67      -0.2715
     13  CB       -26.5160   -5.0600   17.8050 C.3    67  TYR67       0.0574
     14  CG       -26.0250   -4.4590   16.5160 C.ar   67  TYR67      -0.0198
     15  CD1      -26.1620   -3.0940   16.2650 C.ar   67  TYR67      -0.0009
     16  CD2      -25.4450   -5.2600   15.5310 C.ar   67  TYR67      -0.0009
     17  CE1      -25.7260   -2.5380   15.0560 C.ar   67  TYR67       0.0417
     18  CE2      -25.0010   -4.7170   14.3260 C.ar   67  TYR67       0.0417
     19  CZ       -25.1480   -3.3650   14.0920 C.ar   67  TYR67       0.1957
     20  OH       -24.6990   -2.8460   12.8990 O.3    67  TYR67      -0.2866
     21  N        -27.9310   -7.7050   16.8970 N.am   68  GLY68      -0.1940
     22  CA       -28.0880   -8.7540   15.9090 C.3    68  GLY68       0.2014
     23  C        -29.5240   -8.9170   15.4610 C.2    68  GLY68       0.2638
     24  O        -29.8360   -8.9540   14.2690 O.2    68  GLY68      -0.2714
     25  N        -30.4180   -9.0130   16.4340 N.am   69  VAL69      -0.1977
     26  CA       -31.8290   -9.1380   16.1440 C.3    69  VAL69       0.1596
     27  C        -32.3540   -7.8860   15.4520 C.2    69  VAL69       0.2287
     28  O        -33.0820   -7.9750   14.4640 O.2    69  VAL69      -0.2864
     29  CB       -32.6330   -9.4090   17.4430 C.3    69  VAL69       0.0276
     30  CG1      -34.1240   -9.4590   17.1560 C.3    69  VAL69       0.0022
     31  CG2      -32.1490  -10.7060   18.1010 C.3    69  VAL69       0.0022
     32  N        -30.8470   -5.6200   13.6260 N.3    71  THR71      -0.1218
     33  CA       -30.3730   -5.3890   12.2670 C.3    71  THR71       0.1862
     34  C        -30.9670   -6.4520   11.3290 C.2    71  THR71       0.2287
     35  O        -31.2440   -6.1660   10.1540 O.2    71  THR71      -0.2866
     36  CB       -28.8250   -5.3700   12.1980 C.3    71  THR71       0.1770
     37  OG1      -28.2840   -6.5220   12.8620 O.3    71  THR71      -0.2211
     38  CG2      -28.2970   -4.1100   12.8610 C.3    71  THR71       0.0375
     39  N        -18.7190   -6.4230   10.7980 N.3   117  ASP117     -0.1239
     40  CA       -19.7630   -6.4860   11.8210 C.3   117  ASP117      0.1674
     41  C        -21.0790   -5.8990   11.3420 C.2   117  ASP117      0.2266
     42  O        -22.1430   -6.4510   11.6220 O.2   117  ASP117     -0.2867
     43  CB       -19.3690   -5.7160   13.1030 C.3   117  ASP117      0.1410
     44  CG       -18.1590   -6.3000   13.8220 C.2   117  ASP117      0.3668
     45  OD1      -17.7480   -7.4550   13.5520 O.co2 117  ASP117     -0.2456
     46  OD2      -17.6120   -5.5700   14.6790 O.co2 117  ASP117     -0.2456
     47  N        -22.3330   -7.3340    7.1430 N.3   120  LEU120     -0.1231
     48  CA       -22.7020   -8.7400    6.9890 C.3   120  LEU120      0.1693
     49  C        -23.7540   -9.1600    8.0020 C.2   120  LEU120      0.2592
     50  O        -23.5160  -10.0530    8.8100 O.2   120  LEU120     -0.2718
     51  CB       -21.4590   -9.6180    7.1230 C.3   120  LEU120      0.0284
     52  CG       -20.2830   -9.2860    6.2010 C.3   120  LEU120      0.0019
     53  CD1      -19.0910  -10.1660    6.5570 C.3   120  LEU120      0.0001
     54  CD2      -20.6610   -9.4470    4.7090 C.3   120  LEU120      0.0001
     55  N        -24.9200   -8.5190    7.9650 N.am  121  CYS121     -0.1956
     56  CA       -25.9570   -8.7870    8.9560 C.3   121  CYS121      0.1843
     57  C        -26.7710  -10.0200    8.5810 C.2   121  CYS121      0.2625
     58  O        -26.7350  -10.4980    7.4360 O.2   121  CYS121     -0.2714
     59  CB       -26.8840   -7.5720    9.1310 C.3   121  CYS121      0.0997
     60  SG       -28.0260   -7.2460    7.7230 S.3   121  CYS121     -0.0797
     61  N        -27.4780  -10.5600    9.5630 N.am  122  GLN122     -0.1977
     62  CA       -28.3790  -11.6750    9.3190 C.3   122  GLN122      0.1601
     63  C        -29.4710  -11.2500    8.3360 C.2   122  GLN122      0.2287
     64  O        -29.9980  -10.1330    8.4130 O.2   122  GLN122     -0.2864
     65  CB       -28.9890  -12.1710   10.6280 C.3   122  GLN122      0.0394
     66  CG       -29.6000  -13.5490   10.5110 C.3   122  GLN122      0.0908
     67  CD       -30.1110  -14.0790   11.8350 C.2   122  GLN122      0.2608
     68  OE1      -29.7680  -13.5630   12.9020 O.2   122  GLN122     -0.2717
     69  NE2      -30.9400  -15.1140   11.7720 N.am  122  GLN122     -0.0878
     70  N        -26.0920  -14.1290    5.8980 N.3   126  PHE126     -0.1241
     71  CA       -26.3900  -15.4810    6.3440 C.3   126  PHE126      0.1605
     72  C        -27.7690  -15.4770    6.9680 C.2   126  PHE126      0.2264
     73  O        -28.3230  -14.4220    7.2540 O.2   126  PHE126     -0.2867
     74  CB       -25.3730  -15.9590    7.3780 C.3   126  PHE126      0.0534
     75  CG       -25.7040  -15.4880    8.7650 C.ar  126  PHE126     -0.0203
     76  CD1      -25.3120  -14.2320    9.1900 C.ar  126  PHE126     -0.0042
     77  CD2      -26.4630  -16.2710    9.6140 C.ar  126  PHE126     -0.0042
     78  CE1      -25.6480  -13.7740   10.4460 C.ar  126  PHE126     -0.0003
     79  CE2      -26.8030  -15.8180   10.8750 C.ar  126  PHE126     -0.0003
     80  CZ       -26.3910  -14.5650   11.2860 C.ar  126  PHE126     -0.0000
     81  N        -30.8170  -18.3830    9.2310 N.3   128  ILE128     -0.1245
     82  CA       -31.2450  -19.7220    9.6150 C.3   128  ILE128      0.1561
     83  C        -32.4110  -20.0960    8.7250 C.2   128  ILE128      0.2260
     84  O        -33.5240  -19.6140    8.9440 O.2   128  ILE128     -0.2867
     85  CB       -31.6940  -19.8000   11.0700 C.3   128  ILE128      0.0252
     86  CG1      -30.7060  -19.0630   11.9670 C.3   128  ILE128      0.0019
     87  CG2      -31.8670  -21.2640   11.4750 C.3   128  ILE128      0.0019
     88  CD1      -29.3660  -19.7190   12.0300 C.3   128  ILE128      0.0001
     89  N        -14.5810  -18.3290   10.0530 N.3   174  GLY174     -0.1225
     90  CA       -15.6120  -17.7970   10.9160 C.3   174  GLY174      0.1811
     91  C        -16.4440  -16.6880   10.2950 C.2   174  GLY174      0.2280
     92  O        -17.5850  -16.4750   10.6860 O.2   174  GLY174     -0.2866
     93  N        -18.4970  -18.6610    6.5570 N.3   178  PHE178     -0.1241
     94  CA       -19.7720  -18.6720    7.2590 C.3   178  PHE178      0.1605
     95  C        -20.8600  -17.9950    6.4400 C.2   178  PHE178      0.2264
     96  O        -22.0240  -18.4160    6.4670 O.2   178  PHE178     -0.2867
     97  CB       -19.6560  -17.9870    8.6230 C.3   178  PHE178      0.0534
     98  CG       -20.8940  -18.1190    9.4670 C.ar  178  PHE178     -0.0203
     99  CD1      -21.0280  -19.1720   10.3540 C.ar  178  PHE178     -0.0042
    100  CD2      -21.9160  -17.1850    9.3800 C.ar  178  PHE178     -0.0042
    101  CE1      -22.1670  -19.3060   11.1440 C.ar  178  PHE178     -0.0003
    102  CE2      -23.0560  -17.3040   10.1700 C.ar  178  PHE178     -0.0003
    103  CZ       -23.1830  -18.3730   11.0490 C.ar  178  PHE178     -0.0000
@<TRIPOS>BOND
     1    54    52    1
     2    70    71    1
     3    52    53    1
     4    52    51    1
     5    71    72    1
     6    71    74    1
     7    95    96    2
     8    95    94    1
     9    93    94    1
    10    72    73    2
    11    48    51    1
    12    48    47    1
    13    48    49    1
    14    94    97    1
    15    74    75    1
    16    58    57    2
    17    60    59    1
    18    55    49   am
    19    55    56    1
    20    49    50    2
    21    63    64    2
    22    63    62    1
    23    57    56    1
    24    57    61   am
    25    97    98    1
    26    83    84    2
    27    83    82    1
    28    75    76   ar
    29    75    77   ar
    30    56    59    1
    31    76    78   ar
    32    81    82    1
    33    62    61    1
    34    62    65    1
    35   100    98   ar
    36   100   102   ar
    37    98    99   ar
    38    77    79   ar
    39    82    85    1
    40    89    90    1
    41    35    34    2
    42   102   103   ar
    43    91    92    2
    44    91    90    1
    45    99   101   ar
    46    78    80   ar
    47    66    65    1
    48    66    67    1
    49    39    40    1
    50    79    80   ar
    51   103   101   ar
    52    85    87    1
    53    85    86    1
    54    34    33    1
    55    41    42    2
    56    41    40    1
    57    69    67   am
    58    40    43    1
    59    67    68    2
    60    86    88    1
    61    36    33    1
    62    36    38    1
    63    36    37    1
    64    33    32    1
    65    20    19    1
    66    43    44    1
    67    45    44   ar
    68    44    46   ar
    69    19    18   ar
    70    19    17   ar
    71    24    23    2
    72    18    16   ar
    73    28    27    2
    74    17    15   ar
    75    27    26    1
    76    23    22    1
    77    23    25   am
    78    16    14   ar
    79    12    11    2
    80    22    21    1
    81    26    25    1
    82    26    29    1
    83    15    14   ar
    84    14    13    1
    85    11    21   am
    86    11    10    1
    87    30    29    1
    88    29    31    1
    89    10    13    1
    90    10     9    1
    91     4     3    2
    92     9     3   am
    93     3     2    1
    94     7     6    2
    95     6     5    1
    96     6     8   am
    97     2     5    1
    98     2     1    1
