@<TRIPOS>MOLECULE
tmp/5bucA02.pdb
 90 90 0 0 0
SMALL
GASTEIGER

@<TRIPOS>ATOM
      1  N         -3.4290   -6.1820   11.8820 N.3   104  TYR104     -0.1227
      2  CA        -3.4930   -5.5090   13.1960 C.3   104  TYR104      0.1736
      3  C         -3.8980   -6.5480   14.2470 C.2   104  TYR104      0.2595
      4  O         -5.0410   -7.0120   14.2450 O.2   104  TYR104     -0.2718
      5  CB        -4.5370   -4.3660   13.2280 C.3   104  TYR104      0.0548
      6  CG        -4.1300   -3.0190   12.6560 C.ar  104  TYR104     -0.0200
      7  CD1       -3.0650   -2.8950   11.7730 C.ar  104  TYR104     -0.0009
      8  CD2       -4.8290   -1.8650   13.0140 C.ar  104  TYR104     -0.0009
      9  CE1       -2.7090   -1.6410   11.2570 C.ar  104  TYR104      0.0417
     10  CE2       -4.4800   -0.6310   12.5240 C.ar  104  TYR104      0.0417
     11  CZ        -3.4260   -0.5200   11.6360 C.ar  104  TYR104      0.1957
     12  OH        -3.0880    0.7260   11.1510 O.3   104  TYR104     -0.2866
     13  N         -2.9860   -6.8890   15.1470 N.am  105  TRP105     -0.1962
     14  CA        -3.2490   -7.8550   16.2240 C.3   105  TRP105      0.1771
     15  C         -3.8430   -9.1690   15.6920 C.2   105  TRP105      0.2619
     16  O         -4.9090   -9.6430   16.1360 O.2   105  TRP105     -0.2715
     17  CB        -4.1510   -7.2240   17.2950 C.3   105  TRP105      0.0590
     18  CG        -3.4580   -6.0990   18.0320 C.ar  105  TRP105      0.0006
     19  CD1       -3.8730   -4.8030   18.1250 C.ar  105  TRP105      0.0946
     20  CD2       -2.2160   -6.1730   18.7510 C.ar  105  TRP105      0.0152
     21  NE1       -2.9760   -4.0670   18.8570 N.ar  105  TRP105     -0.2442
     22  CE2       -1.9530   -4.8820   19.2620 C.ar  105  TRP105      0.0810
     23  CE3       -1.3170   -7.2110   19.0350 C.ar  105  TRP105      0.0012
     24  CZ2       -0.8160   -4.5920   20.0280 C.ar  105  TRP105      0.0191
     25  CZ3       -0.1810   -6.9250   19.8100 C.ar  105  TRP105      0.0001
     26  CH2        0.0560   -5.6230   20.2910 C.ar  105  TRP105      0.0015
     27  N         -3.1150   -9.7490   14.7370 N.am  106  PHE106     -0.1974
     28  CA        -3.4490  -11.0420   14.1520 C.3   106  PHE106      0.1639
     29  C         -4.8330  -10.9920   13.5100 C.2   106  PHE106      0.2290
     30  O         -5.4910  -12.0220   13.3790 O.2   106  PHE106     -0.2864
     31  CB        -3.4030  -12.1700   15.2040 C.3   106  PHE106      0.0560
     32  CG        -2.0150  -12.7540   15.4540 C.ar  106  PHE106     -0.0200
     33  CD1       -0.8700  -11.9990   15.2770 C.ar  106  PHE106     -0.0042
     34  CD2       -1.8760  -14.0780   15.8890 C.ar  106  PHE106     -0.0042
     35  CE1        0.4070  -12.5460   15.5300 C.ar  106  PHE106     -0.0003
     36  CE2       -0.6170  -14.6290   16.1390 C.ar  106  PHE106     -0.0003
     37  CZ         0.5280  -13.8590   15.9560 C.ar  106  PHE106     -0.0000
     38  N          3.8500   -7.0870    9.6040 N.3   149  GLY149     -0.1210
     39  CA         5.1070   -6.5900   10.1260 C.3   149  GLY149      0.1956
     40  C          6.1130   -7.7310   10.2260 C.2   149  GLY149      0.2612
     41  O          7.2880   -7.5530    9.9230 O.2   149  GLY149     -0.2717
     42  N          5.6430   -8.9060   10.6410 N.am  150  GLY150     -0.1956
     43  CA         6.5090  -10.0590   10.8370 C.3   150  GLY150      0.1869
     44  C          6.9030  -10.7420    9.5390 C.2   150  GLY150      0.2309
     45  O          6.1450  -10.7430    8.5680 O.2   150  GLY150     -0.2863
     46  N          9.0670  -15.7220   10.8990 N.3   154  MET154     -0.1230
     47  CA         8.4500  -15.5450   12.2170 C.3   154  MET154      0.1702
     48  C          7.0750  -16.1910   12.2800 C.2   154  MET154      0.2592
     49  O          6.5530  -16.4410   13.3680 O.2   154  MET154     -0.2718
     50  CB         8.3430  -14.0660   12.5750 C.3   154  MET154      0.0401
     51  CG         9.6760  -13.3430   12.6010 C.3   154  MET154      0.0596
     52  SD         9.4990  -11.6200   13.0760 S.3   154  MET154     -0.1393
     53  CE        10.5410  -10.8230   11.8650 C.3   154  MET154      0.0692
     54  N          6.4950  -16.4710   11.1140 N.am  155  TYR155     -0.1976
     55  CA         5.1730  -17.0890   11.0460 C.3   155  TYR155      0.1639
     56  C          5.2170  -18.5660   10.6280 C.2   155  TYR155      0.2290
     57  O          4.5800  -18.9680    9.6530 O.2   155  TYR155     -0.2864
     58  CB         4.2630  -16.2920   10.0920 C.3   155  TYR155      0.0560
     59  CG         3.7430  -15.0000   10.7080 C.ar  155  TYR155     -0.0198
     60  CD1        2.7060  -15.0260   11.6420 C.ar  155  TYR155     -0.0009
     61  CD2        4.2880  -13.7640   10.3700 C.ar  155  TYR155     -0.0009
     62  CE1        2.2260  -13.8600   12.2190 C.ar  155  TYR155      0.0417
     63  CE2        3.8070  -12.5790   10.9530 C.ar  155  TYR155      0.0417
     64  CZ         2.7750  -12.6440   11.8730 C.ar  155  TYR155      0.1957
     65  OH         2.2710  -11.4990   12.4570 O.3   155  TYR155     -0.2866
     66  N          5.2520  -16.6780   16.5460 N.3   161  ASN161     -0.1240
     67  CA         3.9590  -16.1900   16.0690 C.3   161  ASN161      0.1653
     68  C          2.9910  -17.2900   15.6380 C.2   161  ASN161      0.2266
     69  O          1.7960  -17.0350   15.4770 O.2   161  ASN161     -0.2867
     70  CB         4.1480  -15.2300   14.8860 C.3   161  ASN161      0.1155
     71  CG         4.6830  -13.8760   15.3010 C.2   161  ASN161      0.2627
     72  OD1        4.6840  -13.5260   16.4790 O.2   161  ASN161     -0.2716
     73  ND2        5.1230  -13.0870   14.3160 N.am  161  ASN161     -0.0877
     74  N          7.9270   -3.5130    5.2930 N.3   193  GLU193     -0.1231
     75  CA         8.7130   -2.4660    5.9510 C.3   193  GLU193      0.1699
     76  C         10.1850   -2.8700    6.0730 C.2   193  GLU193      0.2592
     77  O         11.0820   -2.0370    5.9600 O.2   193  GLU193     -0.2718
     78  CB         8.1440   -2.1450    7.3410 C.3   193  GLU193      0.0402
     79  CG         6.8250   -1.3780    7.2980 C.3   193  GLU193      0.1161
     80  CD         6.0720   -1.4350    8.6210 C.2   193  GLU193      0.3649
     81  OE1        5.6070   -2.5360    8.9840 O.co2 193  GLU193     -0.2457
     82  OE2        5.9540   -0.3820    9.2940 O.co2 193  GLU193     -0.2457
     83  N         10.4130   -4.1560    6.2990 N.am  194  ILE194     -0.1980
     84  CA        11.7500   -4.7030    6.5050 C.3   194  ILE194      0.1595
     85  C         12.4350   -5.0380    5.1780 C.2   194  ILE194      0.2287
     86  O         13.6680   -5.0030    5.0670 O.2   194  ILE194     -0.2864
     87  CB        11.6650   -5.9650    7.3900 C.3   194  ILE194      0.0276
     88  CG1       11.2000   -5.5890    8.8000 C.3   194  ILE194      0.0022
     89  CG2       12.9900   -6.6990    7.4480 C.3   194  ILE194      0.0022
     90  CD1       10.9170   -6.7940    9.6760 C.3   194  ILE194      0.0001
@<TRIPOS>BOND
     1    86    85    2
     2    85    84    1
     3    74    75    1
     4    75    76    1
     5    75    78    1
     6    77    76    2
     7    76    83   am
     8    83    84    1
     9    84    87    1
    10    79    78    1
    11    79    80    1
    12    87    89    1
    13    87    88    1
    14    45    44    2
    15    80    81   ar
    16    80    82   ar
    17    88    90    1
    18    44    43    1
    19    38    39    1
    20    57    56    2
    21    41    40    2
    22    58    59    1
    23    58    55    1
    24    39    40    1
    25    40    42   am
    26    61    59   ar
    27    61    63   ar
    28    56    55    1
    29    42    43    1
    30    59    60   ar
    31    46    47    1
    32    63    64   ar
    33    55    54    1
    34    54    48   am
    35    12    11    1
    36     9    11   ar
    37     9     7   ar
    38    11    10   ar
    39    60    62   ar
    40     7     6   ar
    41    53    52    1
    42    64    62   ar
    43    64    65    1
    44     1     2    1
    45    47    48    1
    46    47    50    1
    47    48    49    2
    48    10     8   ar
    49    50    51    1
    50    51    52    1
    51     6     8   ar
    52     6     5    1
    53     2     5    1
    54     2     3    1
    55    30    29    2
    56    29    28    1
    57    28    27    1
    58    28    31    1
    59     4     3    2
    60     3    13   am
    61    73    71   am
    62    27    15   am
    63    70    71    1
    64    70    67    1
    65    13    14    1
    66    31    32    1
    67    33    32   ar
    68    33    35   ar
    69    71    72    2
    70    32    34   ar
    71    69    68    2
    72    35    37   ar
    73    68    67    1
    74    15    16    2
    75    15    14    1
    76    34    36   ar
    77    37    36   ar
    78    67    66    1
    79    14    17    1
    80    17    18    1
    81    18    19   ar
    82    18    20   ar
    83    19    21   ar
    84    20    23   ar
    85    20    22   ar
    86    21    22   ar
    87    23    25   ar
    88    22    24   ar
    89    25    26   ar
    90    24    26   ar
