@<TRIPOS>MOLECULE
tmp/5budA00.pdb
 242 226 0 0 0
SMALL
GASTEIGER

@<TRIPOS>ATOM
      1  N         27.1500   44.2740  -43.4160 N.3   104  ARG104     -0.1245
      2  CA        27.4630   43.7920  -42.0670 C.3   104  ARG104      0.1563
      3  C         28.8700   44.1160  -41.5740 C.2   104  ARG104      0.2260
      4  O         29.0370   44.3660  -40.3800 O.2   104  ARG104     -0.2867
      5  CB        27.2250   42.2870  -41.9370 C.3   104  ARG104      0.0307
      6  CG        28.3500   41.4510  -42.4860 C.3   104  ARG104      0.0489
      7  CD        28.8610   40.4240  -41.4800 C.3   104  ARG104      0.2205
      8  NE        29.8630   39.6460  -42.1770 N.pl3 104  ARG104     -0.0865
      9  CZ        29.6940   38.4430  -42.7260 C.cat 104  ARG104      0.5346
     10  NH1       28.5420   37.7560  -42.6390 N.pl3 104  ARG104      0.1354
     11  NH2       30.7270   37.9120  -43.3660 N.pl3 104  ARG104      0.1354
     12  N         45.0740   49.8110  -46.7920 N.3   145  ARG145     -0.1245
     13  CA        45.4780   48.4620  -47.1530 C.3   145  ARG145      0.1563
     14  C         46.8530   48.4750  -47.8550 C.2   145  ARG145      0.2260
     15  O         47.6990   47.6390  -47.5670 O.2   145  ARG145     -0.2867
     16  CB        44.4130   47.7840  -48.0160 C.3   145  ARG145      0.0307
     17  CG        44.4490   46.2650  -47.9280 C.3   145  ARG145      0.0489
     18  CD        43.3680   45.5850  -48.7640 C.3   145  ARG145      0.2205
     19  NE        42.0510   45.5960  -48.1120 N.pl3 145  ARG145     -0.0865
     20  CZ        40.9690   46.2460  -48.5450 C.cat 145  ARG145      0.5346
     21  NH1       40.9940   46.9700  -49.6630 N.pl3 145  ARG145      0.1354
     22  NH2       39.8390   46.1650  -47.8500 N.pl3 145  ARG145      0.1354
     23  N         49.4730   49.2880  -45.1810 N.3   148  GLN148     -0.1245
     24  CA        49.6490   48.0990  -44.3520 C.3   148  GLN148      0.1566
     25  C         50.5400   47.1000  -45.0880 C.2   148  GLN148      0.2260
     26  O         51.4760   46.5610  -44.5190 O.2   148  GLN148     -0.2867
     27  CB        48.3060   47.4510  -44.0540 C.3   148  GLN148      0.0367
     28  CG        48.3830   46.2150  -43.1680 C.3   148  GLN148      0.0905
     29  CD        47.5480   45.0520  -43.6940 C.2   148  GLN148      0.2608
     30  OE1       46.3880   45.2280  -44.0930 O.2   148  GLN148     -0.2717
     31  NE2       48.1370   43.8490  -43.6980 N.am  148  GLN148     -0.0878
     32  N         54.3270   45.7390  -43.9600 N.3   152  MET152     -0.1245
     33  CA        54.5520   44.3220  -43.6730 C.3   152  MET152      0.1570
     34  C         55.6800   43.7360  -44.5160 C.2   152  MET152      0.2261
     35  O         56.4670   42.9360  -44.0080 O.2   152  MET152     -0.2867
     36  CB        53.2560   43.5040  -43.8390 C.3   152  MET152      0.0387
     37  CG        52.2240   43.6920  -42.7180 C.3   152  MET152      0.0595
     38  SD        52.7400   43.2090  -41.0340 S.3   152  MET152     -0.1393
     39  CE        53.4530   44.7370  -40.4170 C.3   152  MET152      0.0692
     40  N         58.9350   35.5030  -43.4110 N.3   160  ARG160     -0.1245
     41  CA        57.7910   35.8010  -42.5560 C.3   160  ARG160      0.1563
     42  C         56.6680   36.4070  -43.3960 C.2   160  ARG160      0.2260
     43  O         55.4860   36.0860  -43.2110 O.2   160  ARG160     -0.2867
     44  CB        58.2340   36.7240  -41.4090 C.3   160  ARG160      0.0307
     45  CG        57.1460   37.2470  -40.4680 C.3   160  ARG160      0.0489
     46  CD        56.3410   36.1450  -39.7930 C.3   160  ARG160      0.2205
     47  NE        55.2420   36.6830  -38.9850 N.pl3 160  ARG160     -0.0865
     48  CZ        54.3650   35.9510  -38.2960 C.cat 160  ARG160      0.5346
     49  NH1       54.4380   34.6230  -38.2860 N.pl3 160  ARG160      0.1354
     50  NH2       53.4080   36.5570  -37.5940 N.pl3 160  ARG160      0.1354
     51  N         55.1370   33.6140  -45.3970 N.3   163  TYR163     -0.1227
     52  CA        54.3210   32.8560  -44.4610 C.3   163  TYR163      0.1736
     53  C         52.9790   33.5740  -44.2520 C.2   163  TYR163      0.2595
     54  O         51.9300   32.9720  -44.3590 O.2   163  TYR163     -0.2718
     55  CB        55.0710   32.6700  -43.1390 C.3   163  TYR163      0.0548
     56  CG        54.3060   31.9500  -42.0500 C.ar  163  TYR163     -0.0200
     57  CD1       54.2530   30.5560  -42.0080 C.ar  163  TYR163     -0.0009
     58  CD2       53.6880   32.6570  -41.0370 C.ar  163  TYR163     -0.0009
     59  CE1       53.5600   29.8990  -41.0130 C.ar  163  TYR163      0.0417
     60  CE2       52.9900   32.0060  -40.0300 C.ar  163  TYR163      0.0417
     61  CZ        52.9330   30.6280  -40.0250 C.ar  163  TYR163      0.1957
     62  OH        52.2660   29.9840  -39.0240 O.3   163  TYR163     -0.2866
     63  N         53.0230   34.8620  -43.9820 N.am  164  MET164     -0.1979
     64  CA        51.7820   35.6420  -43.7690 C.3   164  MET164      0.1605
     65  C         50.8540   35.6180  -44.9710 C.2   164  MET164      0.2287
     66  O         49.6550   35.4430  -44.8150 O.2   164  MET164     -0.2864
     67  CB        52.0980   37.0780  -43.3340 C.3   164  MET164      0.0413
     68  CG        52.6000   37.1570  -41.8930 C.3   164  MET164      0.0598
     69  SD        53.2230   38.7850  -41.4130 S.3   164  MET164     -0.1393
     70  CE        51.7530   39.4660  -40.6640 C.3   164  MET164      0.0692
     71  N         49.2650   32.3580  -44.9510 N.3   167  CYS167     -0.1221
     72  CA        48.2070   32.3210  -43.9180 C.3   167  CYS167      0.1808
     73  C         46.8930   32.9050  -44.4560 C.2   167  CYS167      0.2601
     74  O         45.8040   32.3730  -44.1680 O.2   167  CYS167     -0.2717
     75  CB        48.6600   33.0150  -42.6380 C.3   167  CYS167      0.0970
     76  SG        49.8060   32.0380  -41.6400 S.3   167  CYS167     -0.0800
     77  N         46.9940   33.9320  -45.3080 N.am  168  GLU168     -0.1979
     78  CA        45.8160   34.4810  -45.9940 C.3   168  GLU168      0.1602
     79  C         45.1460   33.4300  -46.8460 C.2   168  GLU168      0.2287
     80  O         43.9200   33.3470  -46.9270 O.2   168  GLU168     -0.2864
     81  CB        46.1770   35.7460  -46.8100 C.3   168  GLU168      0.0415
     82  CG        46.3970   36.9410  -45.9000 C.3   168  GLU168      0.1163
     83  CD        47.0650   38.1600  -46.5260 C.2   168  GLU168      0.3649
     84  OE1       47.3620   39.1000  -45.7600 O.co2 168  GLU168     -0.2457
     85  OE2       47.2970   38.2060  -47.7480 O.co2 168  GLU168     -0.2457
     86  N         45.3840   30.1810  -46.3930 N.3   170  VAL170     -0.1231
     87  CA        44.9090   29.1070  -45.5260 C.3   170  VAL170      0.1692
     88  C         43.4240   29.2460  -45.2570 C.2   170  VAL170      0.2593
     89  O         42.7040   28.2600  -45.2600 O.2   170  VAL170     -0.2718
     90  CB        45.7430   29.0870  -44.2170 C.3   170  VAL170      0.0266
     91  CG1       45.0110   28.4140  -43.0640 C.3   170  VAL170      0.0020
     92  CG2       47.0940   28.3960  -44.4710 C.3   170  VAL170      0.0020
     93  N         42.9640   30.4640  -44.9730 N.am  171  GLY171     -0.1942
     94  CA        41.5340   30.7050  -44.6520 C.3   171  GLY171      0.2014
     95  C         40.6080   30.2090  -45.7390 C.2   171  GLY171      0.2638
     96  O         39.5560   29.6110  -45.4890 O.2   171  GLY171     -0.2714
     97  N         40.9630   30.5180  -46.9730 N.am  172  TYR172     -0.1973
     98  CA        40.1730   30.0750  -48.1350 C.3   172  TYR172      0.1639
     99  C         40.3420   28.5960  -48.4160 C.2   172  TYR172      0.2290
    100  O         39.4030   27.9250  -48.8030 O.2   172  TYR172     -0.2864
    101  CB        40.6060   30.8800  -49.3730 C.3   172  TYR172      0.0560
    102  CG        40.3390   32.3540  -49.2530 C.ar  172  TYR172     -0.0198
    103  CD1       39.0350   32.8440  -49.0810 C.ar  172  TYR172     -0.0009
    104  CD2       41.3740   33.2560  -49.3130 C.ar  172  TYR172     -0.0009
    105  CE1       38.7970   34.2000  -48.9620 C.ar  172  TYR172      0.0417
    106  CE2       41.1500   34.6090  -49.2120 C.ar  172  TYR172      0.0417
    107  CZ        39.8620   35.0770  -49.0360 C.ar  172  TYR172      0.1957
    108  OH        39.6970   36.4340  -48.9560 O.3   172  TYR172     -0.2866
    109  N         38.0140   26.6930  -46.1460 N.3   175  GLU175     -0.1245
    110  CA        36.6700   26.7250  -46.6550 C.3   175  GLU175      0.1567
    111  C         36.4850   25.6940  -47.7620 C.2   175  GLU175      0.2260
    112  O         35.4520   25.0410  -47.8380 O.2   175  GLU175     -0.2867
    113  CB        36.3000   28.0980  -47.2300 C.3   175  GLU175      0.0388
    114  CG        36.2110   29.2440  -46.2430 C.3   175  GLU175      0.1160
    115  CD        35.9720   30.5780  -46.9620 C.2   175  GLU175      0.3649
    116  OE1       35.7170   30.5410  -48.1760 O.co2 175  GLU175     -0.2457
    117  OE2       36.0720   31.6510  -46.3570 O.co2 175  GLU175     -0.2457
    118  N         28.3090   38.1400  -46.3810 N.3   224  GLU224     -0.1245
    119  CA        28.6820   36.9330  -47.0610 C.3   224  GLU224      0.1567
    120  C         28.6430   35.7730  -46.0660 C.2   224  GLU224      0.2260
    121  O         29.0060   35.9440  -44.9100 O.2   224  GLU224     -0.2867
    122  CB        30.0350   37.1440  -47.7020 C.3   224  GLU224      0.0388
    123  CG        30.4900   36.0420  -48.6250 C.3   224  GLU224      0.1160
    124  CD        31.6290   35.2420  -48.0360 C.2   224  GLU224      0.3649
    125  OE1       31.9370   35.4510  -46.8380 O.co2 224  GLU224     -0.2457
    126  OE2       32.2080   34.4190  -48.7760 O.co2 224  GLU224     -0.2457
    127  N         29.5520   31.7330  -45.1720 N.3   226  ASP226     -0.1239
    128  CA        30.5550   30.7250  -45.5410 C.3   226  ASP226      0.1674
    129  C         29.9300   29.4130  -45.9800 C.2   226  ASP226      0.2266
    130  O         30.3280   28.8320  -46.9910 O.2   226  ASP226     -0.2867
    131  CB        31.5370   30.4530  -44.4060 C.3   226  ASP226      0.1410
    132  CG        32.5530   31.5730  -44.2420 C.2   226  ASP226      0.3668
    133  OD1       32.7330   32.3000  -45.2310 O.co2 226  ASP226     -0.2456
    134  OD2       33.2120   31.6650  -43.1830 O.co2 226  ASP226     -0.2456
    135  N         29.7860   30.1580  -39.9820 N.3   245  GLU245     -0.1231
    136  CA        30.9890   30.9330  -40.2460 C.3   245  GLU245      0.1699
    137  C         32.2160   30.1060  -39.9700 C.2   245  GLU245      0.2592
    138  O         32.3430   29.4810  -38.8900 O.2   245  GLU245     -0.2718
    139  CB        31.0020   32.1930  -39.3700 C.3   245  GLU245      0.0402
    140  CG        32.2170   33.0940  -39.4920 C.3   245  GLU245      0.1161
    141  CD        32.4420   33.6960  -40.8690 C.2   245  GLU245      0.3649
    142  OE1       33.6430   33.8330  -41.2170 O.co2 245  GLU245     -0.2457
    143  OE2       31.4500   34.0590  -41.5770 O.co2 245  GLU245     -0.2457
    144  N         33.1320   30.1140  -40.9330 N.am  246  LEU246     -0.1966
    145  CA        34.3940   29.4060  -40.8110 C.3   246  LEU246      0.1728
    146  C         35.5190   30.3600  -40.4670 C.2   246  LEU246      0.2616
    147  O         35.5500   31.4990  -40.9270 O.2   246  LEU246     -0.2715
    148  CB        34.7210   28.6240  -42.1140 C.3   246  LEU246      0.0311
    149  CG        33.6220   27.6360  -42.5040 C.3   246  LEU246      0.0022
    150  CD1       34.0040   26.8950  -43.7750 C.3   246  LEU246      0.0001
    151  CD2       33.3540   26.5850  -41.4200 C.3   246  LEU246      0.0001
    152  N         36.4380   29.8960  -39.6380 N.am  247  LYS247     -0.1963
    153  CA        37.6580   30.6510  -39.3050 C.3   247  LYS247      0.1728
    154  C         38.7930   29.6730  -39.1770 C.2   247  LYS247      0.2617
    155  O         38.5720   28.4800  -38.9440 O.2   247  LYS247     -0.2715
    156  CB        37.5000   31.3850  -37.9450 C.3   247  LYS247      0.0311
    157  CG        36.3440   32.3650  -37.8550 C.3   247  LYS247      0.0038
    158  CD        36.6490   33.6220  -38.6250 C.3   247  LYS247      0.0206
    159  CE        35.5480   34.6420  -38.4770 C.3   247  LYS247      0.1093
    160  NZ        35.6860   35.6130  -39.5950 N.3   247  LYS247     -0.1314
    161  N         40.0130   30.1730  -39.2820 N.am  248  THR248     -0.1937
    162  CA        41.1990   29.4140  -38.9210 C.3   248  THR248      0.2028
    163  C         42.0110   30.1920  -37.9030 C.2   248  THR248      0.2643
    164  O         41.9560   31.4140  -37.8510 O.2   248  THR248     -0.2714
    165  CB        42.0960   29.0400  -40.1190 C.3   248  THR248      0.1808
    166  OG1       42.6080   30.2280  -40.7520 O.3   248  THR248     -0.2208
    167  CG2       41.3350   28.2120  -41.1320 C.3   248  THR248      0.0379
    168  N         42.7340   29.4590  -37.0570 N.am  249  SER249     -0.1935
    169  CA        43.6740   30.0500  -36.1260 C.3   249  SER249      0.2055
    170  C         44.8200   29.0980  -35.8410 C.2   249  SER249      0.2642
    171  O         44.7030   27.9060  -36.0630 O.2   249  SER249     -0.2714
    172  CB        43.0060   30.3730  -34.8000 C.3   249  SER249      0.2130
    173  OG        43.6810   31.4700  -34.2370 O.3   249  SER249     -0.2179
    174  N         45.9280   29.6350  -35.3470 N.am  250  ARG250     -0.1977
    175  CA        47.0080   28.7750  -34.8800 C.3   250  ARG250      0.1597
    176  C         46.5660   28.0620  -33.6050 C.2   250  ARG250      0.2287
    177  O         45.8580   28.6300  -32.7960 O.2   250  ARG250     -0.2864
    178  CB        48.2840   29.5660  -34.6080 C.3   250  ARG250      0.0334
    179  CG        49.4870   28.6580  -34.4160 C.3   250  ARG250      0.0492
    180  CD        50.6480   29.3450  -33.7170 C.3   250  ARG250      0.2205
    181  NE        51.5560   28.3650  -33.1160 N.pl3 250  ARG250     -0.0865
    182  CZ        52.6500   28.6810  -32.4280 C.cat 250  ARG250      0.5346
    183  NH1       53.0080   29.9510  -32.2670 N.pl3 250  ARG250      0.1354
    184  NH2       53.4120   27.7200  -31.9210 N.pl3 250  ARG250      0.1354
    185  N         50.4890   29.5030  -25.3450 N.3   254  ASN254     -0.1240
    186  CA        50.6550   30.2380  -24.0880 C.3   254  ASN254      0.1653
    187  C         49.4870   31.1910  -23.8160 C.2   254  ASN254      0.2266
    188  O         48.5660   31.2990  -24.6360 O.2   254  ASN254     -0.2867
    189  CB        52.0120   30.9700  -24.0470 C.3   254  ASN254      0.1155
    190  CG        52.3070   31.7720  -25.3080 C.2   254  ASN254      0.2627
    191  OD1       51.5250   32.6260  -25.7230 O.2   254  ASN254     -0.2716
    192  ND2       53.4690   31.5220  -25.9040 N.am  254  ASN254     -0.0877
    193  N         49.5830   34.3200  -23.8550 N.3   256  SER256     -0.1202
    194  CA        49.5730   35.3890  -24.8550 C.3   256  SER256      0.2020
    195  C         48.6000   35.0090  -25.9640 C.2   256  SER256      0.2618
    196  O         47.8090   35.8550  -26.4450 O.2   256  SER256     -0.2717
    197  CB        50.9600   35.6190  -25.4370 C.3   256  SER256      0.2103
    198  OG        51.0830   36.9660  -25.8290 O.3   256  SER256     -0.2182
    199  N         48.6410   33.7250  -26.3260 N.am  257  GLN257     -0.1979
    200  CA        47.8250   33.1950  -27.4150 C.3   257  GLN257      0.1601
    201  C         46.3680   33.1160  -26.9900 C.2   257  GLN257      0.2287
    202  O         45.4690   33.3290  -27.8050 O.2   257  GLN257     -0.2864
    203  CB        48.3530   31.8350  -27.8970 C.3   257  GLN257      0.0394
    204  CG        49.8290   31.8780  -28.2870 C.3   257  GLN257      0.0908
    205  CD        50.3570   30.6610  -29.0440 C.2   257  GLN257      0.2608
    206  OE1       51.5620   30.3850  -28.9990 O.2   257  GLN257     -0.2717
    207  NE2       49.4880   29.9610  -29.7850 N.am  257  GLN257     -0.0878
    208  N         44.8580   36.7060  -27.3720 N.3   260  SER260     -0.1217
    209  CA        44.6740   36.9380  -28.7920 C.3   260  SER260      0.1889
    210  C         43.4880   36.1360  -29.3530 C.2   260  SER260      0.2288
    211  O         42.7070   36.6510  -30.1660 O.2   260  SER260     -0.2866
    212  CB        45.9630   36.5770  -29.5350 C.3   260  SER260      0.2089
    213  OG        45.8200   36.8820  -30.8920 O.3   260  SER260     -0.2183
    214  N         40.0430   37.5830  -31.2250 N.3   264  LYS264     -0.1245
    215  CA        39.5520   37.1170  -32.5430 C.3   264  LYS264      0.1561
    216  C         38.1560   36.5640  -32.4350 C.2   264  LYS264      0.2260
    217  O         37.3250   36.7810  -33.3330 O.2   264  LYS264     -0.2867
    218  CB        40.3870   35.9530  -33.0680 C.3   264  LYS264      0.0271
    219  CG        41.7330   36.2810  -33.6430 C.3   264  LYS264      0.0035
    220  CD        42.4680   34.9730  -33.8960 C.3   264  LYS264      0.0206
    221  CE        43.4200   35.0900  -35.0590 C.3   264  LYS264      0.1093
    222  NZ        44.3820   33.9750  -34.9590 N.3   264  LYS264     -0.1314
    223  N         30.5330   39.6290  -35.7420 N.3   271  GLN271     -0.1245
    224  CA        30.1750   39.4310  -37.1300 C.3   271  GLN271      0.1566
    225  C         28.9300   38.5020  -37.2310 C.2   271  GLN271      0.2260
    226  O         27.9790   38.7760  -37.9760 O.2   271  GLN271     -0.2867
    227  CB        31.4630   38.9220  -37.8340 C.3   271  GLN271      0.0367
    228  CG        31.3560   38.1330  -39.1190 C.3   271  GLN271      0.0905
    229  CD        32.7160   37.5610  -39.5600 C.2   271  GLN271      0.2608
    230  OE1       33.6860   37.5600  -38.7960 O.2   271  GLN271     -0.2717
    231  NE2       32.7880   37.0880  -40.8060 N.am  271  GLN271     -0.0878
    232  N         45.3680   25.1640  -36.7650 N.3   285  ARG285     -0.1245
    233  CA        46.4710   24.6280  -37.5600 C.3   285  ARG285      0.1563
    234  C         47.8120   24.8960  -36.8700 C.2   285  ARG285      0.2260
    235  O         47.9290   25.7950  -36.0310 O.2   285  ARG285     -0.2867
    236  CB        46.4310   25.1930  -39.0040 C.3   285  ARG285      0.0307
    237  CG        46.2730   26.7080  -39.1220 C.3   285  ARG285      0.0489
    238  CD        47.6190   27.3780  -39.0270 C.3   285  ARG285      0.2205
    239  NE        47.5730   28.8260  -38.8830 N.pl3 285  ARG285     -0.0865
    240  CZ        48.5760   29.5540  -38.3890 C.cat 285  ARG285      0.5346
    241  NH1       49.6740   28.9600  -37.9820 N.pl3 285  ARG285      0.1354
    242  NH2       48.4810   30.8740  -38.2870 N.pl3 285  ARG285      0.1354
@<TRIPOS>BOND
     1    21    20    1
     2   101   102    1
     3   101    98    1
     4   104   102   ar
     5   104   106   ar
     6   102   103   ar
     7   106   107   ar
     8   103   105   ar
     9   107   105   ar
    10   107   108    1
    11   100    99    2
    12   126   124   ar
    13    18    19    1
    14    18    17    1
    15   123   124    1
    16   123   122    1
    17    20    19    2
    18    20    22    1
    19    99    98    1
    20   116   115   ar
    21    98    97    1
    22   124   125   ar
    23    16    17    1
    24    16    13    1
    25    14    15    2
    26    14    13    1
    27   112   111    2
    28   111   110    1
    29    85    83   ar
    30   122   119    1
    31   113   110    1
    32   113   114    1
    33    13    12    1
    34   119   118    1
    35   119   120    1
    36   130   129    2
    37    97    95   am
    38   115   117   ar
    39   115   114    1
    40    80    79    2
    41    79    78    1
    42    81    78    1
    43    81    82    1
    44   110   109    1
    45    83    82    1
    46    83    84   ar
    47    86    87    1
    48   120   121    2
    49    78    77    1
    50   129   128    1
    51    95    96    2
    52    95    94    1
    53   128   127    1
    54   128   131    1
    55    87    88    1
    56    87    90    1
    57    51    52    1
    58    77    73   am
    59    89    88    2
    60    88    93   am
    61   133   132   ar
    62    23    24    1
    63    25    26    2
    64    25    24    1
    65    93    94    1
    66    65    66    2
    67    65    64    1
    68    71    72    1
    69    34    35    2
    70    34    33    1
    71    92    90    1
    72    52    53    1
    73    52    55    1
    74    73    74    2
    75    73    72    1
    76   131   132    1
    77    54    53    2
    78    24    27    1
    79    53    63   am
    80   132   134   ar
    81    90    91    1
    82    30    29    2
    83    27    28    1
    84    63    64    1
    85    32    33    1
    86    72    75    1
    87    36    33    1
    88    36    37    1
    89   150   149    1
    90    64    67    1
    91    31    29   am
    92    29    28    1
    93     1     2    1
    94    40    41    1
    95    42    43    2
    96    42    41    1
    97    11     9    1
    98    67    68    1
    99    55    56    1
   100     9    10    1
   101     9     8    2
   102    37    38    1
   103    75    76    1
   104    41    44    1
   105   149   148    1
   106   149   151    1
   107     6     5    1
   108     6     7    1
   109     8     7    1
   110   148   145    1
   111     2     5    1
   112     2     3    1
   113    56    57   ar
   114    56    58   ar
   115    57    59   ar
   116    68    69    1
   117   143   141   ar
   118     3     4    2
   119    69    70    1
   120    44    45    1
   121   142   141   ar
   122   167   165    1
   123    58    60   ar
   124    38    39    1
   125    59    61   ar
   126   144   145    1
   127   144   137   am
   128   147   146    2
   129   141   140    1
   130   145   146    1
   131   231   229   am
   132   166   165    1
   133    45    46    1
   134   146   152   am
   135   136   135    1
   136   136   137    1
   137   136   139    1
   138   165   162    1
   139    60    61   ar
   140    61    62    1
   141   137   138    2
   142    46    47    1
   143   152   153    1
   144   160   159    1
   145   229   228    1
   146   229   230    2
   147   140   139    1
   148   153   154    1
   149   153   156    1
   150   161   154   am
   151   161   162    1
   152   154   155    2
   153   237   238    1
   154   237   236    1
   155   228   227    1
   156   238   239    1
   157   236   233    1
   158    47    48    2
   159   162   163    1
   160   239   240    2
   161   158   159    1
   162   158   157    1
   163   240   242    1
   164   240   241    1
   165    48    49    1
   166    48    50    1
   167   226   225    2
   168   156   157    1
   169   163   164    2
   170   163   168   am
   171   227   224    1
   172   233   234    1
   173   233   232    1
   174   225   224    1
   175   224   223    1
   176   168   169    1
   177   234   235    2
   178   169   170    1
   179   169   172    1
   180   171   170    2
   181   170   174   am
   182   174   175    1
   183   221   222    1
   184   221   220    1
   185   175   178    1
   186   175   176    1
   187   172   173    1
   188   178   179    1
   189   179   180    1
   190   220   219    1
   191   180   181    1
   192   219   218    1
   193   176   177    2
   194   217   216    2
   195   181   182    2
   196   218   215    1
   197   215   216    1
   198   215   214    1
   199   182   183    1
   200   182   184    1
   201   213   212    1
   202   211   210    2
   203   207   205   am
   204   212   209    1
   205   210   209    1
   206   205   206    2
   207   205   204    1
   208   209   208    1
   209   204   203    1
   210   203   200    1
   211   202   201    2
   212   200   201    1
   213   200   199    1
   214   196   195    2
   215   199   195   am
   216   195   194    1
   217   192   190   am
   218   198   197    1
   219   191   190    2
   220   197   194    1
   221   185   186    1
   222   190   189    1
   223   194   193    1
   224   188   187    2
   225   186   189    1
   226   186   187    1
