@<TRIPOS>MOLECULE
tmp/5bueA00.pdb
 202 192 0 0 0
SMALL
GASTEIGER

@<TRIPOS>ATOM
      1  N         18.5870   -9.1310   14.3180 N.3    21  ILE21      -0.1231
      2  CA        18.4380   -8.0490   15.3120 C.3    21  ILE21       0.1692
      3  C         17.3690   -8.4390   16.3590 C.2    21  ILE21       0.2593
      4  O         17.6570   -8.5040   17.5570 O.2    21  ILE21      -0.2718
      5  CB        18.2150   -6.6110   14.7200 C.3    21  ILE21       0.0266
      6  CG1       19.4560   -6.0960   13.9710 C.3    21  ILE21       0.0019
      7  CG2       17.8160   -5.6090   15.8300 C.3    21  ILE21       0.0020
      8  CD1       19.2370   -4.7490   13.2810 C.3    21  ILE21       0.0001
      9  N         16.1530   -8.6820   15.8890 N.am   22  GLY22      -0.1942
     10  CA        15.0220   -9.0420   16.7350 C.3    22  GLY22       0.2014
     11  C         13.8420   -9.5430   15.9400 C.2    22  GLY22       0.2639
     12  O         13.9190   -9.6120   14.7160 O.2    22  GLY22      -0.2714
     13  N         12.7460   -9.9050   16.6320 N.am   23  GLU23      -0.1963
     14  CA        11.5230  -10.4080   16.0010 C.3    23  GLU23       0.1733
     15  C         10.2630  -10.2170   16.8490 C.2    23  GLU23       0.2617
     16  O         10.3330  -10.1750   18.0760 O.2    23  GLU23      -0.2715
     17  CB        11.6660  -11.8820   15.5550 C.3    23  GLU23       0.0429
     18  CG        11.8290  -12.9040   16.6700 C.3    23  GLU23       0.1163
     19  CD        11.7810  -14.3290   16.1600 C.2    23  GLU23       0.3649
     20  OE1       10.6780  -14.7910   15.7870 O.co2  23  GLU23      -0.2457
     21  OE2       12.8510  -14.9750   16.1030 O.co2  23  GLU23      -0.2457
     22  N          9.1270  -10.1220   16.1640 N.am   24  GLY24      -0.1940
     23  CA         7.8090   -9.9720   16.7640 C.3    24  GLY24       0.2014
     24  C          6.8750  -11.0920   16.3580 C.2    24  GLY24       0.2639
     25  O          7.3260  -12.1540   15.9210 O.2    24  GLY24      -0.2714
     26  N          5.5590  -10.8430   16.4850 N.am   25  ALA25      -0.1963
     27  CA         4.4850  -11.7930   16.1770 C.3    25  ALA25       0.1728
     28  C          4.4830  -12.2760   14.7250 C.2    25  ALA25       0.2616
     29  O          4.3990  -13.4850   14.4880 O.2    25  ALA25      -0.2715
     30  CB         3.1340  -11.1860   16.5300 C.3    25  ALA25       0.0334
     31  N          4.5910  -11.3350   13.7650 N.am   26  TYR26      -0.1960
     32  CA         4.5510  -11.5960   12.3230 C.3    26  TYR26       0.1774
     33  C          5.6760  -10.8430   11.5460 C.2    26  TYR26       0.2659
     34  O          5.4900  -10.4560   10.3810 O.2    26  TYR26      -0.2711
     35  CB         3.1230  -11.2870   11.7760 C.3    26  TYR26       0.0574
     36  CG         2.7070   -9.8350   11.9230 C.ar   26  TYR26      -0.0198
     37  CD1        2.3180   -9.3190   13.1600 C.ar   26  TYR26      -0.0009
     38  CD2        2.7210   -8.9720   10.8340 C.ar   26  TYR26      -0.0009
     39  CE1        1.9970   -7.9700   13.3130 C.ar   26  TYR26       0.0417
     40  CE2        2.3920   -7.6250   10.9720 C.ar   26  TYR26       0.0417
     41  CZ         2.0230   -7.1300   12.2120 C.ar   26  TYR26       0.1957
     42  OH         1.6950   -5.8020   12.3330 O.3    26  TYR26      -0.2866
     43  N          6.8410  -10.6900   12.1900 N.am   27  GLY27      -0.1716
     44  CA         7.9910  -10.0190   11.5970 C.2    27  GLY27       0.1480
     45  C          9.3440  -10.2520   12.2490 C.2    27  GLY27       0.2820
     46  O          9.4260  -10.5570   13.4420 O.2    27  GLY27      -0.2669
     47  N         10.4240  -10.0700   11.4590 N.am   28  MET28      -0.1928
     48  CA        11.8110  -10.2060   11.9030 C.3    28  MET28       0.1739
     49  C         12.6310   -9.0460   11.3770 C.2    28  MET28       0.2616
     50  O         12.4940   -8.6710   10.2090 O.2    28  MET28      -0.2715
     51  CB        12.4260  -11.5310   11.3980 C.3    28  MET28       0.0427
     52  CG        13.7770  -11.8670   12.0260 C.3    28  MET28       0.0599
     53  SD        14.5890  -13.3050   11.2910 S.3    28  MET28      -0.1393
     54  CE        13.8830  -14.5840   12.2110 C.3    28  MET28       0.0692
     55  N         13.4980   -8.4920   12.2410 N.am   29  VAL29      -0.1977
     56  CA        14.4200   -7.4190   11.8880 C.3    29  VAL29       0.1596
     57  C         15.8330   -7.9950   11.7830 C.2    29  VAL29       0.2287
     58  O         16.2950   -8.6810   12.6820 O.2    29  VAL29      -0.2864
     59  CB        14.3700   -6.1710   12.8270 C.3    29  VAL29       0.0276
     60  CG1       15.1350   -4.9940   12.2190 C.3    29  VAL29       0.0022
     61  CG2       12.9410   -5.7550   13.1280 C.3    29  VAL29       0.0022
     62  N         19.0280   -1.5880    8.0760 N.3    42  ALA42      -0.1245
     63  CA        18.1220   -2.4470    8.8250 C.3    42  ALA42       0.1562
     64  C         17.0020   -2.8310    7.8850 C.2    42  ALA42       0.2260
     65  O         16.5020   -1.9860    7.1320 O.2    42  ALA42      -0.2867
     66  CB        17.5650   -1.7130   10.0300 C.3    42  ALA42       0.0290
     67  N         13.2880   -4.9480    7.8450 N.3    44  LYS44      -0.1245
     68  CA        12.1500   -5.4920    8.5870 C.3    44  LYS44       0.1561
     69  C         11.2420   -6.2940    7.6530 C.2    44  LYS44       0.2260
     70  O         10.5410   -5.7190    6.8120 O.2    44  LYS44      -0.2867
     71  CB        11.3840   -4.3590    9.3090 C.3    44  LYS44       0.0271
     72  CG        10.0410   -4.7380    9.9180 C.3    44  LYS44       0.0035
     73  CD         9.5050   -3.5890   10.7330 C.3    44  LYS44       0.0206
     74  CE         8.0090   -3.5330   10.7030 C.3    44  LYS44       0.1093
     75  NZ         7.4670   -2.8570   11.9050 N.3    44  LYS44      -0.1314
     76  N          7.9490   -8.4320    7.0860 N.3    46  ILE46      -0.1245
     77  CA         6.5830   -8.5060    7.6290 C.3    46  ILE46       0.1561
     78  C          5.7840   -9.5200    6.8100 C.2    46  ILE46       0.2260
     79  O          5.8200   -9.4770    5.5760 O.2    46  ILE46      -0.2867
     80  CB         5.8690   -7.1150    7.6310 C.3    46  ILE46       0.0252
     81  CG1        6.7270   -6.0140    8.2380 C.3    46  ILE46       0.0019
     82  CG2        4.5270   -7.1660    8.3220 C.3    46  ILE46       0.0019
     83  CD1        7.0190   -5.0090    7.2800 C.3    46  ILE46       0.0001
     84  N          1.8000    2.1130    9.0960 N.3    61  GLU61      -0.1245
     85  CA         3.2340    2.3850    9.2730 C.3    61  GLU61       0.1567
     86  C          3.8730    2.8610    7.9730 C.2    61  GLU61       0.2260
     87  O          4.5500    3.8840    7.9830 O.2    61  GLU61      -0.2867
     88  CB         3.9760    1.1650    9.8310 C.3    61  GLU61       0.0388
     89  CG         5.4720    1.3990    9.9190 C.3    61  GLU61       0.1160
     90  CD         6.2040    0.4240   10.8020 C.2    61  GLU61       0.3649
     91  OE1        6.1980   -0.7840   10.4890 O.co2  61  GLU61      -0.2457
     92  OE2        6.7970    0.8710   11.8050 O.co2  61  GLU61      -0.2457
     93  N         12.3120    7.4440   12.5930 N.3    74  ILE74      -0.1245
     94  CA        12.8010    6.5530   11.5380 C.3    74  ILE74       0.1561
     95  C         11.9840    6.7540   10.2230 C.2    74  ILE74       0.2260
     96  O         10.7720    7.0080   10.2460 O.2    74  ILE74      -0.2867
     97  CB        12.8010    5.0600   12.0240 C.3    74  ILE74       0.0252
     98  CG1       13.8880    4.2040   11.3150 C.3    74  ILE74       0.0019
     99  CG2       11.4150    4.4050   11.9260 C.3    74  ILE74       0.0019
    100  CD1       15.3580    4.4720   11.7920 C.3    74  ILE74       0.0001
    101  N         15.2910    0.4310    6.4470 N.3    95  GLN95      -0.1231
    102  CA        15.4120    1.6100    7.2940 C.3    95  GLN95       0.1698
    103  C         16.8640    1.8450    7.7080 C.2    95  GLN95       0.2592
    104  O         17.6830    0.9400    7.5570 O.2    95  GLN95      -0.2718
    105  CB        14.4850    1.4550    8.5320 C.3    95  GLN95       0.0381
    106  CG        12.9870    1.3200    8.1570 C.3    95  GLN95       0.0905
    107  CD        12.0830    1.0550    9.3290 C.2    95  GLN95       0.2608
    108  OE1       12.2530    0.0750   10.0550 O.2    95  GLN95      -0.2717
    109  NE2       11.0710    1.9100    9.5230 N.am   95  GLN95      -0.0878
    110  N         17.1800    3.0640    8.2290 N.am   96  ASP96      -0.1960
    111  CA        18.5100    3.4290    8.7300 C.3    96  ASP96       0.1840
    112  C         18.9180    2.4730    9.8320 C.2    96  ASP96       0.2622
    113  O         18.1010    2.1480   10.6890 O.2    96  ASP96      -0.2715
    114  CB        18.5130    4.8470    9.3190 C.3    96  ASP96       0.1450
    115  CG        18.4520    5.9810    8.3200 C.2    96  ASP96       0.3671
    116  OD1       19.0430    5.8390    7.2130 O.co2  96  ASP96      -0.2456
    117  OD2       17.8780    7.0460    8.6680 O.co2  96  ASP96      -0.2456
    118  N         20.1690    2.0050    9.8030 N.am   97  LEU97      -0.1963
    119  CA        20.6640    1.1360   10.8560 C.3    97  LEU97       0.1728
    120  C         21.2500    2.0170   11.9500 C.2    97  LEU97       0.2616
    121  O         22.0430    2.9210   11.6710 O.2    97  LEU97      -0.2715
    122  CB        21.7150    0.1250   10.3550 C.3    97  LEU97       0.0311
    123  CG        22.2320   -0.8920   11.4030 C.3    97  LEU97       0.0022
    124  CD1       21.1470   -1.8800   11.8000 C.3    97  LEU97       0.0001
    125  CD2       23.4200   -1.6330   10.8890 C.3    97  LEU97       0.0001
    126  N         20.8350    1.7400   13.1860 N.am   98  MET98      -0.1963
    127  CA        21.2750    2.4240   14.3920 C.3    98  MET98       0.1736
    128  C         22.1690    1.4310   15.1630 C.2    98  MET98       0.2616
    129  O         22.2290    0.2600   14.7950 O.2    98  MET98      -0.2715
    130  CB        20.0480    2.8930   15.2090 C.3    98  MET98       0.0427
    131  CG        19.1720    3.9030   14.4710 C.3    98  MET98       0.0599
    132  SD        20.0130    5.4730   14.0900 S.3    98  MET98      -0.1393
    133  CE        19.5620    6.4530   15.5380 C.3    98  MET98       0.0692
    134  N         22.9080    1.8980   16.1680 N.am   99  GLU99      -0.1963
    135  CA        23.8440    1.0730   16.9480 C.3    99  GLU99       0.1733
    136  C         23.1300    0.1090   17.9050 C.2    99  GLU99       0.2617
    137  O         23.5250   -1.0580   18.0310 O.2    99  GLU99      -0.2715
    138  CB        24.8340    1.9860   17.7160 C.3    99  GLU99       0.0429
    139  CG        25.8440    1.2800   18.6190 C.3    99  GLU99       0.1163
    140  CD        26.8770    0.4010   17.9390 C.2    99  GLU99       0.3649
    141  OE1       27.2270    0.6690   16.7660 O.co2  99  GLU99      -0.2457
    142  OE2       27.3520   -0.5530   18.5960 O.co2  99  GLU99      -0.2457
    143  N         22.0870    0.6000   18.5780 N.am  100  THR100     -0.1937
    144  CA        21.3650   -0.1870   19.5830 C.3   100  THR100      0.2028
    145  C         19.9860    0.4080   19.8550 C.2   100  THR100      0.2642
    146  O         19.5990    1.3780   19.2220 O.2   100  THR100     -0.2714
    147  CB        22.2250   -0.2280   20.8890 C.3   100  THR100      0.1808
    148  OG1       21.6400   -1.1300   21.8340 O.3   100  THR100     -0.2208
    149  CG2       22.4530    1.1750   21.5090 C.3   100  THR100      0.0379
    150  N         19.2810   -0.1480   20.8400 N.am  101  ASP101     -0.1971
    151  CA        18.0110    0.3770   21.3240 C.3   101  ASP101      0.1709
    152  C         18.0940    0.5860   22.8500 C.2   101  ASP101      0.2293
    153  O         19.0120    0.0550   23.4790 O.2   101  ASP101     -0.2864
    154  CB        16.8190   -0.4840   20.8820 C.3   101  ASP101      0.1436
    155  CG        16.8070   -1.8780   21.4350 C.2   101  ASP101      0.3671
    156  OD1       16.8590   -2.0210   22.6600 O.co2 101  ASP101     -0.2456
    157  OD2       16.6810   -2.8240   20.6430 O.co2 101  ASP101     -0.2456
    158  N         18.1880   -2.6170   25.1740 N.3   104  LYS104     -0.1245
    159  CA        19.5090   -3.2400   25.2370 C.3   104  LYS104      0.1561
    160  C         20.4760   -2.3880   26.0510 C.2   104  LYS104      0.2260
    161  O         21.2420   -2.9210   26.8670 O.2   104  LYS104     -0.2867
    162  CB        20.0620   -3.4890   23.8290 C.3   104  LYS104      0.0271
    163  CG        19.2910   -4.5470   23.0350 C.3   104  LYS104      0.0035
    164  CD        20.1110   -5.1220   21.8640 C.3   104  LYS104      0.0206
    165  CE        20.1860   -4.1790   20.6860 C.3   104  LYS104      0.1093
    166  NZ        20.8800   -4.7920   19.5380 N.3   104  LYS104     -0.1314
    167  N         12.5040   -0.6690   23.5040 N.3   143  SER143     -0.1202
    168  CA        12.8980   -1.3520   22.2620 C.3   143  SER143      0.2020
    169  C         12.5590   -0.5330   20.9660 C.2   143  SER143      0.2618
    170  O         13.1560   -0.7870   19.9130 O.2   143  SER143     -0.2717
    171  CB        12.2720   -2.7430   22.1910 C.3   143  SER143      0.2103
    172  OG        10.8550   -2.6430   22.1630 O.3   143  SER143     -0.2182
    173  N         11.6130    0.4400   21.0530 N.am  144  ASN144     -0.1974
    174  CA        11.2130    1.3050   19.9290 C.3   144  ASN144      0.1688
    175  C         12.0100    2.6140   19.8720 C.2   144  ASN144      0.2292
    176  O         11.7680    3.4720   19.0040 O.2   144  ASN144     -0.2864
    177  CB         9.6920    1.5610   19.9340 C.3   144  ASN144      0.1181
    178  CG         8.9290    0.3430   19.5080 C.2   144  ASN144      0.2629
    179  OD1        9.4830   -0.5820   18.8900 O.2   144  ASN144     -0.2716
    180  ND2        7.6450    0.3050   19.8230 N.am  144  ASN144     -0.0877
    181  N         15.6390    3.7960   19.2870 N.3   146  LEU146     -0.1245
    182  CA        16.9070    3.4540   18.6530 C.3   146  LEU146      0.1561
    183  C         17.9530    4.5190   18.9020 C.2   146  LEU146      0.2260
    184  O         17.6670    5.7170   18.8250 O.2   146  LEU146     -0.2867
    185  CB        16.7200    3.2680   17.1370 C.3   146  LEU146      0.0270
    186  CG        15.5170    2.4440   16.6720 C.3   146  LEU146      0.0019
    187  CD1       15.2870    2.6360   15.1860 C.3   146  LEU146      0.0001
    188  CD2       15.6550    0.9660   17.0810 C.3   146  LEU146      0.0001
    189  N         10.8560    4.3070   16.3300 N.3   156  CYS156     -0.1221
    190  CA        10.4020    3.3690   15.2940 C.3   156  CYS156      0.1808
    191  C          9.1090    2.6910   15.7350 C.2   156  CYS156      0.2601
    192  O          8.5610    3.0330   16.7930 O.2   156  CYS156     -0.2717
    193  CB        11.4830    2.3550   14.9030 C.3   156  CYS156      0.0970
    194  SG        11.9380    1.1710   16.2020 S.3   156  CYS156     -0.0800
    195  N          8.6160    1.7560   14.8960 N.am  157  ASP157     -0.1973
    196  CA         7.4360    0.9100   15.0880 C.3   157  ASP157      0.1709
    197  C          6.1350    1.7080   15.1740 C.2   157  ASP157      0.2293
    198  O          5.6150    1.9410   16.2660 O.2   157  ASP157     -0.2864
    199  CB         7.6210   -0.0350   16.2850 C.3   157  ASP157      0.1436
    200  CG         6.5510   -1.0860   16.4730 C.2   157  ASP157      0.3671
    201  OD1        5.6740   -1.2060   15.5890 O.co2 157  ASP157     -0.2456
    202  OD2        6.6050   -1.8150   17.5020 O.co2 157  ASP157     -0.2456
@<TRIPOS>BOND
     1    79    78    2
     2   101   102    1
     3    78    77    1
     4    70    69    2
     5    76    77    1
     6    65    64    2
     7   116   115   ar
     8    83    81    1
     9   102   103    1
    10   102   105    1
    11   104   103    2
    12    77    80    1
    13    80    81    1
    14    80    82    1
    15    69    68    1
    16   103   110   am
    17    67    68    1
    18    64    63    1
    19    86    87    2
    20    86    85    1
    21    62    63    1
    22   106   105    1
    23   106   107    1
    24   110   111    1
    25   115   117   ar
    26   115   114    1
    27    68    71    1
    28   111   114    1
    29   111   112    1
    30    63    66    1
    31    84    85    1
    32    85    88    1
    33    71    72    1
    34   107   109   am
    35   107   108    2
    36   118   112   am
    37   118   119    1
    38    88    89    1
    39   112   113    2
    40    72    73    1
    41    89    90    1
    42    50    49    2
    43    95    96    2
    44    95    94    1
    45   122   119    1
    46   122   123    1
    47    34    33    2
    48    91    90   ar
    49    74    73    1
    50    74    75    1
    51    90    92   ar
    52    38    40   ar
    53    38    36   ar
    54   119   120    1
    55   125   123    1
    56    40    41   ar
    57    53    52    1
    58    53    54    1
    59    98   100    1
    60    98    97    1
    61    49    48    1
    62    49    55   am
    63    51    48    1
    64    51    52    1
    65   123   124    1
    66    47    48    1
    67    47    45   am
    68    94    97    1
    69    94    93    1
    70    33    43    1
    71    33    32    1
    72    44    43    2
    73    44    45    1
    74   121   120    2
    75    35    36    1
    76    35    32    1
    77    57    56    1
    78    57    58    2
    79    56    55    1
    80    56    59    1
    81    36    37   ar
    82    99    97    1
    83   120   126   am
    84    41    42    1
    85    41    39   ar
    86    60    59    1
    87    45    46    2
    88    32    31    1
    89    59    61    1
    90    37    39   ar
    91   126   127    1
    92     8     6    1
    93    31    28   am
    94     6     5    1
    95   132   131    1
    96   132   133    1
    97     1     2    1
    98   127   128    1
    99   127   130    1
   100   131   130    1
   101    29    28    2
   102    12    11    2
   103     5     2    1
   104     5     7    1
   105    28    27    1
   106   129   128    2
   107   195   196    1
   108   195   191   am
   109   193   190    1
   110   193   194    1
   111   196   197    1
   112   196   199    1
   113   128   134   am
   114   197   198    2
   115   187   186    1
   116   190   191    1
   117   190   189    1
   118     2     3    1
   119    17    14    1
   120    17    18    1
   121   201   200   ar
   122   191   192    2
   123    20    19   ar
   124     9     3   am
   125     9    10    1
   126    25    24    2
   127    11    13   am
   128    11    10    1
   129    14    13    1
   130    14    15    1
   131    21    19   ar
   132    19    18    1
   133    22    23    1
   134    22    15   am
   135   134   135    1
   136    27    26    1
   137    27    30    1
   138   199   200    1
   139    24    26   am
   140    24    23    1
   141     3     4    2
   142   200   202   ar
   143   186   188    1
   144   186   185    1
   145   141   140   ar
   146    15    16    2
   147   135   138    1
   148   135   136    1
   149   185   182    1
   150   138   139    1
   151   136   137    2
   152   136   143   am
   153   140   142   ar
   154   140   139    1
   155   143   144    1
   156   182   183    1
   157   182   181    1
   158   184   183    2
   159   179   178    2
   160   176   175    2
   161   146   145    2
   162   178   180   am
   163   178   177    1
   164   166   165    1
   165   144   145    1
   166   144   147    1
   167   145   150   am
   168   175   174    1
   169   170   169    2
   170   174   177    1
   171   174   173    1
   172   157   155   ar
   173   165   164    1
   174   150   151    1
   175   154   151    1
   176   154   155    1
   177   147   149    1
   178   147   148    1
   179   169   173   am
   180   169   168    1
   181   151   152    1
   182   155   156   ar
   183   164   163    1
   184   172   171    1
   185   171   168    1
   186   168   167    1
   187   152   153    2
   188   163   162    1
   189   162   159    1
   190   158   159    1
   191   159   160    1
   192   160   161    2
