@<TRIPOS>MOLECULE
tmp/5buiA00.pdb
 151 141 0 0 0
SMALL
GASTEIGER

@<TRIPOS>ATOM
      1  N        -19.0220    9.2480   14.4620 N.3    21  ILE21      -0.1245
      2  CA       -18.9610    8.1800   15.4660 C.3    21  ILE21       0.1561
      3  C        -17.8760    8.5370   16.5010 C.2    21  ILE21       0.2260
      4  O        -18.1340    8.4620   17.7040 O.2    21  ILE21      -0.2867
      5  CB       -18.7160    6.7720   14.8260 C.3    21  ILE21       0.0252
      6  CG1      -19.9650    6.2390   14.0850 C.3    21  ILE21       0.0019
      7  CG2      -18.1920    5.7410   15.8580 C.3    21  ILE21       0.0019
      8  CD1      -19.6680    5.0540   13.2470 C.3    21  ILE21       0.0001
      9  N         -6.2800    7.1900   15.6630 N.3    26  TYR26      -0.1241
     10  CA        -6.6420    6.3450   14.5230 C.3    26  TYR26       0.1605
     11  C         -7.2050    7.1320   13.3280 C.2    26  TYR26       0.2264
     12  O         -7.2630    6.5880   12.2270 O.2    26  TYR26      -0.2867
     13  CB        -7.6310    5.2380   14.9570 C.3    26  TYR26       0.0534
     14  CG        -8.8430    5.7350   15.7180 C.ar   26  TYR26      -0.0201
     15  CD1       -9.9560    6.2430   15.0480 C.ar   26  TYR26      -0.0009
     16  CD2       -8.8870    5.6810   17.1090 C.ar   26  TYR26      -0.0009
     17  CE1      -11.0700    6.7090   15.7450 C.ar   26  TYR26       0.0417
     18  CE2      -10.0070    6.1210   17.8160 C.ar   26  TYR26       0.0417
     19  CZ       -11.0960    6.6370   17.1290 C.ar   26  TYR26       0.1957
     20  OH       -12.1920    7.0850   17.8270 O.3    26  TYR26      -0.2866
     21  N        -13.8460    8.4300   12.4440 N.3    29  VAL29      -0.1245
     22  CA       -14.7810    7.3850   12.0600 C.3    29  VAL29       0.1561
     23  C        -16.1860    7.9590   11.9130 C.2    29  VAL29       0.2260
     24  O        -16.6520    8.7160   12.7740 O.2    29  VAL29      -0.2867
     25  CB       -14.7420    6.1500   13.0200 C.3    29  VAL29       0.0252
     26  CG1      -15.7460    5.0680   12.5830 C.3    29  VAL29       0.0019
     27  CG2      -13.3340    5.5610   13.0990 C.3    29  VAL29       0.0019
     28  N        -19.0130    1.5470    8.2410 N.3    42  ALA42      -0.1245
     29  CA       -18.1430    2.4460    8.9910 C.3    42  ALA42       0.1562
     30  C        -17.0550    2.8850    8.0120 C.2    42  ALA42       0.2260
     31  O        -16.5540    2.0760    7.2230 O.2    42  ALA42      -0.2867
     32  CB       -17.5180    1.7080   10.1780 C.3    42  ALA42       0.0290
     33  N        -13.3430    5.0350    8.0100 N.3    44  LYS44      -0.1245
     34  CA       -12.2790    5.6730    8.7820 C.3    44  LYS44       0.1561
     35  C        -11.3870    6.4870    7.8770 C.2    44  LYS44       0.2260
     36  O        -10.7250    5.9340    7.0060 O.2    44  LYS44      -0.2867
     37  CB       -11.4710    4.6340    9.5660 C.3    44  LYS44       0.0271
     38  CG       -10.3860    5.2380   10.4840 C.3    44  LYS44       0.0035
     39  CD        -9.6920    4.1650   11.3330 C.3    44  LYS44       0.0206
     40  CE        -8.8090    3.2160   10.5300 C.3    44  LYS44       0.1093
     41  NZ        -8.1910    2.1870   11.4110 N.3    44  LYS44      -0.1314
     42  N        -12.3330   -7.5430   12.7910 N.3    74  ILE74      -0.1245
     43  CA       -12.8980   -6.6910   11.7460 C.3    74  ILE74       0.1561
     44  C        -12.0540   -6.8200   10.4540 C.2    74  ILE74       0.2260
     45  O        -10.8410   -7.0110   10.5110 O.2    74  ILE74      -0.2867
     46  CB       -12.9660   -5.2110   12.2470 C.3    74  ILE74       0.0252
     47  CG1      -14.0180   -4.3890   11.4510 C.3    74  ILE74       0.0019
     48  CG2      -11.5850   -4.5200   12.2040 C.3    74  ILE74       0.0019
     49  CD1      -15.3940   -4.4270   12.0070 C.3    74  ILE74       0.0001
     50  N        -15.3930   -0.3780    6.4910 N.3    95  GLN95      -0.1231
     51  CA       -15.5030   -1.6330    7.2470 C.3    95  GLN95       0.1698
     52  C        -16.9430   -1.8650    7.7100 C.2    95  GLN95       0.2592
     53  O        -17.7660   -0.9360    7.6570 O.2    95  GLN95      -0.2718
     54  CB       -14.5450   -1.5870    8.4760 C.3    95  GLN95       0.0381
     55  CG       -13.0860   -1.2370    8.1470 C.3    95  GLN95       0.0905
     56  CD       -12.2130   -1.1230    9.3750 C.2    95  GLN95       0.2608
     57  OE1      -11.4870   -2.0540    9.7580 O.2    95  GLN95      -0.2717
     58  NE2      -12.2670    0.0130   10.0180 N.am   95  GLN95      -0.0878
     59  N        -17.2380   -3.0840    8.2030 N.am   96  ASP96      -0.1960
     60  CA       -18.5570   -3.3870    8.7720 C.3    96  ASP96       0.1840
     61  C        -18.8690   -2.4000    9.8990 C.2    96  ASP96       0.2622
     62  O        -17.9990   -2.0890   10.7170 O.2    96  ASP96      -0.2715
     63  CB       -18.6070   -4.8110    9.3560 C.3    96  ASP96       0.1450
     64  CG       -18.4910   -5.9270    8.3420 C.2    96  ASP96       0.3671
     65  OD1      -18.8420   -5.6990    7.1510 O.co2  96  ASP96      -0.2456
     66  OD2      -18.0800   -7.0370    8.7360 O.co2  96  ASP96      -0.2456
     67  N        -20.1000   -1.9100    9.9230 N.am   97  LEU97      -0.1963
     68  CA       -20.5830   -1.0090   10.9480 C.3    97  LEU97       0.1728
     69  C        -21.1510   -1.8460   12.0850 C.2    97  LEU97       0.2616
     70  O        -22.0120   -2.7020   11.8660 O.2    97  LEU97      -0.2715
     71  CB       -21.6820   -0.0660   10.4010 C.3    97  LEU97       0.0311
     72  CG       -22.3160    0.8870   11.4400 C.3    97  LEU97       0.0022
     73  CD1      -21.3000    1.8900   11.9570 C.3    97  LEU97       0.0001
     74  CD2      -23.5440    1.5880   10.8800 C.3    97  LEU97       0.0001
     75  N        -20.6650   -1.5950   13.2890 N.am   98  MET98      -0.1963
     76  CA       -21.1300   -2.3080   14.4870 C.3    98  MET98       0.1736
     77  C        -22.1340   -1.4190   15.2600 C.2    98  MET98       0.2616
     78  O        -22.3250   -0.2600   14.8960 O.2    98  MET98      -0.2715
     79  CB       -19.9190   -2.7750   15.3350 C.3    98  MET98       0.0427
     80  CG       -19.0360   -3.7590   14.5770 C.3    98  MET98       0.0599
     81  SD       -19.8590   -5.3260   14.2430 S.3    98  MET98      -0.1393
     82  CE       -19.2900   -6.3030   15.6830 C.3    98  MET98       0.0692
     83  N        -22.8190   -1.9610   16.2570 N.am   99  GLU99      -0.1963
     84  CA       -23.8340   -1.1900   16.9930 C.3    99  GLU99       0.1733
     85  C        -23.2060   -0.2710   18.0320 C.2    99  GLU99       0.2617
     86  O        -23.7170    0.8410   18.2650 O.2    99  GLU99      -0.2715
     87  CB       -24.8710   -2.1470   17.6450 C.3    99  GLU99       0.0429
     88  CG       -26.0640   -1.4570   18.3040 C.3    99  GLU99       0.1163
     89  CD       -26.9650   -0.6250   17.4050 C.2    99  GLU99       0.3649
     90  OE1      -27.1900   -1.0220   16.2380 O.co2  99  GLU99      -0.2457
     91  OE2      -27.4750    0.4130   17.8850 O.co2  99  GLU99      -0.2457
     92  N        -22.1180   -0.7370   18.6890 N.am  100  THR100     -0.1937
     93  CA       -21.4670    0.0430   19.7560 C.3   100  THR100      0.2028
     94  C        -20.0600   -0.5250   20.0220 C.2   100  THR100      0.2642
     95  O        -19.6320   -1.4520   19.3490 O.2   100  THR100     -0.2714
     96  CB       -22.3920    0.0690   21.0570 C.3   100  THR100      0.1808
     97  OG1      -21.8340    0.9270   22.0520 O.3   100  THR100     -0.2208
     98  CG2      -22.6290   -1.3090   21.6600 C.3   100  THR100      0.0379
     99  N        -19.3530    0.0360   20.9930 N.am  101  ASP101     -0.1971
    100  CA       -18.0930   -0.5280   21.4560 C.3   101  ASP101      0.1709
    101  C        -18.2100   -0.7940   22.9630 C.2   101  ASP101      0.2293
    102  O        -19.1460   -0.2930   23.5970 O.2   101  ASP101     -0.2864
    103  CB       -16.8830    0.3500   21.0960 C.3   101  ASP101      0.1436
    104  CG       -16.9160    1.7460   21.6630 C.2   101  ASP101      0.3671
    105  OD1      -16.7170    2.7010   20.8870 O.co2 101  ASP101     -0.2456
    106  OD2      -17.0950    1.8830   22.8820 O.co2 101  ASP101     -0.2456
    107  N        -18.4330    2.4850   25.3400 N.3   104  LYS104     -0.1245
    108  CA       -19.7800    3.0880   25.4420 C.3   104  LYS104      0.1561
    109  C        -20.7010    2.1900   26.2540 C.2   104  LYS104      0.2260
    110  O        -21.4640    2.6970   27.0850 O.2   104  LYS104     -0.2867
    111  CB       -20.4010    3.3330   24.0560 C.3   104  LYS104      0.0271
    112  CG       -19.5790    4.2670   23.1540 C.3   104  LYS104      0.0035
    113  CD       -20.3250    4.5990   21.8650 C.3   104  LYS104      0.0206
    114  CE       -19.6560    5.7190   21.0990 C.3   104  LYS104      0.1093
    115  NZ       -20.4760    6.1730   19.9480 N.3   104  LYS104     -0.1314
    116  N        -12.6620    0.6320   23.7620 N.3   143  SER143     -0.1202
    117  CA       -13.0710    1.3320   22.5250 C.3   143  SER143      0.2020
    118  C        -12.6670    0.5910   21.2310 C.2   143  SER143      0.2618
    119  O        -13.1970    0.9040   20.1550 O.2   143  SER143     -0.2717
    120  CB       -12.5820    2.7830   22.5080 C.3   143  SER143      0.2103
    121  OG       -11.1770    2.8290   22.7090 O.3   143  SER143     -0.2182
    122  N        -11.7600   -0.4090   21.3450 N.am  144  ASN144     -0.1974
    123  CA       -11.3040   -1.2570   20.2390 C.3   144  ASN144      0.1688
    124  C        -12.0740   -2.5830   20.1740 C.2   144  ASN144      0.2292
    125  O        -11.7330   -3.4460   19.3690 O.2   144  ASN144     -0.2864
    126  CB        -9.7930   -1.5360   20.3680 C.3   144  ASN144      0.1181
    127  CG        -9.0110   -0.3630   19.9090 C.2   144  ASN144      0.2629
    128  OD1       -9.5430    0.5340   19.2550 O.2   144  ASN144     -0.2716
    129  ND2       -7.7400   -0.3360   20.2220 N.am  144  ASN144     -0.0877
    130  N        -15.6900   -3.9710   19.4530 N.3   146  LEU146     -0.1245
    131  CA       -16.9540   -3.5930   18.8180 C.3   146  LEU146      0.1561
    132  C        -17.9870   -4.6490   19.0220 C.2   146  LEU146      0.2260
    133  O        -17.6750   -5.8310   19.0050 O.2   146  LEU146     -0.2867
    134  CB       -16.7300   -3.4090   17.3130 C.3   146  LEU146      0.0270
    135  CG       -15.6080   -2.4750   16.8740 C.3   146  LEU146      0.0019
    136  CD1      -15.4910   -2.4970   15.3720 C.3   146  LEU146      0.0001
    137  CD2      -15.8330   -1.0250   17.3970 C.3   146  LEU146      0.0001
    138  N        -10.9160   -4.3680   16.6990 N.3   156  CYS156     -0.1221
    139  CA       -10.5100   -3.4660   15.6220 C.3   156  CYS156      0.1808
    140  C         -9.2470   -2.7180   16.0230 C.2   156  CYS156      0.2601
    141  O         -8.6930   -2.9270   17.1210 O.2   156  CYS156     -0.2717
    142  CB       -11.6420   -2.5090   15.2380 C.3   156  CYS156      0.0970
    143  SG       -12.0080   -1.2540   16.4900 S.3   156  CYS156     -0.0800
    144  N         -8.7780   -1.8610   15.0910 N.am  157  ASP157     -0.1973
    145  CA        -7.6330   -0.9630   15.2160 C.3   157  ASP157      0.1709
    146  C         -6.3220   -1.6910   15.3630 C.2   157  ASP157      0.2293
    147  O         -5.7660   -1.7760   16.4630 O.2   157  ASP157     -0.2864
    148  CB        -7.8610    0.0900   16.3170 C.3   157  ASP157      0.1436
    149  CG        -6.9210    1.2890   16.2370 C.2   157  ASP157      0.3671
    150  OD1       -5.9620    1.2460   15.4320 O.co2 157  ASP157     -0.2456
    151  OD2       -7.1380    2.2630   16.9900 O.co2 157  ASP157     -0.2456
@<TRIPOS>BOND
     1    50    51    1
     2    36    35    2
     3    65    64   ar
     4    31    30    2
     5    51    52    1
     6    51    54    1
     7    53    52    2
     8    52    59   am
     9    35    34    1
    10    33    34    1
    11    30    29    1
    12    55    54    1
    13    55    56    1
    14    59    60    1
    15    28    29    1
    16    64    66   ar
    17    64    63    1
    18    60    63    1
    19    60    61    1
    20    34    37    1
    21    29    32    1
    22    56    57    2
    23    56    58   am
    24    37    38    1
    25    61    67   am
    26    61    62    2
    27    67    68    1
    28    71    68    1
    29    71    72    1
    30    44    45    2
    31    44    43    1
    32    38    39    1
    33    40    39    1
    34    40    41    1
    35    74    72    1
    36    68    69    1
    37    72    73    1
    38    47    49    1
    39    47    46    1
    40    43    46    1
    41    43    42    1
    42    70    69    2
    43    23    22    1
    44    23    24    2
    45    22    21    1
    46    22    25    1
    47    69    75   am
    48    48    46    1
    49    12    11    2
    50    26    25    1
    51    25    27    1
    52     8     6    1
    53    75    76    1
    54    11    10    1
    55     6     5    1
    56    81    80    1
    57    81    82    1
    58     1     2    1
    59    76    77    1
    60    76    79    1
    61    10    13    1
    62    10     9    1
    63    80    79    1
    64     5     2    1
    65     5     7    1
    66    78    77    2
    67    13    14    1
    68    15    14   ar
    69    15    17   ar
    70   144   145    1
    71   144   140   am
    72   145   146    1
    73   145   148    1
    74   142   139    1
    75   142   143    1
    76    77    83   am
    77   146   147    2
    78   136   135    1
    79   150   149   ar
    80     2     3    1
    81   139   140    1
    82   139   138    1
    83    14    16   ar
    84    17    19   ar
    85   140   141    2
    86   149   148    1
    87   149   151   ar
    88    90    89   ar
    89    83    84    1
    90     3     4    2
    91   135   134    1
    92   135   137    1
    93    84    87    1
    94    84    85    1
    95    16    18   ar
    96    19    18   ar
    97    19    20    1
    98   134   131    1
    99    89    91   ar
   100    89    88    1
   101    87    88    1
   102    85    86    2
   103    85    92   am
   104    92    93    1
   105   131   132    1
   106   131   130    1
   107   133   132    2
   108   128   127    2
   109    95    94    2
   110   125   124    2
   111    93    94    1
   112    93    96    1
   113   127   129   am
   114   127   126    1
   115   115   114    1
   116    94    99   am
   117   119   118    2
   118   124   123    1
   119   123   126    1
   120   123   122    1
   121   105   104   ar
   122    99   100    1
   123    96    98    1
   124    96    97    1
   125   103   100    1
   126   103   104    1
   127   114   113    1
   128   118   122   am
   129   118   117    1
   130   100   101    1
   131   104   106   ar
   132   113   112    1
   133   120   117    1
   134   120   121    1
   135   117   116    1
   136   101   102    2
   137   112   111    1
   138   111   108    1
   139   107   108    1
   140   108   109    1
   141   109   110    2
