@<TRIPOS>MOLECULE
tmp/5bujA00.pdb
 160 149 0 0 0
SMALL
GASTEIGER

@<TRIPOS>ATOM
      1  N        -19.1510    9.3890   14.2860 N.3    23  ILE23      -0.1245
      2  CA       -19.0960    8.3360   15.3010 C.3    23  ILE23       0.1561
      3  C        -18.0790    8.7450   16.3700 C.2    23  ILE23       0.2260
      4  O        -18.3900    8.7320   17.5630 O.2    23  ILE23      -0.2867
      5  CB       -18.8170    6.9090   14.7290 C.3    23  ILE23       0.0252
      6  CG1      -20.0410    6.3570   13.9640 C.3    23  ILE23       0.0019
      7  CG2      -18.3740    5.9170   15.8490 C.3    23  ILE23       0.0019
      8  CD1      -19.7430    5.0900   13.2220 C.3    23  ILE23       0.0001
      9  N         -6.5110    7.2730   15.6680 N.3    28  TYR28      -0.1241
     10  CA        -6.7850    6.4410   14.4900 C.3    28  TYR28       0.1605
     11  C         -7.3320    7.2560   13.3000 C.2    28  TYR28       0.2264
     12  O         -7.3880    6.7490   12.1760 O.2    28  TYR28      -0.2867
     13  CB        -7.7500    5.2840   14.8620 C.3    28  TYR28       0.0534
     14  CG        -9.0270    5.7360   15.5410 C.ar   28  TYR28      -0.0201
     15  CD1      -10.0800    6.2750   14.8050 C.ar   28  TYR28      -0.0009
     16  CD2       -9.1690    5.6600   16.9220 C.ar   28  TYR28      -0.0009
     17  CE1      -11.2300    6.7510   15.4300 C.ar   28  TYR28       0.0417
     18  CE2      -10.3310    6.1010   17.5560 C.ar   28  TYR28       0.0417
     19  CZ       -11.3560    6.6480   16.8050 C.ar   28  TYR28       0.1957
     20  OH       -12.5030    7.0810   17.4190 O.3    28  TYR28      -0.2866
     21  N        -13.9710    8.5740   12.4200 N.3    31  VAL31      -0.1245
     22  CA       -14.8820    7.5460   11.9590 C.3    31  VAL31       0.1561
     23  C        -16.2740    8.1330   11.8190 C.2    31  VAL31       0.2260
     24  O        -16.7610    8.7980   12.7440 O.2    31  VAL31      -0.2867
     25  CB       -14.8730    6.2680   12.8640 C.3    31  VAL31       0.0252
     26  CG1      -15.9230    5.2670   12.3910 C.3    31  VAL31       0.0019
     27  CG2      -13.4950    5.6030   12.8900 C.3    31  VAL31       0.0019
     28  N        -19.1160    1.6610    8.2630 N.3    44  ALA44      -0.1245
     29  CA       -18.2490    2.5810    8.9720 C.3    44  ALA44       0.1562
     30  C        -17.1520    3.0060    8.0070 C.2    44  ALA44       0.2260
     31  O        -16.6130    2.1790    7.2650 O.2    44  ALA44      -0.2867
     32  CB       -17.6090    1.8980   10.1870 C.3    44  ALA44       0.0290
     33  N        -13.4450    5.1120    8.1140 N.3    46  LYS46      -0.1245
     34  CA       -12.3690    5.7380    8.8770 C.3    46  LYS46       0.1561
     35  C        -11.4590    6.5470    7.9460 C.2    46  LYS46       0.2260
     36  O        -10.8230    5.9800    7.0510 O.2    46  LYS46      -0.2867
     37  CB       -11.5700    4.6530    9.6220 C.3    46  LYS46       0.0271
     38  CG       -10.4430    5.2120   10.4930 C.3    46  LYS46       0.0035
     39  CD        -9.7500    4.1260   11.3330 C.3    46  LYS46       0.0206
     40  CE        -8.9690    3.1010   10.5490 C.3    46  LYS46       0.1093
     41  NZ        -7.9390    2.4390   11.4300 N.3    46  LYS46      -0.1314
     42  N         -1.7510   -1.9730    9.1080 N.3    63  GLU63      -0.1245
     43  CA        -3.1790   -2.2730    9.3120 C.3    63  GLU63       0.1567
     44  C         -3.8490   -2.8250    8.0630 C.2    63  GLU63       0.2260
     45  O         -4.5570   -3.8470    8.1250 O.2    63  GLU63      -0.2867
     46  CB        -3.9710   -1.0860    9.8700 C.3    63  GLU63       0.0388
     47  CG        -5.4130   -1.5210   10.1060 C.3    63  GLU63       0.1160
     48  CD        -6.3170   -0.4960   10.7400 C.2    63  GLU63       0.3649
     49  OE1       -6.8570   -0.7740   11.8380 O.co2  63  GLU63      -0.2457
     50  OE2       -6.5280    0.5640   10.1070 O.co2  63  GLU63      -0.2457
     51  N        -12.3090   -7.3150   12.8390 N.3    76  ILE76      -0.1245
     52  CA       -12.8680   -6.4090   11.8290 C.3    76  ILE76       0.1561
     53  C        -12.1470   -6.6470   10.4890 C.2    76  ILE76       0.2260
     54  O        -10.9510   -6.9180   10.4790 O.2    76  ILE76      -0.2867
     55  CB       -12.7350   -4.9200   12.3170 C.3    76  ILE76       0.0252
     56  CG1      -13.7760   -3.9660   11.6390 C.3    76  ILE76       0.0019
     57  CG2      -11.2950   -4.3660   12.1540 C.3    76  ILE76       0.0019
     58  CD1      -15.2850   -4.3110   11.9020 C.3    76  ILE76       0.0001
     59  N        -15.4150   -0.2680    6.6400 N.3    97  GLN97      -0.1231
     60  CA       -15.5540   -1.4830    7.4440 C.3    97  GLN97       0.1698
     61  C        -16.9860   -1.6780    7.8830 C.2    97  GLN97       0.2592
     62  O        -17.8100   -0.7660    7.7480 O.2    97  GLN97      -0.2718
     63  CB       -14.6210   -1.4010    8.6780 C.3    97  GLN97       0.0381
     64  CG       -13.1400   -1.1400    8.2900 C.3    97  GLN97       0.0905
     65  CD       -12.2870   -0.8580    9.4860 C.2    97  GLN97       0.2608
     66  OE1      -12.3930    0.1980   10.1120 O.2    97  GLN97      -0.2717
     67  NE2      -11.4080   -1.7950    9.8170 N.am   97  GLN97      -0.0878
     68  N        -17.2920   -2.8960    8.3770 N.am   98  ASP98      -0.1960
     69  CA       -18.6050   -3.2250    8.8920 C.3    98  ASP98       0.1840
     70  C        -18.9610   -2.2490    9.9880 C.2    98  ASP98       0.2622
     71  O        -18.1300   -1.8990   10.8400 O.2    98  ASP98      -0.2715
     72  CB       -18.6500   -4.6460    9.4770 C.3    98  ASP98       0.1450
     73  CG       -18.5140   -5.8020    8.4990 C.2    98  ASP98       0.3671
     74  OD1      -18.7590   -5.5980    7.2810 O.co2  98  ASP98      -0.2456
     75  OD2      -18.1850   -6.9050    8.9450 O.co2  98  ASP98      -0.2456
     76  N        -20.2060   -1.7990    9.9560 N.am   99  LEU99      -0.1963
     77  CA       -20.6910   -0.8950   10.9690 C.3    99  LEU99       0.1728
     78  C        -21.2250   -1.6930   12.1440 C.2    99  LEU99       0.2616
     79  O        -22.0760   -2.5680   11.9630 O.2    99  LEU99      -0.2715
     80  CB       -21.7670    0.0460   10.3990 C.3    99  LEU99       0.0311
     81  CG       -22.4020    1.0430   11.3850 C.3    99  LEU99       0.0022
     82  CD1      -21.3830    2.0510   11.9080 C.3    99  LEU99       0.0001
     83  CD2      -23.5960    1.7540   10.7550 C.3    99  LEU99       0.0001
     84  N        -20.7260   -1.3840   13.3520 N.am  100  MET100     -0.1963
     85  CA       -21.2130   -2.0460   14.5790 C.3   100  MET100      0.1736
     86  C        -22.1450   -1.1030   15.3720 C.2   100  MET100      0.2616
     87  O        -22.3410    0.0590   14.9780 O.2   100  MET100     -0.2715
     88  CB       -20.0110   -2.5950   15.4000 C.3   100  MET100      0.0427
     89  CG       -19.1460   -3.5650   14.5770 C.3   100  MET100      0.0599
     90  SD       -19.9470   -5.1410   14.2790 S.3   100  MET100     -0.1393
     91  CE       -19.5130   -6.0160   15.8700 C.3   100  MET100      0.0692
     92  N        -22.7490   -1.5900   16.4580 N.am  101  GLU101     -0.1963
     93  CA       -23.6900   -0.7640   17.2300 C.3   101  GLU101      0.1733
     94  C        -22.9880    0.2140   18.1650 C.2   101  GLU101      0.2617
     95  O        -23.4460    1.3440   18.3500 O.2   101  GLU101     -0.2715
     96  CB       -24.6270   -1.6730   18.0700 C.3   101  GLU101      0.0429
     97  CG       -25.7290   -0.9320   18.8180 C.3   101  GLU101      0.1163
     98  CD       -26.5810    0.0310   18.0100 C.2   101  GLU101      0.3649
     99  OE1      -26.8090   -0.2270   16.8040 O.co2 101  GLU101     -0.2457
    100  OE2      -27.0180    1.0530   18.5880 O.co2 101  GLU101     -0.2457
    101  N        -21.9400   -0.2610   18.8420 N.am  102  THR102     -0.1937
    102  CA       -21.2480    0.5260   19.8570 C.3   102  THR102      0.2028
    103  C        -19.8810   -0.1050   20.1040 C.2   102  THR102      0.2642
    104  O        -19.5020   -1.0660   19.4430 O.2   102  THR102     -0.2714
    105  CB       -22.1190    0.5570   21.1870 C.3   102  THR102      0.1808
    106  OG1      -21.5270    1.4610   22.1160 O.3   102  THR102     -0.2208
    107  CG2      -22.2560   -0.8300   21.8520 C.3   102  THR102      0.0379
    108  N        -19.1640    0.4190   21.0640 N.am  103  ASP103     -0.1971
    109  CA       -17.9160   -0.2110   21.4880 C.3   103  ASP103      0.1709
    110  C        -18.0010   -0.4680   22.9830 C.2   103  ASP103      0.2293
    111  O        -18.9020    0.0740   23.6520 O.2   103  ASP103     -0.2864
    112  CB       -16.6690    0.5790   21.0650 C.3   103  ASP103      0.1436
    113  CG       -16.6040    1.9780   21.6120 C.2   103  ASP103      0.3671
    114  OD1      -16.2950    2.8980   20.8370 O.co2 103  ASP103     -0.2456
    115  OD2      -16.8380    2.1510   22.8240 O.co2 103  ASP103     -0.2456
    116  N        -18.0690    2.7280   25.3570 N.3   106  LYS106     -0.1245
    117  CA       -19.3880    3.3790   25.4820 C.3   106  LYS106      0.1561
    118  C        -20.3770    2.5130   26.2460 C.2   106  LYS106      0.2260
    119  O        -21.1440    3.0240   27.0680 O.2   106  LYS106     -0.2867
    120  CB       -19.9520    3.7110   24.1030 C.3   106  LYS106      0.0271
    121  CG       -19.1380    4.7950   23.3870 C.3   106  LYS106      0.0035
    122  CD       -19.8670    5.3740   22.1730 C.3   106  LYS106      0.0206
    123  CE       -19.9140    4.4360   20.9880 C.3   106  LYS106      0.1093
    124  NZ       -20.5690    5.0540   19.8020 N.3   106  LYS106     -0.1314
    125  N        -12.3920    0.7320   23.8070 N.3   145  SER145     -0.1202
    126  CA       -12.8410    1.4260   22.5890 C.3   145  SER145      0.2020
    127  C        -12.4490    0.6920   21.2920 C.2   145  SER145      0.2618
    128  O        -12.9930    1.0100   20.2390 O.2   145  SER145     -0.2717
    129  CB       -12.3550    2.8780   22.5640 C.3   145  SER145      0.2103
    130  OG       -10.9380    2.9070   22.5710 O.3   145  SER145     -0.2182
    131  N        -11.5450   -0.3010   21.3710 N.am  146  ASN146     -0.1974
    132  CA       -11.1360   -1.1110   20.2240 C.3   146  ASN146      0.1688
    133  C        -11.9160   -2.4310   20.1560 C.2   146  ASN146      0.2292
    134  O        -11.6070   -3.2850   19.3220 O.2   146  ASN146     -0.2864
    135  CB        -9.5940   -1.3570   20.2440 C.3   146  ASN146      0.1181
    136  CG        -8.8530   -0.1420   19.7660 C.2   146  ASN146      0.2629
    137  OD1       -9.4120    0.7120   19.0780 O.2   146  ASN146     -0.2716
    138  ND2       -7.5780   -0.0550   20.0760 N.am  146  ASN146     -0.0877
    139  N        -15.5540   -3.7320   19.4180 N.3   148  LEU148     -0.1245
    140  CA       -16.8360   -3.3100   18.8480 C.3   148  LEU148      0.1561
    141  C        -17.8940   -4.3450   19.0680 C.2   148  LEU148      0.2260
    142  O        -17.6150   -5.5310   18.9300 O.2   148  LEU148     -0.2867
    143  CB       -16.6680   -3.0800   17.3330 C.3   148  LEU148      0.0270
    144  CG       -15.5110   -2.1730   16.8910 C.3   148  LEU148      0.0019
    145  CD1      -15.4050   -2.1620   15.3470 C.3   148  LEU148      0.0001
    146  CD2      -15.6890   -0.7390   17.4340 C.3   148  LEU148      0.0001
    147  N        -10.8830   -4.2350   16.6720 N.3   158  CYS158     -0.1221
    148  CA       -10.4730   -3.3680   15.5840 C.3   158  CYS158      0.1808
    149  C         -9.1650   -2.6590   15.9270 C.2   158  CYS158      0.2601
    150  O         -8.5970   -2.8570   17.0090 O.2   158  CYS158     -0.2717
    151  CB       -11.5790   -2.3750   15.2230 C.3   158  CYS158      0.0970
    152  SG       -11.8690   -1.1000   16.4760 S.3   158  CYS158     -0.0800
    153  N         -8.6950   -1.8230   14.9940 N.am  159  ASP159     -0.1973
    154  CA        -7.5260   -0.9600   15.1450 C.3   159  ASP159      0.1709
    155  C         -6.2250   -1.6900   15.2510 C.2   159  ASP159      0.2293
    156  O         -5.7090   -1.8890   16.3490 O.2   159  ASP159     -0.2864
    157  CB        -7.7230    0.0500   16.2790 C.3   159  ASP159      0.1436
    158  CG        -6.9500    1.3310   16.0450 C.2   159  ASP159      0.3671
    159  OD1       -5.8240    1.2580   15.4920 O.co2 159  ASP159     -0.2456
    160  OD2       -7.4920    2.4090   16.3610 O.co2 159  ASP159     -0.2456
@<TRIPOS>BOND
     1    59    60    1
     2    36    35    2
     3    31    30    2
     4    74    73   ar
     5    60    61    1
     6    60    63    1
     7    62    61    2
     8    61    68   am
     9    35    34    1
    10    30    29    1
    11    44    45    2
    12    44    43    1
    13    33    34    1
    14    28    29    1
    15    64    63    1
    16    64    65    1
    17    68    69    1
    18    73    75   ar
    19    73    72    1
    20    34    37    1
    21    69    72    1
    22    69    70    1
    23    29    32    1
    24    42    43    1
    25    43    46    1
    26    65    67   am
    27    65    66    2
    28    37    38    1
    29    46    47    1
    30    76    70   am
    31    76    77    1
    32    70    71    2
    33    47    48    1
    34    50    48   ar
    35    80    77    1
    36    80    81    1
    37    54    53    2
    38    53    52    1
    39    38    39    1
    40    40    39    1
    41    40    41    1
    42    48    49   ar
    43    83    81    1
    44    77    78    1
    45    81    82    1
    46    56    58    1
    47    56    55    1
    48    23    22    1
    49    23    24    2
    50    52    55    1
    51    52    51    1
    52    22    21    1
    53    22    25    1
    54    79    78    2
    55    78    84   am
    56    57    55    1
    57    12    11    2
    58    26    25    1
    59    25    27    1
    60     8     6    1
    61    11    10    1
    62    84    85    1
    63     6     5    1
    64    90    89    1
    65    90    91    1
    66     1     2    1
    67    10    13    1
    68    10     9    1
    69    89    88    1
    70    85    86    1
    71    85    88    1
    72     5     2    1
    73     5     7    1
    74    15    17   ar
    75    15    14   ar
    76    13    14    1
    77    87    86    2
    78   153   154    1
    79   153   149   am
    80   154   155    1
    81   154   157    1
    82   151   148    1
    83   151   152    1
    84   155   156    2
    85     2     3    1
    86   145   144    1
    87    86    92   am
    88    17    19   ar
    89   159   158   ar
    90    14    16   ar
    91   148   149    1
    92   148   147    1
    93   149   150    2
    94   158   157    1
    95   158   160   ar
    96     3     4    2
    97    92    93    1
    98    99    98   ar
    99    19    20    1
   100    19    18   ar
   101   144   143    1
   102   144   146    1
   103    16    18   ar
   104    93    96    1
   105    93    94    1
   106   143   140    1
   107    98   100   ar
   108    98    97    1
   109    96    97    1
   110    94    95    2
   111    94   101   am
   112   101   102    1
   113   140   141    1
   114   140   139    1
   115   142   141    2
   116   137   136    2
   117   134   133    2
   118   104   103    2
   119   136   138   am
   120   136   135    1
   121   124   123    1
   122   102   103    1
   123   102   105    1
   124   103   108   am
   125   133   132    1
   126   132   135    1
   127   132   131    1
   128   128   127    2
   129   114   113   ar
   130   123   122    1
   131   108   109    1
   132   112   109    1
   133   112   113    1
   134   105   107    1
   135   105   106    1
   136   127   131   am
   137   127   126    1
   138   109   110    1
   139   113   115   ar
   140   122   121    1
   141   129   130    1
   142   129   126    1
   143   126   125    1
   144   110   111    2
   145   121   120    1
   146   120   117    1
   147   116   117    1
   148   117   118    1
   149   118   119    2
