@<TRIPOS>MOLECULE
tmp/5burA00.pdb
 176 169 0 0 0
SMALL
GASTEIGER

@<TRIPOS>ATOM
      1  N         65.2690  161.4130    4.9360 N.3   150  THR150     -0.1203
      2  CA        65.1580  161.0310    6.3270 C.3   150  THR150      0.1994
      3  C         65.1660  162.3170    7.1480 C.2   150  THR150      0.2619
      4  O         65.4280  163.3940    6.6360 O.2   150  THR150     -0.2717
      5  CB        66.2760  160.0680    6.7560 C.3   150  THR150      0.1784
      6  OG1       67.5350  160.7150    6.6230 O.3   150  THR150     -0.2211
      7  CG2       66.2740  158.8370    5.8740 C.3   150  THR150      0.0376
      8  N         64.8540  162.2080    8.4260 N.am  151  SER151     -0.1937
      9  CA        64.6520  163.3890    9.2510 C.3   151  SER151      0.2055
     10  C         65.9620  164.1040    9.5750 C.2   151  SER151      0.2644
     11  O         65.9500  165.2700    9.9560 O.2   151  SER151     -0.2714
     12  CB        63.9160  162.9930   10.5290 C.3   151  SER151      0.2130
     13  OG        62.9880  161.9590   10.2330 O.3   151  SER151     -0.2179
     14  N         67.0880  163.4150    9.3940 N.am  152  GLY152     -0.1939
     15  CA        68.3840  163.9940    9.6880 C.3   152  GLY152      0.2014
     16  C         68.7070  164.0020   11.1760 C.2   152  GLY152      0.2640
     17  O         69.5690  164.7560   11.6330 O.2   152  GLY152     -0.2714
     18  N         68.0100  163.1550   11.9290 N.am  153  THR153     -0.1936
     19  CA        68.2180  163.0090   13.3690 C.3   153  THR153      0.2028
     20  C         69.6960  162.8320   13.7440 C.2   153  THR153      0.2643
     21  O         70.1690  163.3890   14.7470 O.2   153  THR153     -0.2714
     22  CB        67.4080  161.8010   13.9200 C.3   153  THR153      0.1808
     23  OG1       66.0410  161.9080   13.5110 O.3   153  THR153     -0.2208
     24  CG2       67.4830  161.7280   15.4420 C.3   153  THR153      0.0379
     25  N         70.4190  162.0730   12.9220 N.am  154  THR154     -0.1936
     26  CA        71.8050  161.7280   13.2140 C.3   154  THR154      0.2028
     27  C         72.7840  162.1730   12.1140 C.2   154  THR154      0.2642
     28  O         73.7710  161.4810   11.8530 O.2   154  THR154     -0.2714
     29  CB        71.9570  160.1970   13.4300 C.3   154  THR154      0.1808
     30  OG1       71.7160  159.5050   12.1990 O.3   154  THR154     -0.2208
     31  CG2       70.9740  159.6890   14.4890 C.3   154  THR154      0.0379
     32  N         72.5160  163.3160   11.4760 N.am  155  GLY155     -0.1954
     33  CA        73.3810  163.8140   10.4120 C.3   155  GLY155      0.1869
     34  C         72.6200  164.2750    9.1790 C.2   155  GLY155      0.2309
     35  O         71.4140  164.0580    9.0900 O.2   155  GLY155     -0.2863
     36  N         70.4880  164.8010    6.2380 N.3   157  PRO157     -0.2102
     37  CA        69.4120  163.9340    5.7550 C.3   157  PRO157      0.1504
     38  C         69.7310  163.2350    4.4550 C.2   157  PRO157      0.2575
     39  O         70.2580  163.8640    3.5480 O.2   157  PRO157     -0.2718
     40  CB        68.2320  164.9020    5.5610 C.3   157  PRO157      0.0282
     41  CG        68.8060  166.2510    5.6250 C.3   157  PRO157      0.0208
     42  CD        69.9850  166.1480    6.5330 C.3   157  PRO157      0.0893
     43  N         69.3950  161.9500    4.3870 N.am  158  LYS158     -0.1980
     44  CA        69.6180  161.1280    3.2110 C.3   158  LYS158      0.1596
     45  C         68.3590  160.9830    2.3770 C.2   158  LYS158      0.2287
     46  O         67.2520  160.8500    2.8970 O.2   158  LYS158     -0.2864
     47  CB        70.1100  159.7400    3.6140 C.3   158  LYS158      0.0298
     48  CG        71.3710  159.7480    4.4340 C.3   158  LYS158      0.0038
     49  CD        71.4420  158.5120    5.2790 C.3   158  LYS158      0.0206
     50  CE        70.7360  158.7520    6.6190 C.3   158  LYS158      0.1093
     51  NZ        70.6390  157.4750    7.3650 N.3   158  LYS158     -0.1314
     52  N         56.2970  154.8880   15.3380 N.3   262  GLY262     -0.1210
     53  CA        57.0920  155.8770   16.0380 C.3   262  GLY262      0.1956
     54  C         57.7860  155.4400   17.3240 C.2   262  GLY262      0.2612
     55  O         58.7930  156.0300   17.6900 O.2   262  GLY262     -0.2717
     56  N         57.2690  154.4260   18.0160 N.am  263  GLY263     -0.1942
     57  CA        57.8520  154.0240   19.2910 C.3   263  GLY263      0.1998
     58  C         56.8890  153.2110   20.1380 C.2   263  GLY263      0.2480
     59  O         55.6980  153.1550   19.8540 O.2   263  GLY263     -0.2729
     60  N         57.3900  152.5590   21.1910 N.am  264  PRO264     -0.2726
     61  CA        56.4690  151.7030   21.9480 C.3   264  PRO264      0.1402
     62  C         55.5240  152.5120   22.8270 C.2   264  PRO264      0.2269
     63  O         55.8820  153.5990   23.2930 O.2   264  PRO264     -0.2865
     64  CB        57.4070  150.8480   22.7930 C.3   264  PRO264      0.0296
     65  CG        58.5690  151.7480   23.0340 C.3   264  PRO264      0.0237
     66  CD        58.7370  152.5870   21.7850 C.3   264  PRO264      0.0939
     67  N         51.0840  147.8300   17.3660 N.3   282  GLN282     -0.1231
     68  CA        52.3700  148.5170   17.4240 C.3   282  GLN282      0.1698
     69  C         53.2220  148.1670   16.1960 C.2   282  GLN282      0.2593
     70  O         53.0170  147.1400   15.5440 O.2   282  GLN282     -0.2718
     71  CB        53.0940  148.1690   18.7200 C.3   282  GLN282      0.0381
     72  CG        52.2860  148.5500   19.9730 C.3   282  GLN282      0.0905
     73  CD        53.0010  148.2120   21.2380 C.2   282  GLN282      0.2608
     74  OE1       53.9320  148.9040   21.6470 O.2   282  GLN282     -0.2717
     75  NE2       52.5810  147.1250   21.8740 N.am  282  GLN282     -0.0878
     76  N         54.1700  149.0280   15.8530 N.am  283  SER283     -0.1938
     77  CA        54.9320  148.7990   14.6420 C.3   283  SER283      0.2055
     78  C         56.3420  149.3670   14.6870 C.2   283  SER283      0.2643
     79  O         56.6400  150.3010   15.4230 O.2   283  SER283     -0.2714
     80  CB        54.1860  149.3880   13.4590 C.3   283  SER283      0.2130
     81  OG        54.6690  150.6810   13.1770 O.3   283  SER283     -0.2179
     82  N         57.2170  148.7660   13.9000 N.am  284  TYR284     -0.1959
     83  CA        58.5470  149.2900   13.6940 C.3   284  TYR284      0.1771
     84  C         58.7610  149.4630   12.2170 C.2   284  TYR284      0.2620
     85  O         58.1870  148.7220   11.4060 O.2   284  TYR284     -0.2715
     86  CB        59.5770  148.3600   14.2550 C.3   284  TYR284      0.0574
     87  CG        61.0080  148.6570   13.8820 C.ar  284  TYR284     -0.0198
     88  CD1       61.6930  149.7220   14.4570 C.ar  284  TYR284     -0.0009
     89  CD2       61.7030  147.8110   13.0560 C.ar  284  TYR284     -0.0009
     90  CE1       63.0140  149.9600   14.1720 C.ar  284  TYR284      0.0417
     91  CE2       63.0310  148.0330   12.7540 C.ar  284  TYR284      0.0417
     92  CZ        63.6870  149.1060   13.3060 C.ar  284  TYR284      0.1957
     93  OH        65.0280  149.3210   12.9900 O.3   284  TYR284     -0.2866
     94  N         59.5870  150.4340   11.8590 N.am  285  GLY285     -0.1940
     95  CA        59.7090  150.8080   10.4720 C.3   285  GLY285      0.2014
     96  C         60.4600  152.0970   10.3490 C.2   285  GLY285      0.2639
     97  O         60.8420  152.7110   11.3630 O.2   285  GLY285     -0.2714
     98  N         60.6680  152.4990    9.1000 N.am  286  MET286     -0.1963
     99  CA        61.4600  153.6730    8.7860 C.3   286  MET286      0.1736
    100  C         61.2050  154.1450    7.3480 C.2   286  MET286      0.2617
    101  O         60.4520  153.5060    6.5880 O.2   286  MET286     -0.2715
    102  CB        62.9230  153.3540    9.0160 C.3   286  MET286      0.0427
    103  CG        63.3350  152.0750    8.3600 C.3   286  MET286      0.0599
    104  SD        64.7900  151.3700    9.1360 S.3   286  MET286     -0.1393
    105  CE        66.0340  152.5820    8.6970 C.3   286  MET286      0.0692
    106  N         61.7980  155.2720    6.9690 N.am  287  THR287     -0.1937
    107  CA        61.6410  155.7530    5.5950 C.3   287  THR287      0.2028
    108  C         62.1840  154.7080    4.6010 C.2   287  THR287      0.2642
    109  O         61.5390  154.3980    3.5880 O.2   287  THR287     -0.2714
    110  CB        62.3430  157.0950    5.3850 C.3   287  THR287      0.1808
    111  OG1       61.9310  158.0130    6.4040 O.3   287  THR287     -0.2208
    112  CG2       61.9810  157.6670    4.0380 C.3   287  THR287      0.0379
    113  N         63.3310  154.1260    4.9500 N.am  288  GLU288     -0.1976
    114  CA        63.9820  153.0980    4.1410 C.3   288  GLU288      0.1602
    115  C         63.1530  151.8390    3.8710 C.2   288  GLU288      0.2287
    116  O         63.4550  151.0980    2.9320 O.2   288  GLU288     -0.2864
    117  CB        65.2940  152.6730    4.8000 C.3   288  GLU288      0.0415
    118  CG        66.4220  153.6930    4.7140 C.3   288  GLU288      0.1163
    119  CD        66.4140  154.6530    5.8750 C.2   288  GLU288      0.3649
    120  OE1       65.3240  154.8750    6.4510 O.co2 288  GLU288     -0.2457
    121  OE2       67.4920  155.2010    6.2020 O.co2 288  GLU288     -0.2457
    122  N         58.1080  145.4800   19.1520 N.3   308  ALA308     -0.1245
    123  CA        57.5650  145.9320   17.9000 C.3   308  ALA308      0.1562
    124  C         56.7990  144.8050   17.1960 C.2   308  ALA308      0.2260
    125  O         55.8540  145.0610   16.4530 O.2   308  ALA308     -0.2867
    126  CB        58.6670  146.4540   17.0330 C.3   308  ALA308      0.0290
    127  N         69.9720  149.2180    9.7900 N.3   363  THR363     -0.1218
    128  CA        69.0980  150.3080   10.2160 C.3   363  THR363      0.1862
    129  C         69.7880  151.3250   11.1240 C.2   363  THR363      0.2287
    130  O         69.2910  152.4340   11.3230 O.2   363  THR363     -0.2866
    131  CB        67.8820  149.7680   10.9790 C.3   363  THR363      0.1770
    132  OG1       68.3080  149.3180   12.2750 O.3   363  THR363     -0.2211
    133  CG2       67.2310  148.6190   10.2150 C.3   363  THR363      0.0375
    134  N         69.8340  151.0750   14.1770 N.3   365  ASP365     -0.1239
    135  CA        69.1560  150.8860   15.4560 C.3   365  ASP365      0.1674
    136  C         69.7280  149.6620   16.1990 C.2   365  ASP365      0.2266
    137  O         70.1020  148.6800   15.5730 O.2   365  ASP365     -0.2867
    138  CB        67.6520  150.7000   15.2290 C.3   365  ASP365      0.1410
    139  CG        66.9930  151.9100   14.5670 C.2   365  ASP365      0.3668
    140  OD1       67.4420  153.0480   14.8120 O.co2 365  ASP365     -0.2456
    141  OD2       66.0340  151.7170   13.7830 O.co2 365  ASP365     -0.2456
    142  N         63.1600  146.8370   20.1070 N.3   377  VAL377     -0.1231
    143  CA        64.0130  147.9680   19.7660 C.3   377  VAL377      0.1692
    144  C         64.4930  148.7530   21.0000 C.2   377  VAL377      0.2591
    145  O         63.6990  149.2580   21.8010 O.2   377  VAL377     -0.2718
    146  CB        63.3050  148.9490   18.8220 C.3   377  VAL377      0.0266
    147  CG1       64.2510  150.0870   18.4850 C.3   377  VAL377      0.0020
    148  CG2       62.7810  148.2220   17.5400 C.3   377  VAL377      0.0020
    149  N         65.8050  148.8690   21.1290 N.am  378  LEU378     -0.1980
    150  CA        66.3980  149.5870   22.2430 C.3   378  LEU378      0.1596
    151  C         66.5310  151.0720   21.9340 C.2   378  LEU378      0.2287
    152  O         65.7540  151.8840   22.4170 O.2   378  LEU378     -0.2864
    153  CB        67.7570  148.9910   22.5610 C.3   378  LEU378      0.0297
    154  CG        67.5440  147.5240   22.9000 C.3   378  LEU378      0.0022
    155  CD1       68.8690  146.7550   22.9340 C.3   378  LEU378      0.0001
    156  CD2       66.7240  147.3930   24.2110 C.3   378  LEU378      0.0001
    157  N         68.8990  154.1840   19.1360 N.3   380  ARG380     -0.1245
    158  CA        69.7840  154.4020   18.0060 C.3   380  ARG380      0.1563
    159  C         71.2070  154.1140   18.4140 C.2   380  ARG380      0.2260
    160  O         71.6320  154.5130   19.4970 O.2   380  ARG380     -0.2867
    161  CB        69.6640  155.8240   17.4960 C.3   380  ARG380      0.0307
    162  CG        68.2810  156.1800   17.0950 C.3   380  ARG380      0.0489
    163  CD        68.1100  157.6660   17.0910 C.3   380  ARG380      0.2205
    164  NE        66.8030  158.0220   16.5590 N.pl3 380  ARG380     -0.0865
    165  CZ        66.4870  157.9630   15.2690 C.cat 380  ARG380      0.5346
    166  NH1       67.3940  157.5720   14.3690 N.pl3 380  ARG380      0.1354
    167  NH2       65.2670  158.3040   14.8830 N.pl3 380  ARG380      0.1354
    168  N         61.3950  165.0560   16.2720 N.3   467  LYS467     -0.1245
    169  CA        62.3340  164.0660   16.7860 C.3   467  LYS467      0.1561
    170  C         63.4380  164.6860   17.6380 C.2   467  LYS467      0.2260
    171  O         64.0380  165.6840   17.2610 O.2   467  LYS467     -0.2867
    172  CB        62.9490  163.2710   15.6210 C.3   467  LYS467      0.0271
    173  CG        62.3730  161.8530   15.4390 C.3   467  LYS467      0.0035
    174  CD        61.6130  161.6810   14.1210 C.3   467  LYS467      0.0206
    175  CE        61.4060  160.2020   13.7660 C.3   467  LYS467      0.1093
    176  NZ        60.2270  159.9760   12.8700 N.3   467  LYS467     -0.1314
@<TRIPOS>BOND
     1    45    46    2
     2    45    44    1
     3   116   115    2
     4    44    47    1
     5    44    43    1
     6    39    38    2
     7   109   108    2
     8    47    48    1
     9   115   114    1
    10   112   110    1
    11   114   117    1
    12   114   113    1
    13    43    38   am
    14    48    49    1
    15    38    37    1
    16   108   113   am
    17   108   107    1
    18   118   117    1
    19   118   119    1
    20     1     2    1
    21    49    50    1
    22   110   107    1
    23   110   111    1
    24    40    41    1
    25    40    37    1
    26   107   106    1
    27    41    42    1
    28    37    36    1
    29     7     5    1
    30   119   121   ar
    31   119   120   ar
    32    36    42    1
    33     2     5    1
    34     2     3    1
    35   101   100    2
    36    50    51    1
    37     6     5    1
    38     4     3    2
    39   106   100   am
    40     3     8   am
    41   100    99    1
    42   103   102    1
    43   103   104    1
    44     8     9    1
    45   105   104    1
    46    99   102    1
    47    99    98    1
    48    35    34    2
    49    98    96   am
    50    34    33    1
    51     9    10    1
    52     9    12    1
    53    14    10   am
    54    14    15    1
    55    10    11    2
    56    15    16    1
    57   127   128    1
    58   133   131    1
    59   128   131    1
    60   128   129    1
    61    13    12    1
    62    96    95    1
    63    96    97    2
    64    33    32    1
    65    95    94    1
    66   131   132    1
    67   129   130    2
    68    16    17    2
    69    16    18   am
    70    85    84    2
    71    32    27   am
    72    28    27    2
    73    94    84   am
    74    18    19    1
    75    27    26    1
    76    30    29    1
    77    84    83    1
    78    91    89   ar
    79    91    92   ar
    80   176   175    1
    81    25    26    1
    82    25    20   am
    83    93    92    1
    84    89    87   ar
    85    81    80    1
    86    26    29    1
    87    92    90   ar
    88    19    20    1
    89    19    22    1
    90    29    31    1
    91    80    77    1
    92    23    22    1
    93    83    82    1
    94    83    86    1
    95    20    21    2
    96   175   174    1
    97   141   139   ar
    98    87    86    1
    99    87    88   ar
   100    82    78   am
   101    22    24    1
   102   174   173    1
   103    90    88   ar
   104   134   135    1
   105   166   165    1
   106   139   140   ar
   107   139   138    1
   108    77    78    1
   109    77    76    1
   110    78    79    2
   111   167   165    1
   112   138   135    1
   113   165   164    2
   114    52    53    1
   115   173   172    1
   116   135   136    1
   117    70    69    2
   118   137   136    2
   119   172   169    1
   120    76    69   am
   121    53    54    1
   122    69    68    1
   123   168   169    1
   124   125   124    2
   125   164   163    1
   126   169   170    1
   127   126   123    1
   128   163   162    1
   129   162   161    1
   130   124   123    1
   131   171   170    2
   132    54    55    2
   133    54    56   am
   134    67    68    1
   135    68    71    1
   136   161   158    1
   137   148   146    1
   138   123   122    1
   139   158   159    1
   140   158   157    1
   141    56    57    1
   142   159   160    2
   143   147   146    1
   144    71    72    1
   145   146   143    1
   146    57    58    1
   147   143   142    1
   148   143   144    1
   149    59    58    2
   150    72    73    1
   151    58    60   am
   152   144   149   am
   153   144   145    2
   154   149   150    1
   155    60    66    1
   156    60    61    1
   157    73    74    2
   158    73    75   am
   159    66    65    1
   160   151   150    1
   161   151   152    2
   162    61    64    1
   163    61    62    1
   164   150   153    1
   165   153   154    1
   166    64    65    1
   167    62    63    2
   168   154   155    1
   169   154   156    1
