@<TRIPOS>MOLECULE
tmp/5buuB00.pdb
 79 77 0 0 0
SMALL
GASTEIGER

@<TRIPOS>ATOM
      1  N        -28.3870  -20.0270   12.1020 N.3   101  LYS101     -0.1231
      2  CA       -28.2870  -19.3110   10.8410 C.3   101  LYS101      0.1678
      3  C        -28.6350  -20.2930    9.7320 C.2   101  LYS101      0.2434
      4  O        -28.3550  -21.4840    9.8540 O.2   101  LYS101     -0.2733
      5  CB       -26.8810  -18.7520   10.6480 C.3   101  LYS101      0.0284
      6  CG       -26.5720  -17.5640   11.5390 C.3   101  LYS101      0.0035
      7  CD       -27.6270  -16.4840   11.3690 C.3   101  LYS101      0.0206
      8  CE       -27.2560  -15.2260   12.1320 C.3   101  LYS101      0.1093
      9  NZ       -27.1540  -15.4620   13.6000 N.3   101  LYS101     -0.1314
     10  N        -29.2590  -19.8060    8.6500 N.am  102  PRO102     -0.2718
     11  CA       -29.6980  -20.7060    7.5780 C.3   102  PRO102      0.1535
     12  C        -28.5480  -21.4930    6.9560 C.2   102  PRO102      0.2599
     13  O        -27.4840  -20.9350    6.7100 O.2   102  PRO102     -0.2715
     14  CB       -30.3090  -19.7510    6.5460 C.3   102  PRO102      0.0310
     15  CG       -29.6950  -18.4340    6.8370 C.3   102  PRO102      0.0237
     16  CD       -29.5060  -18.3950    8.3170 C.3   102  PRO102      0.0939
     17  N        -28.7600  -22.7820    6.7180 N.am  103  PHE103     -0.1960
     18  CA       -27.7310  -23.6120    6.1040 C.3   103  PHE103      0.1771
     19  C        -27.9800  -23.8160    4.6100 C.2   103  PHE103      0.2619
     20  O        -27.1320  -24.3510    3.8960 O.2   103  PHE103     -0.2715
     21  CB       -27.5930  -24.9580    6.8290 C.3   103  PHE103      0.0574
     22  CG       -28.8460  -25.7940    6.8270 C.ar  103  PHE103     -0.0200
     23  CD1      -29.1580  -26.6020    5.7450 C.ar  103  PHE103     -0.0042
     24  CD2      -29.6940  -25.7940    7.9210 C.ar  103  PHE103     -0.0042
     25  CE1      -30.3030  -27.3770    5.7460 C.ar  103  PHE103     -0.0003
     26  CE2      -30.8380  -26.5700    7.9290 C.ar  103  PHE103     -0.0003
     27  CZ       -31.1420  -27.3610    6.8390 C.ar  103  PHE103     -0.0000
     28  N        -29.1490  -23.3880    4.1470 N.am  104  MET104     -0.1963
     29  CA       -29.5190  -23.5120    2.7410 C.3   104  MET104      0.1736
     30  C        -30.5830  -22.4840    2.3650 C.2   104  MET104      0.2617
     31  O        -31.4830  -22.1960    3.1490 O.2   104  MET104     -0.2715
     32  CB       -30.0240  -24.9250    2.4420 C.3   104  MET104      0.0427
     33  CG       -30.4670  -25.1340    1.0060 C.3   104  MET104      0.0599
     34  SD       -31.0030  -26.8180    0.6520 S.3   104  MET104     -0.1393
     35  CE       -29.4820  -27.7300    0.8740 C.3   104  MET104      0.0692
     36  N        -30.4750  -21.9350    1.1600 N.am  105  SER105     -0.1950
     37  CA       -31.4220  -20.9280    0.6980 C.3   105  SER105      0.1924
     38  C        -32.5290  -21.5290   -0.1600 C.2   105  SER105      0.2314
     39  O        -32.3130  -22.5030   -0.8800 O.2   105  SER105     -0.2863
     40  CB       -30.7020  -19.8200   -0.0730 C.3   105  SER105      0.2116
     41  OG       -29.8880  -19.0440    0.7880 O.3   105  SER105     -0.2180
     42  N        -22.7220  -24.6910   12.0480 N.3   235  VAL235     -0.1231
     43  CA       -23.2820  -24.3760   10.7350 C.3   235  VAL235      0.1692
     44  C        -22.4340  -23.3400   10.0030 C.2   235  VAL235      0.2591
     45  O        -22.1280  -23.4920    8.8190 O.2   235  VAL235     -0.2718
     46  CB       -24.7240  -23.8400   10.8620 C.3   235  VAL235      0.0266
     47  CG1      -25.2130  -23.2920    9.5320 C.3   235  VAL235      0.0020
     48  CG2      -25.6480  -24.9300   11.3670 C.3   235  VAL235      0.0020
     49  N        -22.0510  -22.2910   10.7230 N.am  236  LEU236     -0.1980
     50  CA       -21.2210  -21.2340   10.1620 C.3   236  LEU236      0.1596
     51  C        -19.8590  -21.7650    9.7340 C.2   236  LEU236      0.2287
     52  O        -19.3400  -21.3880    8.6840 O.2   236  LEU236     -0.2864
     53  CB       -21.0510  -20.1000   11.1700 C.3   236  LEU236      0.0297
     54  CG       -22.3110  -19.2870   11.4620 C.3   236  LEU236      0.0022
     55  CD1      -22.1570  -18.5290   12.7670 C.3   236  LEU236      0.0001
     56  CD2      -22.5870  -18.3290   10.3120 C.3   236  LEU236      0.0001
     57  N        -20.2370  -23.8260    6.5910 N.3   239  SER239     -0.1202
     58  CA       -20.4680  -22.9120    5.4800 C.3   239  SER239      0.2020
     59  C        -19.1600  -22.3240    4.9720 C.2   239  SER239      0.2618
     60  O        -18.8860  -22.3300    3.7740 O.2   239  SER239     -0.2717
     61  CB       -21.3980  -21.7800    5.9120 C.3   239  SER239      0.2103
     62  OG       -21.4150  -20.7350    4.9550 O.3   239  SER239     -0.2182
     63  N        -18.3540  -21.8180    5.8970 N.am  240  GLU240     -0.1979
     64  CA       -17.1150  -21.1360    5.5450 C.3   240  GLU240      0.1602
     65  C        -16.0310  -22.0940    5.0560 C.2   240  GLU240      0.2287
     66  O        -15.0770  -21.6790    4.3970 O.2   240  GLU240     -0.2864
     67  CB       -16.6110  -20.2970    6.7180 C.3   240  GLU240      0.0415
     68  CG       -17.5500  -19.1600    7.0890 C.3   240  GLU240      0.1163
     69  CD       -16.9940  -18.2700    8.1760 C.2   240  GLU240      0.3649
     70  OE1      -15.8240  -18.4600    8.5650 O.co2 240  GLU240     -0.2457
     71  OE2      -17.7260  -17.3730    8.6380 O.co2 240  GLU240     -0.2457
     72  N        -21.0600  -27.0220    3.0800 N.3   244  LEU244     -0.1245
     73  CA       -22.4870  -26.9520    2.7840 C.3   244  LEU244      0.1561
     74  C        -22.7170  -26.9740    1.2800 C.2   244  LEU244      0.2260
     75  O        -23.6780  -27.5710    0.8010 O.2   244  LEU244     -0.2867
     76  CB       -23.1150  -25.6950    3.3940 C.3   244  LEU244      0.0270
     77  CG       -23.1690  -25.6310    4.9230 C.3   244  LEU244      0.0019
     78  CD1      -23.9930  -24.4310    5.3840 C.3   244  LEU244      0.0001
     79  CD2      -23.7270  -26.9250    5.4840 C.3   244  LEU244      0.0001
@<TRIPOS>BOND
     1    39    38    2
     2    38    37    1
     3    40    37    1
     4    40    41    1
     5    34    35    1
     6    34    33    1
     7    37    36    1
     8    75    74    2
     9    33    32    1
    10    36    30   am
    11    74    73    1
    12    30    29    1
    13    30    31    2
    14    32    29    1
    15    29    28    1
    16    73    72    1
    17    73    76    1
    18    76    77    1
    19    60    59    2
    20    20    19    2
    21    28    19   am
    22    66    65    2
    23    19    18    1
    24    77    78    1
    25    77    79    1
    26    62    61    1
    27    59    58    1
    28    59    63   am
    29    65    64    1
    30    58    61    1
    31    58    57    1
    32    64    63    1
    33    64    67    1
    34    23    25   ar
    35    23    22   ar
    36    25    27   ar
    37    18    17    1
    38    18    21    1
    39    14    15    1
    40    14    11    1
    41    13    12    2
    42    17    12   am
    43    67    68    1
    44    22    21    1
    45    22    24   ar
    46    15    16    1
    47    27    26   ar
    48    12    11    1
    49    68    69    1
    50    11    10    1
    51    24    26   ar
    52    69    70   ar
    53    69    71   ar
    54    16    10    1
    55    10     3   am
    56    52    51    2
    57    45    44    2
    58    47    46    1
    59     3     4    2
    60     3     2    1
    61    51    50    1
    62    44    49   am
    63    44    43    1
    64    50    49    1
    65    50    53    1
    66    56    54    1
    67     5     2    1
    68     5     6    1
    69    43    46    1
    70    43    42    1
    71     2     1    1
    72    46    48    1
    73    53    54    1
    74     7     6    1
    75     7     8    1
    76    54    55    1
    77     8     9    1
