@<TRIPOS>MOLECULE
tmp/5bv2C03.pdb
 68 65 0 0 0
SMALL
GASTEIGER

@<TRIPOS>ATOM
      1  N         -4.5290   27.5800   29.8470 N.3   143  LYS143     -0.1245
      2  CA        -4.7780   27.2410   28.4440 C.3   143  LYS143      0.1561
      3  C         -4.4460   25.7790   28.1000 C.2   143  LYS143      0.2260
      4  O         -4.4890   25.4060   26.9260 O.2   143  LYS143     -0.2867
      5  CB        -4.0500   28.1980   27.4980 C.3   143  LYS143      0.0271
      6  CG        -2.5470   28.1940   27.5770 C.3   143  LYS143      0.0035
      7  CD        -1.9860   29.2000   26.5880 C.3   143  LYS143      0.0206
      8  CE        -0.4940   29.3390   26.7520 C.3   143  LYS143      0.1093
      9  NZ         0.0670   30.3070   25.7690 N.3   143  LYS143     -0.1314
     10  N         -2.7550   31.1230   31.7720 N.3   275  ASN275     -0.1225
     11  CA        -3.9390   31.2510   30.9060 C.3   275  ASN275      0.1785
     12  C         -3.6010   31.9750   29.5950 C.2   275  ASN275      0.2597
     13  O         -2.4610   32.3760   29.3810 O.2   275  ASN275     -0.2718
     14  CB        -5.1340   31.8760   31.6600 C.3   275  ASN275      0.1169
     15  CG        -4.9840   33.3700   31.9280 C.2   275  ASN275      0.2627
     16  OD1       -4.0950   34.0570   31.4120 O.2   275  ASN275     -0.2716
     17  ND2       -5.8990   33.8920   32.7460 N.am  275  ASN275     -0.0877
     18  N         -4.5930   32.1200   28.7180 N.am  276  ALA276     -0.1966
     19  CA        -4.3960   32.7300   27.3990 C.3   276  ALA276      0.1728
     20  C         -3.9860   34.2000   27.4630 C.2   276  ALA276      0.2617
     21  O         -3.3530   34.7030   26.5400 O.2   276  ALA276     -0.2715
     22  CB        -5.6610   32.5770   26.5630 C.3   276  ALA276      0.0334
     23  N         -4.3390   34.8860   28.5500 N.am  277  SER277     -0.1936
     24  CA        -3.9240   36.2800   28.7530 C.3   277  SER277      0.2055
     25  C         -2.5290   36.3860   29.3750 C.2   277  SER277      0.2643
     26  O         -2.0340   37.4830   29.5840 O.2   277  SER277     -0.2714
     27  CB        -4.9510   37.0090   29.6260 C.3   277  SER277      0.2130
     28  OG        -6.2210   37.0520   28.9730 O.3   277  SER277     -0.2179
     29  N         -1.8920   35.2510   29.6710 N.am  278  GLY278     -0.1954
     30  CA        -0.5280   35.2360   30.2160 C.3   278  GLY278      0.1869
     31  C         -0.4460   35.3290   31.7350 C.2   278  GLY278      0.2309
     32  O          0.6430   35.4960   32.2990 O.2   278  GLY278     -0.2863
     33  N          3.0770   31.3440   20.3730 N.3   469  PRO469     -0.2102
     34  CA         2.1650   31.0710   21.4720 C.3   469  PRO469      0.1504
     35  C          0.7950   31.6850   21.2070 C.2   469  PRO469      0.2576
     36  O          0.6790   32.6580   20.4620 O.2   469  PRO469     -0.2718
     37  CB         2.8330   31.7080   22.6830 C.3   469  PRO469      0.0282
     38  CG         3.9060   32.5590   22.1590 C.3   469  PRO469      0.0208
     39  CD         4.2170   32.1870   20.7560 C.3   469  PRO469      0.0893
     40  N         -0.2320   31.0900   21.7940 N.am  470  GLY470     -0.1943
     41  CA        -1.5950   31.5470   21.5790 C.3   470  GLY470      0.1998
     42  C         -2.5470   30.8450   22.5190 C.2   470  GLY470      0.2480
     43  O         -2.1250   30.0190   23.3390 O.2   470  GLY470     -0.2729
     44  N         -3.8420   31.1730   22.4220 N.am  471  PRO471     -0.2726
     45  CA        -4.8260   30.6190   23.3610 C.3   471  PRO471      0.1402
     46  C         -5.0330   29.1120   23.2700 C.2   471  PRO471      0.2269
     47  O         -5.3800   28.4760   24.2640 O.2   471  PRO471     -0.2865
     48  CB        -6.1320   31.3300   22.9780 C.3   471  PRO471      0.0296
     49  CG        -5.7230   32.5110   22.1810 C.3   471  PRO471      0.0237
     50  CD        -4.4340   32.1690   21.5100 C.3   471  PRO471      0.0939
     51  N          5.8660   28.6490   25.4270 N.3   477  GLU477     -0.1245
     52  CA         6.6880   29.7690   25.8400 C.3   477  GLU477      0.1567
     53  C          6.6860   29.7880   27.3550 C.2   477  GLU477      0.2260
     54  O          5.6260   29.6520   27.9760 O.2   477  GLU477     -0.2867
     55  CB         6.0990   31.0640   25.2910 C.3   477  GLU477      0.0388
     56  CG         6.8430   32.3170   25.7150 C.3   477  GLU477      0.1160
     57  CD         6.3230   33.5600   25.0300 C.2   477  GLU477      0.3649
     58  OE1        5.5510   34.2810   25.6640 O.co2 477  GLU477     -0.2457
     59  OE2        6.6920   33.8090   23.8560 O.co2 477  GLU477     -0.2457
     60  N          7.5010   34.6430   31.8430 N.3   480  GLN480     -0.1245
     61  CA         8.6460   35.5340   31.9590 C.3   480  GLN480      0.1566
     62  C          8.8560   36.0250   33.3810 C.2   480  GLN480      0.2260
     63  O          8.7930   37.2290   33.6670 O.2   480  GLN480     -0.2867
     64  CB         8.4940   36.7170   31.0010 C.3   480  GLN480      0.0367
     65  CG         8.6050   36.2990   29.5510 C.3   480  GLN480      0.0905
     66  CD         8.6490   37.4620   28.5940 C.2   480  GLN480      0.2608
     67  OE1        9.0640   38.5670   28.9310 O.2   480  GLN480     -0.2717
     68  NE2        8.2020   37.2190   27.3880 N.am  480  GLN480     -0.0878
@<TRIPOS>BOND
     1    33    39    1
     2    33    34    1
     3    36    35    2
     4    39    38    1
     5    35    34    1
     6    35    40   am
     7    34    37    1
     8    50    49    1
     9    50    44    1
    10    41    40    1
    11    41    42    1
    12    38    37    1
    13    49    48    1
    14    44    42   am
    15    44    45    1
    16    42    43    2
    17    48    45    1
    18    46    45    1
    19    46    47    2
    20    59    57   ar
    21    57    58   ar
    22    57    56    1
    23    55    56    1
    24    55    52    1
    25    51    52    1
    26     9     8    1
    27    52    53    1
    28    21    20    2
    29    22    19    1
    30     7     8    1
    31     7     6    1
    32     4     3    2
    33    53    54    2
    34    68    66   am
    35    19    20    1
    36    19    18    1
    37    20    23   am
    38     5     6    1
    39     5     2    1
    40     3     2    1
    41     2     1    1
    42    23    24    1
    43    66    67    2
    44    66    65    1
    45    18    12   am
    46    24    25    1
    47    24    27    1
    48    28    27    1
    49    25    26    2
    50    25    29   am
    51    13    12    2
    52    65    64    1
    53    12    11    1
    54    29    30    1
    55    30    31    1
    56    11    14    1
    57    11    10    1
    58    64    61    1
    59    16    15    2
    60    14    15    1
    61    31    32    2
    62    60    61    1
    63    15    17   am
    64    61    62    1
    65    62    63    2
