@<TRIPOS>MOLECULE
tmp/5bv2A01.pdb
 80 74 0 0 0
SMALL
GASTEIGER

@<TRIPOS>ATOM
      1  N         26.7250   24.4990  -32.1440 N.3   607  SER607     -0.1217
      2  CA        25.5060   23.8220  -31.7020 C.3   607  SER607      0.1889
      3  C         25.2410   22.5590  -32.4920 C.2   607  SER607      0.2288
      4  O         24.7500   21.5810  -31.9350 O.2   607  SER607     -0.2866
      5  CB        24.3070   24.7520  -31.7930 C.3   607  SER607      0.2089
      6  OG        24.1700   25.2520  -33.1060 O.3   607  SER607     -0.2183
      7  N         27.1710   19.8020  -30.8060 N.3   610  LEU610     -0.1231
      8  CA        26.6040   19.4300  -29.5170 C.3   610  LEU610      0.1693
      9  C         25.2990   18.6650  -29.6730 C.2   610  LEU610      0.2591
     10  O         25.0670   17.6680  -28.9910 O.2   610  LEU610     -0.2718
     11  CB        26.3860   20.6580  -28.6330 C.3   610  LEU610      0.0284
     12  CG        25.9980   20.3550  -27.1930 C.3   610  LEU610      0.0019
     13  CD1       27.0560   19.5060  -26.4940 C.3   610  LEU610      0.0001
     14  CD2       25.7590   21.6440  -26.4380 C.3   610  LEU610      0.0001
     15  N         24.4400   19.1150  -30.5740 N.am  611  LEU611     -0.1980
     16  CA        23.1910   18.4150  -30.7930 C.3   611  LEU611      0.1596
     17  C         23.3980   16.9800  -31.2640 C.2   611  LEU611      0.2287
     18  O         22.7460   16.0620  -30.7650 O.2   611  LEU611     -0.2864
     19  CB        22.3200   19.1930  -31.7200 C.3   611  LEU611      0.0297
     20  CG        20.8840   18.7200  -31.7630 C.3   611  LEU611      0.0022
     21  CD1       20.3370   18.4250  -30.3660 C.3   611  LEU611      0.0001
     22  CD2       20.0080   19.7300  -32.4800 C.3   611  LEU611      0.0001
     23  N         24.7880   14.8990  -28.2000 N.3   614  LEU614     -0.1245
     24  CA        23.7800   14.5960  -27.1890 C.3   614  LEU614      0.1561
     25  C         22.7300   13.6000  -27.6870 C.2   614  LEU614      0.2260
     26  O         22.3210   12.6960  -26.9480 O.2   614  LEU614     -0.2867
     27  CB        23.1130   15.8810  -26.6830 C.3   614  LEU614      0.0270
     28  CG        24.0480   16.8410  -25.9530 C.3   614  LEU614      0.0019
     29  CD1       23.2980   18.0980  -25.5630 C.3   614  LEU614      0.0001
     30  CD2       24.6740   16.1830  -24.7370 C.3   614  LEU614      0.0001
     31  N         28.0230   18.7950  -18.9930 N.3   626  LEU626     -0.1245
     32  CA        28.5510   19.9440  -19.6980 C.3   626  LEU626      0.1561
     33  C         29.4600   20.7180  -18.7570 C.2   626  LEU626      0.2260
     34  O         29.0160   21.2290  -17.7380 O.2   626  LEU626     -0.2867
     35  CB        27.4130   20.8310  -20.1860 C.3   626  LEU626      0.0270
     36  CG        26.3450   20.1710  -21.0600 C.3   626  LEU626      0.0019
     37  CD1       25.4120   21.2340  -21.6030 C.3   626  LEU626      0.0001
     38  CD2       26.9400   19.3440  -22.1900 C.3   626  LEU626      0.0001
     39  N         25.5270   29.1630  -27.2350 N.3   636  ALA636     -0.1245
     40  CA        26.0880   28.5120  -28.4210 C.3   636  ALA636      0.1562
     41  C         25.9940   29.4380  -29.6200 C.2   636  ALA636      0.2260
     42  O         25.3410   30.4830  -29.5680 O.2   636  ALA636     -0.2867
     43  CB        25.3640   27.2120  -28.7100 C.3   636  ALA636      0.0290
     44  N         24.2400   29.2930  -32.2120 N.3   638  ASP638     -0.1239
     45  CA        22.8570   29.5330  -32.6650 C.3   638  ASP638      0.1674
     46  C         21.9630   30.2030  -31.6130 C.2   638  ASP638      0.2266
     47  O         20.7530   30.3090  -31.8060 O.2   638  ASP638     -0.2867
     48  CB        22.2110   28.2240  -33.1410 C.3   638  ASP638      0.1410
     49  CG        21.8910   27.2590  -32.0030 C.2   638  ASP638      0.3668
     50  OD1       22.3990   27.4320  -30.8720 O.co2 638  ASP638     -0.2456
     51  OD2       21.1270   26.3060  -32.2550 O.co2 638  ASP638     -0.2456
     52  N         21.4410   29.0590  -28.5100 N.3   640  THR640     -0.1203
     53  CA        21.0070   28.1170  -27.4900 C.3   640  THR640      0.1994
     54  C         21.7780   28.4030  -26.1910 C.2   640  THR640      0.2618
     55  O         23.0060   28.4630  -26.1960 O.2   640  THR640     -0.2717
     56  CB        21.2530   26.6550  -27.9150 C.3   640  THR640      0.1784
     57  OG1       20.6220   26.3940  -29.1750 O.3   640  THR640     -0.2211
     58  CG2       20.7020   25.6890  -26.8700 C.3   640  THR640      0.0376
     59  N         21.0550   28.5850  -25.0920 N.am  641  VAL641     -0.1965
     60  CA        21.6740   28.8030  -23.7810 C.3   641  VAL641      0.1727
     61  C         21.9570   27.4560  -23.1300 C.2   641  VAL641      0.2616
     62  O         21.0590   26.6220  -22.9810 O.2   641  VAL641     -0.2715
     63  CB        20.7750   29.6560  -22.8600 C.3   641  VAL641      0.0290
     64  CG1       21.4000   29.7870  -21.4780 C.3   641  VAL641      0.0023
     65  CG2       20.5470   31.0290  -23.4750 C.3   641  VAL641      0.0023
     66  N         23.2050   27.2450  -22.7460 N.am  642  LEU642     -0.1964
     67  CA        23.6590   25.9540  -22.2370 C.3   642  LEU642      0.1713
     68  C         23.9980   26.0730  -20.7520 C.2   642  LEU642      0.2458
     69  O         24.9080   26.8100  -20.3930 O.2   642  LEU642     -0.2730
     70  CB        24.9050   25.4990  -23.0100 C.3   642  LEU642      0.0310
     71  CG        24.7750   25.4030  -24.5290 C.3   642  LEU642      0.0022
     72  CD1       26.1270   25.1310  -25.1670 C.3   642  LEU642      0.0001
     73  CD2       23.7720   24.3290  -24.9140 C.3   642  LEU642      0.0001
     74  N         23.2670   25.3530  -19.8850 N.am  643  PRO643     -0.2727
     75  CA        23.6090   25.3840  -18.4710 C.3   643  PRO643      0.1402
     76  C         24.8370   24.5230  -18.1760 C.2   643  PRO643      0.2269
     77  O         24.9700   23.4260  -18.6960 O.2   643  PRO643     -0.2865
     78  CB        22.3520   24.8380  -17.7830 C.3   643  PRO643      0.0296
     79  CG        21.6620   24.0160  -18.8170 C.3   643  PRO643      0.0237
     80  CD        22.1290   24.4610  -20.1710 C.3   643  PRO643      0.0939
@<TRIPOS>BOND
     1    48    45    1
     2    48    49    1
     3     6     5    1
     4    45    44    1
     5    45    46    1
     6     3     4    2
     7     3     2    1
     8    22    20    1
     9    51    49   ar
    10     1     2    1
    11    49    50   ar
    12    47    46    2
    13     5     2    1
    14    20    19    1
    15    20    21    1
    16    19    16    1
    17    17    16    1
    18    17    18    2
    19     7     8    1
    20    16    15    1
    21    15     9   am
    22     9     8    1
    23     9    10    2
    24    41    42    2
    25    41    40    1
    26     8    11    1
    27    57    56    1
    28    43    40    1
    29    11    12    1
    30    52    53    1
    31    40    39    1
    32    23    24    1
    33    56    53    1
    34    56    58    1
    35    25    24    1
    36    25    26    2
    37    53    54    1
    38    12    13    1
    39    12    14    1
    40    24    27    1
    41    27    28    1
    42    55    54    2
    43    54    59   am
    44    28    29    1
    45    28    30    1
    46    72    71    1
    47    59    60    1
    48    73    71    1
    49    71    70    1
    50    60    61    1
    51    60    63    1
    52    65    63    1
    53    61    62    2
    54    61    66   am
    55    70    67    1
    56    63    64    1
    57    66    67    1
    58    67    68    1
    59    38    36    1
    60    37    36    1
    61    36    35    1
    62    68    69    2
    63    68    74   am
    64    35    32    1
    65    80    74    1
    66    80    79    1
    67    74    75    1
    68    32    31    1
    69    32    33    1
    70    79    78    1
    71    33    34    2
    72    77    76    2
    73    75    76    1
    74    75    78    1
