@<TRIPOS>MOLECULE
tmp/5bv2B03.pdb
 78 73 0 0 0
SMALL
GASTEIGER

@<TRIPOS>ATOM
      1  N         24.0360  -28.6340   50.4270 N.3   263  GLU263     -0.1245
      2  CA        25.0310  -29.2450   49.5560 C.3   263  GLU263      0.1567
      3  C         25.1290  -28.4580   48.2610 C.2   263  GLU263      0.2260
      4  O         24.2750  -27.6170   47.9600 O.2   263  GLU263     -0.2867
      5  CB        24.6810  -30.7190   49.2830 C.3   263  GLU263      0.0388
      6  CG        24.8740  -31.6160   50.5070 C.3   263  GLU263      0.1160
      7  CD        24.5140  -33.0750   50.2720 C.2   263  GLU263      0.3649
      8  OE1       23.4250  -33.3670   49.7200 O.co2 263  GLU263     -0.2457
      9  OE2       25.3150  -33.9510   50.6660 O.co2 263  GLU263     -0.2457
     10  N         30.2670  -30.6720   50.1250 N.3   287  LYS287     -0.1245
     11  CA        29.6950  -31.1760   51.3600 C.3   287  LYS287      0.1561
     12  C         29.8970  -30.1630   52.4840 C.2   287  LYS287      0.2260
     13  O         31.0420  -29.8660   52.8300 O.2   287  LYS287     -0.2867
     14  CB        30.4350  -32.4590   51.7220 C.3   287  LYS287      0.0271
     15  CG        29.9110  -33.1610   52.9570 C.3   287  LYS287      0.0035
     16  CD        31.0130  -34.0220   53.5500 C.3   287  LYS287      0.0206
     17  CE        30.8540  -34.0870   55.0460 C.3   287  LYS287      0.1093
     18  NZ        32.0690  -33.5650   55.7190 N.3   287  LYS287     -0.1314
     19  N         23.7620  -30.5730   56.8470 N.3   292  LYS292     -0.1245
     20  CA        22.5800  -30.2180   56.0740 C.3   292  LYS292      0.1561
     21  C         21.4620  -29.8400   57.0320 C.2   292  LYS292      0.2260
     22  O         21.2120  -30.5480   58.0100 O.2   292  LYS292     -0.2867
     23  CB        22.1340  -31.4140   55.2260 C.3   292  LYS292      0.0271
     24  CG        23.1310  -31.8340   54.1670 C.3   292  LYS292      0.0035
     25  CD        22.7060  -33.1130   53.4640 C.3   292  LYS292      0.0206
     26  CE        22.9930  -34.3280   54.3220 C.3   292  LYS292      0.1093
     27  NZ        22.6520  -35.5720   53.5780 N.3   292  LYS292     -0.1314
     28  N         25.1480  -42.1820   45.5920 N.3   355  GLU355     -0.1245
     29  CA        26.4010  -42.3650   46.3310 C.3   355  GLU355      0.1567
     30  C         26.5940  -43.8300   46.7330 C.2   355  GLU355      0.2260
     31  O         27.7230  -44.2860   46.8670 O.2   355  GLU355     -0.2867
     32  CB        26.4760  -41.4180   47.5350 C.3   355  GLU355      0.0388
     33  CG        26.5770  -39.9410   47.1160 C.3   355  GLU355      0.1160
     34  CD        26.7710  -38.9400   48.2710 C.2   355  GLU355      0.3649
     35  OE1       27.4480  -39.2840   49.2790 O.co2 355  GLU355     -0.2457
     36  OE2       26.2550  -37.7800   48.1600 O.co2 355  GLU355     -0.2457
     37  N         20.1630  -43.2830   51.5410 N.3   579  PRO579     -0.2102
     38  CA        20.0090  -42.3250   52.6490 C.3   579  PRO579      0.1504
     39  C         20.7850  -41.0130   52.5000 C.2   579  PRO579      0.2576
     40  O         20.4630  -40.0410   53.1820 O.2   579  PRO579     -0.2718
     41  CB        20.5220  -43.0880   53.8790 C.3   579  PRO579      0.0282
     42  CG        20.6120  -44.5030   53.4730 C.3   579  PRO579      0.0208
     43  CD        20.7660  -44.5480   51.9900 C.3   579  PRO579      0.0893
     44  N         21.8000  -40.9880   51.6410 N.am  580  SER580     -0.1953
     45  CA        22.5210  -39.7470   51.3490 C.3   580  SER580      0.1924
     46  C         21.6300  -38.6820   50.7070 C.2   580  SER580      0.2314
     47  O         21.9950  -37.5070   50.6700 O.2   580  SER580     -0.2863
     48  CB        23.7250  -40.0410   50.4570 C.3   580  SER580      0.2116
     49  OG        23.3230  -40.4820   49.1670 O.3   580  SER580     -0.2180
     50  N         18.6190  -37.8930   51.8290 N.3   582  SER582     -0.1217
     51  CA        17.8660  -37.2620   52.9120 C.3   582  SER582      0.1889
     52  C         18.7060  -36.1600   53.5780 C.2   582  SER582      0.2288
     53  O         19.9320  -36.2750   53.6880 O.2   582  SER582     -0.2866
     54  CB        17.4800  -38.3130   53.9580 C.3   582  SER582      0.2089
     55  OG        16.9900  -37.7220   55.1420 O.3   582  SER582     -0.2183
     56  N         20.8910  -39.4170   58.1390 N.3   586  ILE586     -0.1231
     57  CA        22.1890  -39.6520   58.7450 C.3   586  ILE586      0.1678
     58  C         22.6170  -38.3720   59.4510 C.2   586  ILE586      0.2434
     59  O         22.8780  -37.3690   58.7990 O.2   586  ILE586     -0.2733
     60  CB        23.2210  -40.0770   57.6870 C.3   586  ILE586      0.0265
     61  CG1       22.7810  -41.4060   57.0480 C.3   586  ILE586      0.0019
     62  CG2       24.6070  -40.2010   58.3160 C.3   586  ILE586      0.0020
     63  CD1       23.4580  -41.7130   55.7430 C.3   586  ILE586      0.0001
     64  N         22.6790  -38.3970   60.7870 N.am  587  PRO587     -0.2718
     65  CA        23.0370  -37.1810   61.5130 C.3   587  PRO587      0.1535
     66  C         24.3860  -36.6080   61.0920 C.2   587  PRO587      0.2598
     67  O         25.3430  -37.3560   60.8840 O.2   587  PRO587     -0.2715
     68  CB        23.0940  -37.6490   62.9660 C.3   587  PRO587      0.0310
     69  CG        22.1580  -38.8030   63.0220 C.3   587  PRO587      0.0237
     70  CD        22.3170  -39.4940   61.7020 C.3   587  PRO587      0.0939
     71  N         24.4470  -35.2900   60.9470 N.am  588  ASP588     -0.1972
     72  CA        25.6700  -34.6000   60.5500 C.3   588  ASP588      0.1709
     73  C         25.7170  -33.2050   61.1530 C.2   588  ASP588      0.2293
     74  O         24.7470  -32.7600   61.7590 O.2   588  ASP588     -0.2864
     75  CB        25.8310  -34.5620   59.0070 C.3   588  ASP588      0.1436
     76  CG        24.8300  -33.6120   58.2810 C.2   588  ASP588      0.3671
     77  OD1       23.9690  -32.9690   58.9130 O.co2 588  ASP588     -0.2456
     78  OD2       24.9120  -33.5030   57.0340 O.co2 588  ASP588     -0.2456
@<TRIPOS>BOND
     1    28    29    1
     2    29    30    1
     3    29    32    1
     4    30    31    2
     5    33    32    1
     6    33    34    1
     7     4     3    2
     8    36    34   ar
     9     3     2    1
    10    34    35   ar
    11    49    48    1
    12     5     2    1
    13     5     6    1
    14     2     1    1
    15     8     7   ar
    16    10    11    1
    17     7     6    1
    18     7     9   ar
    19    48    45    1
    20    47    46    2
    21    46    45    1
    22    45    44    1
    23    11    14    1
    24    11    12    1
    25    37    43    1
    26    37    38    1
    27    44    39   am
    28    14    15    1
    29    50    51    1
    30    43    42    1
    31    12    13    2
    32    39    38    1
    33    39    40    2
    34    38    41    1
    35    51    52    1
    36    51    54    1
    37    15    16    1
    38    25    24    1
    39    25    26    1
    40    42    41    1
    41    16    17    1
    42    27    26    1
    43    52    53    2
    44    54    55    1
    45    24    23    1
    46    17    18    1
    47    23    20    1
    48    63    61    1
    49    20    19    1
    50    20    21    1
    51    21    22    2
    52    78    76   ar
    53    61    60    1
    54    60    62    1
    55    60    57    1
    56    56    57    1
    57    76    77   ar
    58    76    75    1
    59    57    58    1
    60    59    58    2
    61    75    72    1
    62    58    64   am
    63    72    71    1
    64    72    73    1
    65    64    65    1
    66    64    70    1
    67    67    66    2
    68    71    66   am
    69    66    65    1
    70    73    74    2
    71    65    68    1
    72    70    69    1
    73    68    69    1
