@<TRIPOS>MOLECULE
tmp/5bv2D02.pdb
 86 83 0 0 0
SMALL
GASTEIGER

@<TRIPOS>ATOM
      1  N         24.1850   14.5900    4.0020 N.3   218  GLU218     -0.1245
      2  CA        22.7250   14.7990    3.9280 C.3   218  GLU218      0.1567
      3  C         21.9980   13.4860    4.2410 C.2   218  GLU218      0.2260
      4  O         22.4940   12.4090    3.8940 O.2   218  GLU218     -0.2867
      5  CB        22.3340   15.4180    2.5730 C.3   218  GLU218      0.0388
      6  CG        23.0430   16.7530    2.3600 C.3   218  GLU218      0.1160
      7  CD        22.5800   17.5900    1.1850 C.2   218  GLU218      0.3649
      8  OE1       21.5040   17.2900    0.6140 O.co2 218  GLU218     -0.2457
      9  OE2       23.2980   18.6020    0.8850 O.co2 218  GLU218     -0.2457
     10  N         20.9910   10.1800    1.6520 N.3   221  TRP221     -0.1241
     11  CA        22.0270    9.3480    1.0220 C.3   221  TRP221      0.1605
     12  C         23.3930    9.3260    1.7060 C.2   221  TRP221      0.2264
     13  O         24.2820    8.6000    1.2640 O.2   221  TRP221     -0.2867
     14  CB        22.1780    9.7240   -0.4470 C.3   221  TRP221      0.0550
     15  CG        22.7180   11.1200   -0.8060 C.ar  221  TRP221      0.0003
     16  CD1       22.8150   12.2340   -0.0130 C.ar  221  TRP221      0.0946
     17  CD2       23.1410   11.5260   -2.1140 C.ar  221  TRP221      0.0152
     18  NE1       23.3140   13.2910   -0.7460 N.ar  221  TRP221     -0.2442
     19  CE2       23.5120   12.8800   -2.0380 C.ar  221  TRP221      0.0810
     20  CE3       23.2380   10.8620   -3.3440 C.ar  221  TRP221      0.0012
     21  CZ2       24.0070   13.5830   -3.1470 C.ar  221  TRP221      0.0191
     22  CZ3       23.7170   11.5410   -4.4280 C.ar  221  TRP221      0.0001
     23  CH2       24.0970   12.8940   -4.3320 C.ar  221  TRP221      0.0015
     24  N         25.8240   11.6670    1.8900 N.3   223  ILE223     -0.1231
     25  CA        26.8640   12.3170    1.0800 C.3   223  ILE223      0.1678
     26  C         26.7660   13.8220    1.4010 C.2   223  ILE223      0.2434
     27  O         25.6390   14.3070    1.5430 O.2   223  ILE223     -0.2733
     28  CB        26.6120   12.0480   -0.4190 C.3   223  ILE223      0.0265
     29  CG1       26.8520   10.5780   -0.7320 C.3   223  ILE223      0.0019
     30  CG2       27.4720   12.9250   -1.3170 C.3   223  ILE223      0.0020
     31  CD1       26.6740   10.2430   -2.1910 C.3   223  ILE223      0.0001
     32  N         27.8800   14.5820    1.5060 N.am  224  PRO224     -0.2729
     33  CA        29.2460   14.1510    1.2460 C.3   224  PRO224      0.1401
     34  C         30.0650   14.0520    2.5310 C.2   224  PRO224      0.2269
     35  O         29.7750   14.7530    3.5010 O.2   224  PRO224     -0.2865
     36  CB        29.8010   15.3110    0.4140 C.3   224  PRO224      0.0296
     37  CG        29.1530   16.5120    1.0420 C.3   224  PRO224      0.0237
     38  CD        27.7810   16.0590    1.4860 C.3   224  PRO224      0.0939
     39  N         33.1410   17.3040    3.8810 N.3   227  GLN227     -0.1245
     40  CA        32.9580   18.4550    2.9990 C.3   227  GLN227      0.1566
     41  C         31.7450   19.2770    3.3790 C.2   227  GLN227      0.2260
     42  O         30.6610   18.7330    3.5980 O.2   227  GLN227     -0.2867
     43  CB        32.7360   17.9780    1.5710 C.3   227  GLN227      0.0367
     44  CG        33.9200   17.2400    0.9700 C.3   227  GLN227      0.0905
     45  CD        33.5080   16.4360   -0.2300 C.2   227  GLN227      0.2608
     46  OE1       33.1850   16.9900   -1.2780 O.2   227  GLN227     -0.2717
     47  NE2       33.4720   15.1120   -0.0690 N.am  227  GLN227     -0.0878
     48  N         30.8260   21.3740    1.0480 N.3   229  ALA229     -0.1231
     49  CA        30.4580   21.7430   -0.3200 C.3   229  ALA229      0.1694
     50  C         29.1980   21.0180   -0.7960 C.2   229  ALA229      0.2592
     51  O         29.2500   20.1420   -1.6720 O.2   229  ALA229     -0.2718
     52  CB        31.6170   21.4650   -1.2590 C.3   229  ALA229      0.0304
     53  N         28.0700   21.3770   -0.1970 N.am  230  HIS230     -0.1962
     54  CA        26.7990   20.7810   -0.5490 C.3   230  HIS230      0.1787
     55  C         25.6380   21.6770   -0.1010 C.2   230  HIS230      0.2620
     56  O         25.8050   22.5630    0.7390 O.2   230  HIS230     -0.2715
     57  CB        26.6600   19.3570    0.0080 C.3   230  HIS230      0.0785
     58  CG        26.7370   19.2460    1.5000 C.ar  230  HIS230      0.0821
     59  ND1       25.6250   18.9960    2.2790 N.ar  230  HIS230     -0.2267
     60  CD2       27.7890   19.2960    2.3550 C.ar  230  HIS230      0.1154
     61  CE1       25.9850   18.9070    3.5460 C.ar  230  HIS230      0.1986
     62  NE2       27.2900   19.0840    3.6180 N.ar  230  HIS230     -0.2212
     63  N         24.4720   21.4150   -0.6840 N.am  231  ASP231     -0.1971
     64  CA        23.3330   22.3180   -0.6080 C.3   231  ASP231      0.1709
     65  C         22.9250   22.6750    0.8130 C.2   231  ASP231      0.2293
     66  O         22.6730   23.8390    1.1010 O.2   231  ASP231     -0.2864
     67  CB        22.0990   21.7460   -1.3320 C.3   231  ASP231      0.1436
     68  CG        22.2540   21.7190   -2.8420 C.2   231  ASP231      0.3671
     69  OD1       23.3160   21.2550   -3.3300 O.co2 231  ASP231     -0.2456
     70  OD2       21.3030   22.1460   -3.5490 O.co2 231  ASP231     -0.2456
     71  N         29.4080   23.2860   -6.2660 N.3   527  LYS527     -0.1245
     72  CA        28.8870   21.9600   -5.9600 C.3   527  LYS527      0.1561
     73  C         27.4940   21.9760   -5.3430 C.2   527  LYS527      0.2260
     74  O         26.9180   20.9220   -5.0770 O.2   527  LYS527     -0.2867
     75  CB        29.8750   21.2320   -5.0570 C.3   527  LYS527      0.0271
     76  CG        31.2210   21.1370   -5.7550 C.3   527  LYS527      0.0035
     77  CD        32.0100   19.9350   -5.3640 C.3   527  LYS527      0.0206
     78  CE        33.0560   19.6390   -6.4190 C.3   527  LYS527      0.1093
     79  NZ        33.7970   18.4460   -5.9820 N.3   527  LYS527     -0.1314
     80  N         23.7640   22.2450   -5.8700 N.3   529  VAL529     -0.1245
     81  CA        22.9160   21.9130   -7.0260 C.3   529  VAL529      0.1561
     82  C         21.8590   22.9770   -7.3100 C.2   529  VAL529      0.2260
     83  O         21.6260   23.3190   -8.4600 O.2   529  VAL529     -0.2867
     84  CB        22.2430   20.5290   -6.8500 C.3   529  VAL529      0.0252
     85  CG1       21.3840   20.1850   -8.0580 C.3   529  VAL529      0.0019
     86  CG2       23.2980   19.4500   -6.6490 C.3   529  VAL529      0.0019
@<TRIPOS>BOND
     1    83    82    2
     2    85    84    1
     3    82    81    1
     4    81    84    1
     5    81    80    1
     6    84    86    1
     7    78    79    1
     8    78    77    1
     9    71    72    1
    10    72    73    1
    11    72    75    1
    12    76    77    1
    13    76    75    1
    14    73    74    2
    15    22    23   ar
    16    22    20   ar
    17    23    21   ar
    18    70    68   ar
    19    20    17   ar
    20    69    68   ar
    21    21    19   ar
    22    68    67    1
    23    31    29    1
    24    17    19   ar
    25    17    15   ar
    26    19    18   ar
    27    51    50    2
    28    67    64    1
    29    30    28    1
    30    46    45    2
    31    52    49    1
    32    15    14    1
    33    15    16   ar
    34    50    49    1
    35    50    53   am
    36    18    16   ar
    37    29    28    1
    38    63    64    1
    39    63    55   am
    40    64    65    1
    41    54    53    1
    42    54    55    1
    43    54    57    1
    44    14    11    1
    45    28    25    1
    46    49    48    1
    47    45    47   am
    48    45    44    1
    49    55    56    2
    50    57    58    1
    51    36    37    1
    52    36    33    1
    53     8     7   ar
    54    65    66    2
    55     9     7   ar
    56    44    43    1
    57    11    10    1
    58    11    12    1
    59    37    38    1
    60    25    26    1
    61    25    24    1
    62     7     6    1
    63    33    32    1
    64    33    34    1
    65    13    12    2
    66    26    32   am
    67    26    27    2
    68    38    32    1
    69    58    59   ar
    70    58    60   ar
    71    43    40    1
    72    59    61   ar
    73    60    62   ar
    74     6     5    1
    75    34    35    2
    76     5     2    1
    77    40    41    1
    78    40    39    1
    79    41    42    2
    80    61    62   ar
    81     4     3    2
    82     2     1    1
    83     2     3    1
