@<TRIPOS>MOLECULE
tmp/5bv2D03.pdb
 68 65 0 0 0
SMALL
GASTEIGER

@<TRIPOS>ATOM
      1  N         43.9360   31.9350   40.8300 N.3   143  LYS143     -0.1245
      2  CA        44.3930   30.9740   41.8130 C.3   143  LYS143      0.1561
      3  C         44.5440   29.5510   41.2520 C.2   143  LYS143      0.2260
      4  O         44.8020   28.6250   42.0140 O.2   143  LYS143     -0.2867
      5  CB        43.5040   30.9790   43.0600 C.3   143  LYS143      0.0271
      6  CG        42.0610   30.5860   42.8500 C.3   143  LYS143      0.0035
      7  CD        41.3260   30.6410   44.1750 C.3   143  LYS143      0.0206
      8  CE        39.8510   30.4220   43.9880 C.3   143  LYS143      0.1093
      9  NZ        39.1300   30.4730   45.2970 N.3   143  LYS143     -0.1314
     10  N         41.0330   35.2660   41.0840 N.3   275  ASN275     -0.1225
     11  CA        42.2050   35.2330   41.9680 C.3   275  ASN275      0.1785
     12  C         41.8120   34.9390   43.4090 C.2   275  ASN275      0.2597
     13  O         40.6200   34.8080   43.7070 O.2   275  ASN275     -0.2718
     14  CB        43.0970   36.4940   41.8060 C.3   275  ASN275      0.1169
     15  CG        42.4970   37.7560   42.4000 C.2   275  ASN275      0.2627
     16  OD1       41.5040   37.7310   43.1250 O.2   275  ASN275     -0.2716
     17  ND2       43.1360   38.8800   42.1060 N.am  275  ASN275     -0.0877
     18  N         42.8090   34.8470   44.2940 N.am  276  ALA276     -0.1966
     19  CA        42.5660   34.5220   45.7030 C.3   276  ALA276      0.1728
     20  C         41.7260   35.5790   46.4350 C.2   276  ALA276      0.2617
     21  O         41.0560   35.2660   47.4160 O.2   276  ALA276     -0.2715
     22  CB        43.8770   34.3180   46.4170 C.3   276  ALA276      0.0334
     23  N         41.7590   36.8180   45.9560 N.am  277  SER277     -0.1936
     24  CA        40.9380   37.8950   46.5350 C.3   277  SER277      0.2055
     25  C         39.5130   37.9300   45.9590 C.2   277  SER277      0.2643
     26  O         38.7100   38.7640   46.3470 O.2   277  SER277     -0.2714
     27  CB        41.6340   39.2380   46.3380 C.3   277  SER277      0.2130
     28  OG        42.8930   39.2590   47.0100 O.3   277  SER277     -0.2179
     29  N         39.2050   37.0350   45.0260 N.am  278  GLY278     -0.1954
     30  CA        37.8660   36.9460   44.4440 C.3   278  GLY278      0.1869
     31  C         37.6240   37.8550   43.2540 C.2   278  GLY278      0.2309
     32  O         36.4900   37.9830   42.7760 O.2   278  GLY278     -0.2863
     33  N         36.4340   27.4460   50.0590 N.3   469  PRO469     -0.2102
     34  CA        37.2880   28.1010   49.0630 C.3   469  PRO469      0.1504
     35  C         38.4470   28.8020   49.7550 C.2   469  PRO469      0.2576
     36  O         38.3380   29.1780   50.9300 O.2   469  PRO469     -0.2718
     37  CB        36.3590   29.0760   48.3560 C.3   469  PRO469      0.0282
     38  CG        35.1290   29.1500   49.1680 C.3   469  PRO469      0.0208
     39  CD        35.0730   27.9950   50.1130 C.3   469  PRO469      0.0893
     40  N         39.5530   28.9550   49.0390 N.am  470  GLY470     -0.1943
     41  CA        40.7450   29.5820   49.5860 C.3   470  GLY470      0.1998
     42  C         41.7800   29.8210   48.5030 C.2   470  GLY470      0.2480
     43  O         41.5350   29.5180   47.3280 O.2   470  GLY470     -0.2729
     44  N         42.9290   30.3850   48.8770 N.am  471  PRO471     -0.2726
     45  CA        43.9350   30.7750   47.8820 C.3   471  PRO471      0.1402
     46  C         44.5750   29.6090   47.1410 C.2   471  PRO471      0.2269
     47  O         44.9980   29.7720   46.0000 O.2   471  PRO471     -0.2865
     48  CB        45.0070   31.4950   48.7140 C.3   471  PRO471      0.0296
     49  CG        44.3440   31.8560   49.9830 C.3   471  PRO471      0.0237
     50  CD        43.2800   30.8410   50.2330 C.3   471  PRO471      0.0939
     51  N         34.0880   27.3210   44.0750 N.3   477  GLU477     -0.1245
     52  CA        32.9400   28.1890   44.3070 C.3   477  GLU477      0.1567
     53  C         32.7930   29.0620   43.0790 C.2   477  GLU477      0.2260
     54  O         33.7820   29.5870   42.5790 O.2   477  GLU477     -0.2867
     55  CB        33.1900   29.0580   45.5480 C.3   477  GLU477      0.0388
     56  CG        32.0730   30.0560   45.8350 C.3   477  GLU477      0.1160
     57  CD        32.2650   30.8010   47.1380 C.2   477  GLU477      0.3649
     58  OE1       32.7250   31.9380   47.0910 O.co2 477  GLU477     -0.2457
     59  OE2       31.9610   30.2400   48.2140 O.co2 477  GLU477     -0.2457
     60  N         30.2510   35.1220   42.0610 N.3   480  GLN480     -0.1245
     61  CA        28.8960   35.5630   42.3710 C.3   480  GLN480      0.1566
     62  C         28.4370   36.7020   41.4530 C.2   480  GLN480      0.2260
     63  O         28.1080   37.7980   41.8990 O.2   480  GLN480     -0.2867
     64  CB        28.7930   35.9580   43.8500 C.3   480  GLN480      0.0367
     65  CG        28.9160   34.7690   44.7830 C.3   480  GLN480      0.0905
     66  CD        28.6230   35.1080   46.2240 C.2   480  GLN480      0.2608
     67  OE1       27.9000   36.0540   46.5350 O.2   480  GLN480     -0.2717
     68  NE2       29.2130   34.3550   47.1140 N.am  480  GLN480     -0.0878
@<TRIPOS>BOND
     1     1     2    1
     2    10    11    1
     3     3     2    1
     4     3     4    2
     5    62    63    2
     6    62    61    1
     7    14    11    1
     8    14    15    1
     9     2     5    1
    10    11    12    1
    11    60    61    1
    12    17    15   am
    13    61    64    1
    14    15    16    2
    15    54    53    2
    16    32    31    2
    17     6     5    1
    18     6     7    1
    19    53    52    1
    20    31    30    1
    21    12    13    2
    22    12    18   am
    23    64    65    1
    24     8     7    1
    25     8     9    1
    26    51    52    1
    27    18    19    1
    28    52    55    1
    29    30    29    1
    30    65    66    1
    31    29    25   am
    32    55    56    1
    33    19    22    1
    34    19    20    1
    35    56    57    1
    36    23    20   am
    37    23    24    1
    38    25    26    2
    39    25    24    1
    40    47    46    2
    41    66    67    2
    42    66    68   am
    43    27    24    1
    44    27    28    1
    45    20    21    2
    46    58    57   ar
    47    57    59   ar
    48    46    45    1
    49    43    42    2
    50    45    48    1
    51    45    44    1
    52    37    34    1
    53    37    38    1
    54    42    44   am
    55    42    41    1
    56    48    49    1
    57    44    50    1
    58    40    41    1
    59    40    35   am
    60    34    35    1
    61    34    33    1
    62    38    39    1
    63    35    36    2
    64    49    50    1
    65    33    39    1
