@<TRIPOS>MOLECULE
tmp/5bv2C02.pdb
 109 107 0 0 0
SMALL
GASTEIGER

@<TRIPOS>ATOM
      1  N         -2.0180   -2.0550   59.2420 N.3   297  VAL297     -0.1231
      2  CA        -1.2310   -1.8140   60.4500 C.3   297  VAL297      0.1692
      3  C          0.1110   -2.5270   60.2740 C.2   297  VAL297      0.2592
      4  O          0.2190   -3.4590   59.4670 O.2   297  VAL297     -0.2718
      5  CB        -1.9750   -2.2470   61.7390 C.3   297  VAL297      0.0266
      6  CG1       -3.3020   -1.5000   61.8580 C.3   297  VAL297      0.0020
      7  CG2       -2.1930   -3.7570   61.7900 C.3   297  VAL297      0.0020
      8  N          1.1460   -2.0860   60.9840 N.am  298  TRP298     -0.1962
      9  CA         2.5070   -2.5390   60.6640 C.3   298  TRP298      0.1771
     10  C          2.7050   -4.0570   60.7130 C.2   298  TRP298      0.2619
     11  O          3.2650   -4.6380   59.7790 O.2   298  TRP298     -0.2715
     12  CB         3.5680   -1.8580   61.5570 C.3   298  TRP298      0.0590
     13  CG         4.9300   -2.4630   61.3460 C.ar  298  TRP298      0.0006
     14  CD1        5.7040   -3.0900   62.2760 C.ar  298  TRP298      0.0946
     15  CD2        5.6500   -2.5370   60.1090 C.ar  298  TRP298      0.0152
     16  NE1        6.8530   -3.5570   61.6850 N.ar  298  TRP298     -0.2442
     17  CE2        6.8510   -3.2100   60.3660 C.ar  298  TRP298      0.0810
     18  CE3        5.3820   -2.1100   58.8030 C.ar  298  TRP298      0.0012
     19  CZ2        7.7950   -3.4640   59.3790 C.ar  298  TRP298      0.0191
     20  CZ3        6.3210   -2.3660   57.8180 C.ar  298  TRP298      0.0001
     21  CH2        7.5190   -3.0330   58.1190 C.ar  298  TRP298      0.0015
     22  N          2.2640   -4.7130   61.7920 N.am  299  ASP299     -0.1971
     23  CA         2.4830   -6.1580   61.9180 C.3   299  ASP299      0.1709
     24  C          1.8790   -6.9140   60.7210 C.2   299  ASP299      0.2293
     25  O          2.4840   -7.8520   60.1860 O.2   299  ASP299     -0.2864
     26  CB         1.8990   -6.6960   63.2180 C.3   299  ASP299      0.1436
     27  CG         2.1530   -8.1860   63.3890 C.2   299  ASP299      0.3671
     28  OD1        3.3440   -8.5910   63.3850 O.co2 299  ASP299     -0.2456
     29  OD2        1.1540   -8.9510   63.4870 O.co2 299  ASP299     -0.2456
     30  N         -0.3920    6.6670   68.1620 N.3   515  ARG515     -0.1231
     31  CA         0.2110    5.4360   68.6580 C.3   515  ARG515      0.1694
     32  C          0.9830    4.7110   67.5410 C.2   515  ARG515      0.2592
     33  O          2.0930    4.2400   67.7430 O.2   515  ARG515     -0.2718
     34  CB        -0.8760    4.5140   69.2370 C.3   515  ARG515      0.0321
     35  CG        -0.4160    3.1390   69.6970 C.3   515  ARG515      0.0489
     36  CD        -1.5640    2.3760   70.3490 C.3   515  ARG515      0.2205
     37  NE        -1.9560    2.9950   71.6190 N.pl3 515  ARG515     -0.0865
     38  CZ        -1.3220    2.8320   72.7770 C.cat 515  ARG515      0.5346
     39  NH1       -0.2480    2.0510   72.8620 N.pl3 515  ARG515      0.1354
     40  NH2       -1.7700    3.4580   73.8570 N.pl3 515  ARG515      0.1354
     41  N          0.3730    4.6120   66.3680 N.am  516  HIS516     -0.1976
     42  CA         1.0250    3.9360   65.2500 C.3   516  HIS516      0.1656
     43  C          2.2730    4.6470   64.7640 C.2   516  HIS516      0.2291
     44  O          3.2360    3.9900   64.3690 O.2   516  HIS516     -0.2864
     45  CB         0.0290    3.6930   64.1190 C.3   516  HIS516      0.0771
     46  CG        -1.0360    2.7060   64.4870 C.ar  516  HIS516      0.0820
     47  ND1       -2.1020    2.4100   63.6650 N.ar  516  HIS516     -0.2267
     48  CD2       -1.1980    1.9480   65.5970 C.ar  516  HIS516      0.1154
     49  CE1       -2.8650    1.5020   64.2450 C.ar  516  HIS516      0.1986
     50  NE2       -2.3350    1.2000   65.4170 N.ar  516  HIS516     -0.2212
     51  N          4.9230    3.8150   67.3340 N.3   519  ASP519     -0.1239
     52  CA         5.3570    2.4420   67.1320 C.3   519  ASP519      0.1674
     53  C          6.1850    2.2680   65.8650 C.2   519  ASP519      0.2266
     54  O          7.0910    1.4340   65.8380 O.2   519  ASP519     -0.2867
     55  CB         4.1560    1.4880   67.1700 C.3   519  ASP519      0.1410
     56  CG         3.5660    1.3550   68.5750 C.2   519  ASP519      0.3668
     57  OD1        4.2120    1.8080   69.5550 O.co2 519  ASP519     -0.2456
     58  OD2        2.4650    0.7790   68.7040 O.co2 519  ASP519     -0.2456
     59  N         -6.1340   -9.3800   66.1730 N.3   684  LYS684     -0.1231
     60  CA        -4.9650   -8.5560   66.4780 C.3   684  LYS684      0.1693
     61  C         -4.8470   -7.3600   65.5270 C.2   684  LYS684      0.2592
     62  O         -4.4820   -6.2480   65.9440 O.2   684  LYS684     -0.2718
     63  CB        -3.6940   -9.3990   66.3990 C.3   684  LYS684      0.0285
     64  CG        -2.4260   -8.6470   66.7750 C.3   684  LYS684      0.0035
     65  CD        -1.1900   -9.4870   66.5260 C.3   684  LYS684      0.0206
     66  CE         0.0790   -8.6780   66.7370 C.3   684  LYS684      0.1093
     67  NZ         1.3060   -9.4650   66.4760 N.3   684  LYS684     -0.1314
     68  N         -5.1830   -7.5770   64.2540 N.am  685  HIS685     -0.1962
     69  CA        -5.0860   -6.5340   63.2250 C.3   685  HIS685      0.1787
     70  C         -6.3380   -5.6690   63.0890 C.2   685  HIS685      0.2620
     71  O         -6.4770   -4.9130   62.1320 O.2   685  HIS685     -0.2715
     72  CB        -4.6980   -7.1670   61.8960 C.3   685  HIS685      0.0785
     73  CG        -3.3570   -7.8140   61.9350 C.ar  685  HIS685      0.0821
     74  ND1       -2.9960   -8.8400   61.0900 N.ar  685  HIS685     -0.2267
     75  CD2       -2.3010   -7.6120   62.7600 C.ar  685  HIS685      0.1154
     76  CE1       -1.7660   -9.2260   61.3780 C.ar  685  HIS685      0.1986
     77  NE2       -1.3200   -8.4950   62.3860 N.ar  685  HIS685     -0.2212
     78  N         -7.2200   -5.7770   64.0840 N.am  686  LEU686     -0.1977
     79  CA        -8.3440   -4.8590   64.2770 C.3   686  LEU686      0.1596
     80  C         -9.4400   -5.0390   63.2340 C.2   686  LEU686      0.2287
     81  O        -10.2200   -4.1200   62.9740 O.2   686  LEU686     -0.2864
     82  CB        -7.8670   -3.3940   64.3230 C.3   686  LEU686      0.0297
     83  CG        -6.6610   -3.1110   65.2230 C.3   686  LEU686      0.0022
     84  CD1       -6.2610   -1.6450   65.1200 C.3   686  LEU686      0.0001
     85  CD2       -6.9370   -3.5030   66.6740 C.3   686  LEU686      0.0001
     86  N         -7.9020   -1.7740   70.3210 N.3   739  ILE739     -0.1245
     87  CA        -6.4600   -1.6720   70.5210 C.3   739  ILE739      0.1561
     88  C         -5.9800   -2.0500   71.9270 C.2   739  ILE739      0.2260
     89  O         -5.0130   -2.7870   72.0440 O.2   739  ILE739     -0.2867
     90  CB        -5.9270   -0.2850   70.0760 C.3   739  ILE739      0.0252
     91  CG1       -5.9760   -0.2180   68.5450 C.3   739  ILE739      0.0019
     92  CG2       -4.5030   -0.0370   70.5890 C.3   739  ILE739      0.0019
     93  CD1       -5.7020    1.1490   67.9560 C.3   739  ILE739      0.0001
     94  N         -5.4710   -5.9620   72.4020 N.3   742  ILE742     -0.1231
     95  CA        -4.6150   -6.8140   71.5640 C.3   742  ILE742      0.1692
     96  C         -3.2510   -7.1780   72.1600 C.2   742  ILE742      0.2592
     97  O         -2.6610   -8.1820   71.7590 O.2   742  ILE742     -0.2718
     98  CB        -4.4510   -6.2660   70.1290 C.3   742  ILE742      0.0266
     99  CG1       -3.6100   -4.9970   70.1030 C.3   742  ILE742      0.0019
    100  CG2       -5.8160   -6.0410   69.4760 C.3   742  ILE742      0.0020
    101  CD1       -3.2200   -4.5840   68.6990 C.3   742  ILE742      0.0001
    102  N         -2.7570   -6.3950   73.1130 N.am  743  ASP743     -0.1974
    103  CA        -1.4510   -6.6860   73.7210 C.3   743  ASP743      0.1709
    104  C         -1.3600   -8.0520   74.3960 C.2   743  ASP743      0.2293
    105  O         -0.2720   -8.6340   74.4730 O.2   743  ASP743     -0.2864
    106  CB        -1.0510   -5.6010   74.7350 C.3   743  ASP743      0.1436
    107  CG        -0.5680   -4.3180   74.0640 C.2   743  ASP743      0.3671
    108  OD1       -0.5520   -4.2460   72.8050 O.co2 743  ASP743     -0.2456
    109  OD2       -0.2230   -3.3660   74.8030 O.co2 743  ASP743     -0.2456
@<TRIPOS>BOND
     1    20    21   ar
     2    20    18   ar
     3    21    19   ar
     4    18    15   ar
     5     1     2    1
     6    19    17   ar
     7     4     3    2
     8    11    10    2
     9    15    17   ar
    10    15    13   ar
    11    25    24    2
    12     3     2    1
    13     3     8   am
    14    17    16   ar
    15     2     5    1
    16     9    10    1
    17     9     8    1
    18     9    12    1
    19    10    22   am
    20    24    23    1
    21    74    76   ar
    22    74    73   ar
    23    13    12    1
    24    13    14   ar
    25    76    77   ar
    26    16    14   ar
    27     5     7    1
    28     5     6    1
    29    22    23    1
    30    72    73    1
    31    72    69    1
    32    23    26    1
    33    73    75   ar
    34    71    70    2
    35    77    75   ar
    36    81    80    2
    37    70    69    1
    38    70    78   am
    39    26    27    1
    40    69    68    1
    41    80    79    1
    42    28    27   ar
    43    27    29   ar
    44    47    49   ar
    45    47    46   ar
    46    78    79    1
    47    45    46    1
    48    45    42    1
    49    49    50   ar
    50    68    61   am
    51    79    82    1
    52    82    83    1
    53    44    43    2
    54    46    48   ar
    55    43    42    1
    56    84    83    1
    57    83    85    1
    58    42    41    1
    59    50    48   ar
    60    61    62    2
    61    61    60    1
    62    54    53    2
    63    53    52    1
    64    59    60    1
    65    41    32   am
    66    63    60    1
    67    63    64    1
    68    67    66    1
    69    65    66    1
    70    65    64    1
    71    52    55    1
    72    52    51    1
    73    55    56    1
    74    32    33    2
    75    32    31    1
    76    93    91    1
    77    30    31    1
    78    91    90    1
    79    56    58   ar
    80    56    57   ar
    81    31    34    1
    82   101    99    1
    83    34    35    1
    84   100    98    1
    85    35    36    1
    86    90    87    1
    87    90    92    1
    88    99    98    1
    89    98    95    1
    90    86    87    1
    91    36    37    1
    92    87    88    1
    93    95    96    1
    94    95    94    1
    95    37    38    2
    96    97    96    2
    97    88    89    2
    98    96   102   am
    99    38    39    1
   100    38    40    1
   101   108   107   ar
   102   102   103    1
   103   103   104    1
   104   103   106    1
   105   107   106    1
   106   107   109   ar
   107   104   105    2
