@<TRIPOS>MOLECULE
tmp/5bv2A05.pdb
 126 118 0 0 0
SMALL
GASTEIGER

@<TRIPOS>ATOM
      1  N         34.5350   -0.1300  -11.2220 N.3   258  ARG258     -0.1245
      2  CA        34.0290    1.1360  -11.7590 C.3   258  ARG258      0.1563
      3  C         32.7580    1.5710  -11.0020 C.2   258  ARG258      0.2260
      4  O         32.5380    2.7590  -10.7480 O.2   258  ARG258     -0.2867
      5  CB        33.7750    0.9610  -13.2580 C.3   258  ARG258      0.0307
      6  CG        32.8330    1.9490  -13.9270 C.3   258  ARG258      0.0489
      7  CD        33.3520    3.3680  -13.9140 C.3   258  ARG258      0.2205
      8  NE        32.3930    4.2510  -14.6050 N.pl3 258  ARG258     -0.0865
      9  CZ        31.2810    4.7430  -14.0550 C.cat 258  ARG258      0.5346
     10  NH1       30.9650    4.4680  -12.7910 N.pl3 258  ARG258      0.1354
     11  NH2       30.4720    5.5060  -14.7750 N.pl3 258  ARG258      0.1354
     12  N         38.1710    0.4320  -12.6380 N.3   296  LEU296     -0.1245
     13  CA        39.0550    1.5790  -12.7710 C.3   296  LEU296      0.1561
     14  C         40.4860    1.0810  -12.9590 C.2   296  LEU296      0.2260
     15  O         40.7400   -0.1320  -12.9930 O.2   296  LEU296     -0.2867
     16  CB        38.9660    2.4430  -11.5140 C.3   296  LEU296      0.0270
     17  CG        37.5530    2.8500  -11.0610 C.3   296  LEU296      0.0019
     18  CD1       37.6160    3.6470   -9.7690 C.3   296  LEU296      0.0001
     19  CD2       36.8440    3.6450  -12.1350 C.3   296  LEU296      0.0001
     20  N         43.8040    6.2980  -11.1090 N.3   300  GLU300     -0.1245
     21  CA        42.4670    6.8760  -11.1680 C.3   300  GLU300      0.1567
     22  C         41.6680    6.6280   -9.8870 C.2   300  GLU300      0.2260
     23  O         41.1400    7.5740   -9.2890 O.2   300  GLU300     -0.2867
     24  CB        41.7510    6.2900  -12.3820 C.3   300  GLU300      0.0388
     25  CG        40.2860    6.6320  -12.5480 C.3   300  GLU300      0.1160
     26  CD        39.5860    5.7170  -13.5640 C.2   300  GLU300      0.3649
     27  OE1       40.1010    4.6060  -13.8710 O.co2 300  GLU300     -0.2457
     28  OE2       38.5040    6.1270  -14.0570 O.co2 300  GLU300     -0.2457
     29  N         40.6160    9.4290   -7.1700 N.3   304  LEU304     -0.1245
     30  CA        39.1850    9.5760   -7.0110 C.3   304  LEU304      0.1561
     31  C         38.7560    9.4880   -5.5330 C.2   304  LEU304      0.2260
     32  O         37.7700   10.1160   -5.1530 O.2   304  LEU304     -0.2867
     33  CB        38.4680    8.5560   -7.8900 C.3   304  LEU304      0.0270
     34  CG        36.9630    8.6430   -8.0760 C.3   304  LEU304      0.0019
     35  CD1       36.4630   10.0460   -8.4070 C.3   304  LEU304      0.0001
     36  CD2       36.5890    7.6500   -9.1630 C.3   304  LEU304      0.0001
     37  N         32.0210    8.4520   -4.5090 N.3   311  PHE311     -0.1241
     38  CA        31.7370    8.1780   -5.9150 C.3   311  PHE311      0.1605
     39  C         30.8140    6.9770   -6.1660 C.2   311  PHE311      0.2264
     40  O         29.8820    7.0750   -6.9790 O.2   311  PHE311     -0.2867
     41  CB        33.0590    7.9890   -6.6780 C.3   311  PHE311      0.0534
     42  CG        32.8740    7.7390   -8.1450 C.ar  311  PHE311     -0.0203
     43  CD1       32.5820    8.7910   -9.0080 C.ar  311  PHE311     -0.0042
     44  CD2       33.0100    6.4670   -8.6680 C.ar  311  PHE311     -0.0042
     45  CE1       32.3950    8.5680  -10.3620 C.ar  311  PHE311     -0.0003
     46  CE2       32.8340    6.2350  -10.0320 C.ar  311  PHE311     -0.0003
     47  CZ        32.5300    7.2910  -10.8770 C.ar  311  PHE311     -0.0000
     48  N         26.6590    4.8900  -18.4100 N.3   595  ARG595     -0.1245
     49  CA        27.9640    5.5440  -18.4210 C.3   595  ARG595      0.1563
     50  C         27.7660    7.0510  -18.6380 C.2   595  ARG595      0.2260
     51  O         26.6540    7.5090  -18.9480 O.2   595  ARG595     -0.2867
     52  CB        28.8800    4.9450  -19.5010 C.3   595  ARG595      0.0307
     53  CG        29.2050    3.4590  -19.3590 C.3   595  ARG595      0.0489
     54  CD        29.8370    3.1320  -18.0170 C.3   595  ARG595      0.2205
     55  NE        30.2110    1.7230  -17.9210 N.pl3 595  ARG595     -0.0865
     56  CZ        31.4120    1.2230  -18.2070 C.cat 595  ARG595      0.5346
     57  NH1       32.4070    2.0030  -18.6160 N.pl3 595  ARG595      0.1354
     58  NH2       31.6220   -0.0740  -18.0720 N.pl3 595  ARG595      0.1354
     59  N         38.3260   11.8190  -13.8870 N.3   654  LEU654     -0.1231
     60  CA        38.1570   10.6540  -13.0360 C.3   654  LEU654      0.1693
     61  C         36.7170   10.2030  -12.9500 C.2   654  LEU654      0.2593
     62  O         36.4510    9.0150  -12.7980 O.2   654  LEU654     -0.2718
     63  CB        38.6370   10.9550  -11.6030 C.3   654  LEU654      0.0284
     64  CG        40.0170   11.5370  -11.4050 C.3   654  LEU654      0.0019
     65  CD1       40.2110   11.8100   -9.9230 C.3   654  LEU654      0.0001
     66  CD2       41.0790   10.5890  -11.9320 C.3   654  LEU654      0.0001
     67  N         35.8030   11.1610  -12.9790 N.am  655  THR655     -0.1939
     68  CA        34.3780   10.9230  -12.7310 C.3   655  THR655      0.2028
     69  C         33.5790   10.5370  -13.9700 C.2   655  THR655      0.2642
     70  O         32.3730   10.2890  -13.8680 O.2   655  THR655     -0.2714
     71  CB        33.7020   12.1700  -12.0880 C.3   655  THR655      0.1808
     72  OG1       33.6280   13.2580  -13.0230 O.3   655  THR655     -0.2208
     73  CG2       34.4770   12.6080  -10.8420 C.3   655  THR655      0.0379
     74  N         34.2320   10.4840  -15.1280 N.am  656  VAL656     -0.1963
     75  CA        33.5520   10.1430  -16.3590 C.3   656  VAL656      0.1727
     76  C         34.2550    8.9990  -17.1050 C.2   656  VAL656      0.2616
     77  O         35.3950    8.6270  -16.8020 O.2   656  VAL656     -0.2715
     78  CB        33.3850   11.3660  -17.2940 C.3   656  VAL656      0.0290
     79  CG1       32.6560   12.5020  -16.5930 C.3   656  VAL656      0.0023
     80  CG2       34.7250   11.8580  -17.8210 C.3   656  VAL656      0.0023
     81  N         33.5430    8.4720  -18.0960 N.am  657  ASP657     -0.1971
     82  CA        33.9930    7.3170  -18.8720 C.3   657  ASP657      0.1709
     83  C         34.7190    7.6780  -20.1760 C.2   657  ASP657      0.2293
     84  O         35.4460    6.8580  -20.7470 O.2   657  ASP657     -0.2864
     85  CB        32.7870    6.4370  -19.1450 C.3   657  ASP657      0.1436
     86  CG        32.1890    5.8720  -17.8560 C.2   657  ASP657      0.3671
     87  OD1       32.8700    5.0250  -17.2260 O.co2 657  ASP657     -0.2456
     88  OD2       31.0760    6.2820  -17.4520 O.co2 657  ASP657     -0.2456
     89  N         40.9770    6.3840  -21.2360 N.3   687  LYS687     -0.1245
     90  CA        39.6040    6.6770  -21.6200 C.3   687  LYS687      0.1561
     91  C         39.5050    7.1540  -23.0610 C.2   687  LYS687      0.2260
     92  O         40.4020    7.8480  -23.5520 O.2   687  LYS687     -0.2867
     93  CB        39.0020    7.6990  -20.6640 C.3   687  LYS687      0.0271
     94  CG        38.7910    7.0920  -19.2920 C.3   687  LYS687      0.0035
     95  CD        38.4340    8.1060  -18.2260 C.3   687  LYS687      0.0206
     96  CE        38.2580    7.3740  -16.8940 C.3   687  LYS687      0.1093
     97  NZ        38.0050    8.2830  -15.7470 N.3   687  LYS687     -0.1314
     98  N         33.5840    3.1800  -26.1250 N.3   730  MET730     -0.1245
     99  CA        33.0050    3.1170  -24.7920 C.3   730  MET730      0.1570
    100  C         32.5220    1.7080  -24.4450 C.2   730  MET730      0.2261
    101  O         32.6560    1.2650  -23.3000 O.2   730  MET730     -0.2867
    102  CB        31.8730    4.1290  -24.6300 C.3   730  MET730      0.0387
    103  CG        32.3610    5.5700  -24.5830 C.3   730  MET730      0.0595
    104  SD        31.0310    6.7350  -24.2230 S.3   730  MET730     -0.1393
    105  CE        30.7360    6.3240  -22.5010 C.3   730  MET730      0.0692
    106  N         35.1380   -0.1970  -22.9540 N.3   733  HIS733     -0.1226
    107  CA        35.4950    0.3540  -21.6270 C.3   733  HIS733      0.1752
    108  C         36.7360    1.2570  -21.6370 C.2   733  HIS733      0.2595
    109  O         36.6300    2.4490  -21.3600 O.2   733  HIS733     -0.2718
    110  CB        35.6050   -0.7760  -20.5830 C.3   733  HIS733      0.0759
    111  CG        35.9080   -0.3030  -19.2070 C.ar  733  HIS733      0.0818
    112  ND1       35.1780    0.6820  -18.5810 N.ar  733  HIS733     -0.2268
    113  CD2       36.8560   -0.6940  -18.3250 C.ar  733  HIS733      0.1154
    114  CE1       35.6900    0.9030  -17.3840 C.ar  733  HIS733      0.1986
    115  NE2       36.7020    0.0750  -17.2050 N.ar  733  HIS733     -0.2212
    116  N         37.9060    0.6920  -21.9260 N.am  734  ARG734     -0.1980
    117  CA        39.1460    1.4700  -21.9730 C.3   734  ARG734      0.1597
    118  C         39.9810    1.0750  -23.1790 C.2   734  ARG734      0.2287
    119  O         39.7840    0.0140  -23.7600 O.2   734  ARG734     -0.2864
    120  CB        39.9650    1.2910  -20.6870 C.3   734  ARG734      0.0334
    121  CG        39.2800    1.7510  -19.4010 C.3   734  ARG734      0.0492
    122  CD        39.1110    3.2670  -19.3100 C.3   734  ARG734      0.2205
    123  NE        38.2570    3.5780  -18.1700 N.pl3 734  ARG734     -0.0865
    124  CZ        38.6700    3.8200  -16.9240 C.cat 734  ARG734      0.5346
    125  NH1       39.9570    3.8780  -16.6040 N.pl3 734  ARG734      0.1354
    126  NH2       37.7660    4.0290  -15.9760 N.pl3 734  ARG734      0.1354
@<TRIPOS>BOND
     1    98    99    1
     2    99   102    1
     3    99   100    1
     4   102   103    1
     5   103   104    1
     6   100   101    2
     7   104   105    1
     8   119   118    2
     9    92    91    2
    10   118   117    1
    11    91    90    1
    12   106   107    1
    13   117   116    1
    14   117   120    1
    15   116   108   am
    16   108   107    1
    17   108   109    2
    18   107   110    1
    19    90    89    1
    20    90    93    1
    21    84    83    2
    22   120   121    1
    23    93    94    1
    24   110   111    1
    25    83    82    1
    26    52    53    1
    27    52    49    1
    28   121   122    1
    29    53    54    1
    30   122   123    1
    31    94    95    1
    32   111   112   ar
    33   111   113   ar
    34    85    82    1
    35    85    86    1
    36    51    50    2
    37    82    81    1
    38    50    49    1
    39    57    56    1
    40   112   114   ar
    41    49    48    1
    42   113   115   ar
    43    95    96    1
    44    56    58    1
    45    56    55    2
    46   123   124    2
    47    81    76   am
    48    54    55    1
    49    86    88   ar
    50    86    87   ar
    51    80    78    1
    52   114   115   ar
    53    78    79    1
    54    78    75    1
    55    76    77    2
    56    76    75    1
    57   124   125    1
    58   124   126    1
    59    96    97    1
    60    75    74    1
    61    74    69   am
    62    11     9    1
    63     8     9    2
    64     8     7    1
    65    28    26   ar
    66     9    10    1
    67    69    70    2
    68    69    68    1
    69     6     7    1
    70     6     5    1
    71    59    60    1
    72    27    26   ar
    73    26    25    1
    74     5     2    1
    75    60    61    1
    76    60    63    1
    77    72    71    1
    78    15    14    2
    79    67    61   am
    80    67    68    1
    81    14    13    1
    82    61    62    2
    83    13    12    1
    84    13    16    1
    85    68    71    1
    86    25    24    1
    87    24    21    1
    88    19    17    1
    89    71    73    1
    90    66    64    1
    91     2     1    1
    92     2     3    1
    93    63    64    1
    94    16    17    1
    95    64    65    1
    96    21    20    1
    97    21    22    1
    98    17    18    1
    99     3     4    2
   100    47    45   ar
   101    47    46   ar
   102    45    43   ar
   103    46    44   ar
   104    22    23    2
   105    36    34    1
   106    43    42   ar
   107    44    42   ar
   108    35    34    1
   109    42    41    1
   110    34    33    1
   111    33    30    1
   112    29    30    1
   113    30    31    1
   114    40    39    2
   115    41    38    1
   116    39    38    1
   117    38    37    1
   118    31    32    2
