@<TRIPOS>MOLECULE
tmp/5bv2D01.pdb
 232 224 0 0 0
SMALL
GASTEIGER

@<TRIPOS>ATOM
      1  N         32.6410    9.8440   18.1400 N.3   119  ARG119     -0.1231
      2  CA        32.2190   11.1730   18.6090 C.3   119  ARG119      0.1694
      3  C         31.2060   11.7650   17.6180 C.2   119  ARG119      0.2592
      4  O         31.3730   11.6380   16.3970 O.2   119  ARG119     -0.2718
      5  CB        33.4160   12.0990   18.7320 C.3   119  ARG119      0.0321
      6  CG        34.4270   11.7160   19.7950 C.3   119  ARG119      0.0489
      7  CD        35.7670   12.3520   19.5060 C.3   119  ARG119      0.2205
      8  NE        36.7400   12.1290   20.5650 N.pl3 119  ARG119     -0.0865
      9  CZ        37.3910   10.9960   20.7960 C.cat 119  ARG119      0.5346
     10  NH1       37.2010    9.9270   20.0260 N.pl3 119  ARG119      0.1354
     11  NH2       38.2420   10.9220   21.8120 N.pl3 119  ARG119      0.1354
     12  N         30.1540   12.4210   18.1190 N.am  120  ILE120     -0.1966
     13  CA        29.1110   12.9590   17.2160 C.3   120  ILE120      0.1727
     14  C         29.7390   13.9760   16.2370 C.2   120  ILE120      0.2616
     15  O         29.3610   14.0290   15.0580 O.2   120  ILE120     -0.2715
     16  CB        27.8820   13.5160   17.9830 C.3   120  ILE120      0.0290
     17  CG1       26.9410   14.3430   17.1120 C.3   120  ILE120      0.0022
     18  CG2       28.3010   14.3810   19.1340 C.3   120  ILE120      0.0023
     19  CD1       25.8910   13.5670   16.3600 C.3   120  ILE120      0.0001
     20  N         30.6940   14.7640   16.7330 N.am  121  VAL121     -0.1963
     21  CA        31.4910   15.6880   15.9240 C.3   121  VAL121      0.1727
     22  C         32.9440   15.5040   16.3660 C.2   121  VAL121      0.2616
     23  O         33.1970   15.0010   17.4660 O.2   121  VAL121     -0.2715
     24  CB        31.0500   17.1610   16.1110 C.3   121  VAL121      0.0290
     25  CG1       29.7380   17.4200   15.3960 C.3   121  VAL121      0.0023
     26  CG2       30.9700   17.5420   17.5810 C.3   121  VAL121      0.0023
     27  N         33.8850   15.8790   15.5040 N.am  122  HIS122     -0.1973
     28  CA        35.3210   15.7010   15.7740 C.3   122  HIS122      0.1656
     29  C         35.7150   14.2070   15.9030 C.2   122  HIS122      0.2291
     30  O         36.6550   13.8420   16.6230 O.2   122  HIS122     -0.2864
     31  CB        35.7660   16.4730   17.0230 C.3   122  HIS122      0.0771
     32  CG        35.5890   17.9600   16.9400 C.ar  122  HIS122      0.0820
     33  ND1       36.6390   18.8080   16.6770 N.ar  122  HIS122     -0.2267
     34  CD2       34.5100   18.7490   17.1390 C.ar  122  HIS122      0.1154
     35  CE1       36.2150   20.0590   16.7140 C.ar  122  HIS122      0.1986
     36  NE2       34.9190   20.0470   16.9640 N.ar  122  HIS122     -0.2212
     37  N         44.4120   16.1830   21.7630 N.3   159  ARG159     -0.1245
     38  CA        43.8170   15.6160   20.5620 C.3   159  ARG159      0.1563
     39  C         43.4420   16.7390   19.5930 C.2   159  ARG159      0.2260
     40  O         42.7140   17.6760   19.9410 O.2   159  ARG159     -0.2867
     41  CB        42.5960   14.7690   20.9020 C.3   159  ARG159      0.0307
     42  CG        41.9820   13.9890   19.7360 C.3   159  ARG159      0.0489
     43  CD        40.9470   12.9830   20.2320 C.3   159  ARG159      0.2205
     44  NE        40.2710   12.2230   19.1730 N.pl3 159  ARG159     -0.0865
     45  CZ        39.2820   12.6670   18.4120 C.cat 159  ARG159      0.5346
     46  NH1       38.8120   13.8940   18.5450 N.pl3 159  ARG159      0.1354
     47  NH2       38.7640   11.8810   17.4890 N.pl3 159  ARG159      0.1354
     48  N         41.7760   17.4650   15.7220 N.3   161  SER161     -0.1217
     49  CA        40.6970   16.8110   14.9860 C.3   161  SER161      0.1889
     50  C         40.1580   17.6560   13.8560 C.2   161  SER161      0.2288
     51  O         40.4030   18.8600   13.7900 O.2   161  SER161     -0.2866
     52  CB        39.5440   16.4960   15.9570 C.3   161  SER161      0.2089
     53  OG        39.1440   17.6670   16.6860 O.3   161  SER161     -0.2183
     54  N         39.7120   20.9490   15.4840 N.3   178  GLY178     -0.1210
     55  CA        39.7060   20.9550   16.9290 C.3   178  GLY178      0.1956
     56  C         41.1140   20.8690   17.4890 C.2   178  GLY178      0.2612
     57  O         42.0140   20.3070   16.8750 O.2   178  GLY178     -0.2717
     58  N         41.2710   21.4140   18.6890 N.am  179  PHE179     -0.1962
     59  CA        42.5450   21.4810   19.4050 C.3   179  PHE179      0.1771
     60  C         42.1430   21.3800   20.8830 C.2   179  PHE179      0.2619
     61  O         41.8050   22.3870   21.5160 O.2   179  PHE179     -0.2715
     62  CB        43.2350   22.8110   19.0650 C.3   179  PHE179      0.0574
     63  CG        44.6630   22.9560   19.5700 C.ar  179  PHE179     -0.0200
     64  CD1       45.1390   22.2840   20.7000 C.ar  179  PHE179     -0.0042
     65  CD2       45.5330   23.8230   18.9110 C.ar  179  PHE179     -0.0042
     66  CE1       46.4490   22.4680   21.1380 C.ar  179  PHE179     -0.0003
     67  CE2       46.8340   24.0160   19.3610 C.ar  179  PHE179     -0.0003
     68  CZ        47.2960   23.3310   20.4600 C.ar  179  PHE179     -0.0000
     69  N         42.1390   20.1510   21.4070 N.am  180  ALA180     -0.1977
     70  CA        41.6600   19.8580   22.7630 C.3   180  ALA180      0.1597
     71  C         42.8200   19.4080   23.6310 C.2   180  ALA180      0.2287
     72  O         43.5910   18.5320   23.2340 O.2   180  ALA180     -0.2864
     73  CB        40.5930   18.7740   22.7230 C.3   180  ALA180      0.0319
     74  N         39.0940   22.9990   25.5050 N.3   193  VAL193     -0.1231
     75  CA        38.5550   22.3460   24.3120 C.3   193  VAL193      0.1692
     76  C         38.2920   23.4150   23.2670 C.2   193  VAL193      0.2593
     77  O         37.2300   24.0620   23.2520 O.2   193  VAL193     -0.2718
     78  CB        37.2760   21.5500   24.6720 C.3   193  VAL193      0.0266
     79  CG1       36.7580   20.7640   23.4780 C.3   193  VAL193      0.0020
     80  CG2       37.5570   20.6250   25.8640 C.3   193  VAL193      0.0020
     81  N         39.2870   23.6200   22.4120 N.am  194  GLY194     -0.1942
     82  CA        39.2480   24.6960   21.4310 C.3   194  GLY194      0.2014
     83  C         39.2550   24.2600   19.9800 C.2   194  GLY194      0.2638
     84  O         39.2690   23.0720   19.6800 O.2   194  GLY194     -0.2714
     85  N         39.2260   25.2540   19.0870 N.am  195  ASN195     -0.1972
     86  CA        39.3360   25.0620   17.6520 C.3   195  ASN195      0.1688
     87  C         40.4810   25.9220   17.1050 C.2   195  ASN195      0.2292
     88  O         41.1260   26.6520   17.8590 O.2   195  ASN195     -0.2864
     89  CB        38.0270   25.4300   16.9410 C.3   195  ASN195      0.1181
     90  CG        36.9480   24.3640   17.0780 C.2   195  ASN195      0.2629
     91  OD1       37.2110   23.1980   17.4310 O.2   195  ASN195     -0.2716
     92  ND2       35.7160   24.7530   16.7490 N.am  195  ASN195     -0.0877
     93  N         33.1180   30.8250   16.5020 N.3   200  PHE200     -0.1241
     94  CA        32.3330   29.7100   16.0200 C.3   200  PHE200      0.1605
     95  C         31.2780   30.2010   15.0200 C.2   200  PHE200      0.2264
     96  O         31.1180   31.4040   14.8240 O.2   200  PHE200     -0.2867
     97  CB        31.7210   28.8900   17.1750 C.3   200  PHE200      0.0534
     98  CG        31.3360   27.4950   16.7550 C.ar  200  PHE200     -0.0203
     99  CD1       32.3080   26.6220   16.2690 C.ar  200  PHE200     -0.0042
    100  CD2       29.9970   27.0890   16.7360 C.ar  200  PHE200     -0.0042
    101  CE1       31.9630   25.3560   15.8120 C.ar  200  PHE200     -0.0003
    102  CE2       29.6500   25.8250   16.2920 C.ar  200  PHE200     -0.0003
    103  CZ        30.6290   24.9640   15.8160 C.ar  200  PHE200     -0.0000
    104  N         23.7540   27.6500   21.6630 N.3   205  ALA205     -0.1245
    105  CA        23.8560   26.1850   21.6010 C.3   205  ALA205      0.1562
    106  C         22.5910   25.4860   21.0980 C.2   205  ALA205      0.2260
    107  O         22.6720   24.3710   20.5830 O.2   205  ALA205     -0.2867
    108  CB        24.2130   25.6320   22.9680 C.3   205  ALA205      0.0290
    109  N         22.9690   24.2080   17.6570 N.3   208  PHE208     -0.1228
    110  CA        24.0710   23.3360   17.2920 C.3   208  PHE208      0.1721
    111  C         23.6310   22.1150   16.4660 C.2   208  PHE208      0.2437
    112  O         24.2520   21.8230   15.4590 O.2   208  PHE208     -0.2733
    113  CB        24.8780   22.9280   18.5250 C.3   208  PHE208      0.0547
    114  CG        26.2130   22.3030   18.2040 C.ar  208  PHE208     -0.0202
    115  CD1       27.2190   23.0400   17.6330 C.ar  208  PHE208     -0.0042
    116  CD2       26.4690   20.9750   18.5390 C.ar  208  PHE208     -0.0042
    117  CE1       28.4610   22.4730   17.3830 C.ar  208  PHE208     -0.0003
    118  CE2       27.6950   20.4000   18.2800 C.ar  208  PHE208     -0.0003
    119  CZ        28.6950   21.1470   17.7100 C.ar  208  PHE208     -0.0000
    120  N         22.5460   21.4230   16.8610 N.am  209  PRO209     -0.2729
    121  CA        22.1580   20.2790   16.0330 C.3   209  PRO209      0.1401
    122  C         21.7140   20.6820   14.6270 C.2   209  PRO209      0.2269
    123  O         21.9180   19.9280   13.6850 O.2   209  PRO209     -0.2865
    124  CB        21.0030   19.6350   16.8220 C.3   209  PRO209      0.0296
    125  CG        21.2850   20.0190   18.2390 C.3   209  PRO209      0.0237
    126  CD        21.7900   21.4450   18.1260 C.3   209  PRO209      0.0939
    127  N         40.2960   29.1200   22.5200 N.3   267  GLY267     -0.1210
    128  CA        39.1690   28.6740   23.3410 C.3   267  GLY267      0.1956
    129  C         37.8270   29.1920   22.8480 C.2   267  GLY267      0.2612
    130  O         36.7920   28.6700   23.2300 O.2   267  GLY267     -0.2717
    131  N         37.8810   30.2280   21.9980 N.am  268  ILE268     -0.1965
    132  CA        36.7290   30.9680   21.4420 C.3   268  ILE268      0.1727
    133  C         35.9890   31.8120   22.4770 C.2   268  ILE268      0.2616
    134  O         35.9050   33.0390   22.3340 O.2   268  ILE268     -0.2715
    135  CB        35.7840   30.0790   20.6060 C.3   268  ILE268      0.0290
    136  CG1       36.5670   29.5760   19.3890 C.3   268  ILE268      0.0022
    137  CG2       34.5320   30.8660   20.2260 C.3   268  ILE268      0.0023
    138  CD1       35.8520   28.6240   18.4820 C.3   268  ILE268      0.0001
    139  N         35.4320   31.1710   23.4980 N.am  269  HIS269     -0.1973
    140  CA        34.6180   31.8750   24.4840 C.3   269  HIS269      0.1656
    141  C         35.4500   32.7580   25.3880 C.2   269  HIS269      0.2291
    142  O         36.6080   32.4740   25.6820 O.2   269  HIS269     -0.2864
    143  CB        33.8790   30.8900   25.3860 C.3   269  HIS269      0.0771
    144  CG        33.1970   29.7890   24.6540 C.ar  269  HIS269      0.0820
    145  ND1       32.1140   30.0070   23.8360 N.ar  269  HIS269     -0.2267
    146  CD2       33.4470   28.4620   24.6030 C.ar  269  HIS269      0.1154
    147  CE1       31.7090   28.8600   23.3230 C.ar  269  HIS269      0.1986
    148  NE2       32.4890   27.9050   23.7830 N.ar  269  HIS269     -0.2212
    149  N         39.4890    8.7860   24.9670 N.3   383  ALA383     -0.1245
    150  CA        39.6930   10.0480   25.6930 C.3   383  ALA383      0.1562
    151  C         38.4240   10.9000   25.6550 C.2   383  ALA383      0.2260
    152  O         37.7520   10.9890   24.6220 O.2   383  ALA383     -0.2867
    153  CB        40.8690   10.8400   25.1260 C.3   383  ALA383      0.0290
    154  N         37.1640   14.7210   26.5260 N.3   385  PHE385     -0.1241
    155  CA        37.4580   16.1200   26.8080 C.3   385  PHE385      0.1605
    156  C         36.1240   16.8570   26.9610 C.2   385  PHE385      0.2264
    157  O         35.1620   16.5490   26.2610 O.2   385  PHE385     -0.2867
    158  CB        38.2180   16.7630   25.6380 C.3   385  PHE385      0.0534
    159  CG        39.5440   16.1150   25.3000 C.ar  385  PHE385     -0.0203
    160  CD1       39.6060   15.0100   24.4630 C.ar  385  PHE385     -0.0042
    161  CD2       40.7300   16.6410   25.7760 C.ar  385  PHE385     -0.0042
    162  CE1       40.8310   14.4310   24.1180 C.ar  385  PHE385     -0.0003
    163  CE2       41.9470   16.0840   25.4250 C.ar  385  PHE385     -0.0003
    164  CZ        42.0060   14.9810   24.5990 C.ar  385  PHE385     -0.0000
    165  N         26.5470   29.9260   23.8070 N.3   401  LEU401     -0.1245
    166  CA        27.0670   28.7320   23.1390 C.3   401  LEU401      0.1561
    167  C         27.8140   27.8730   24.1750 C.2   401  LEU401      0.2260
    168  O         27.5330   26.6700   24.3270 O.2   401  LEU401     -0.2867
    169  CB        27.9780   29.1500   21.9900 C.3   401  LEU401      0.0270
    170  CG        28.4430   28.0480   21.0350 C.3   401  LEU401      0.0019
    171  CD1       27.2490   27.5110   20.2560 C.3   401  LEU401      0.0001
    172  CD2       29.5050   28.5980   20.0800 C.3   401  LEU401      0.0001
    173  N         25.4480   26.0010   26.7390 N.3   404  GLY404     -0.1210
    174  CA        24.9000   24.7220   26.2750 C.3   404  GLY404      0.1956
    175  C         25.9300   23.6210   26.1250 C.2   404  GLY404      0.2611
    176  O         25.6300   22.4390   26.3490 O.2   404  GLY404     -0.2717
    177  N         27.1510   23.9880   25.7340 N.am  405  ARG405     -0.1979
    178  CA        28.2520   23.0330   25.7120 C.3   405  ARG405      0.1597
    179  C         28.3900   22.3130   27.0580 C.2   405  ARG405      0.2287
    180  O         28.6260   21.1090   27.1040 O.2   405  ARG405     -0.2864
    181  CB        29.5990   23.7070   25.3630 C.3   405  ARG405      0.0334
    182  CG        29.7250   24.1020   23.9090 C.3   405  ARG405      0.0492
    183  CD        31.0510   24.7580   23.6130 C.3   405  ARG405      0.2205
    184  NE        32.1470   23.7890   23.4910 N.pl3 405  ARG405     -0.0865
    185  CZ        33.4380   24.0780   23.6230 C.cat 405  ARG405      0.5346
    186  NH1       33.8370   25.3150   23.8720 N.pl3 405  ARG405      0.1354
    187  NH2       34.3540   23.1230   23.5180 N.pl3 405  ARG405      0.1354
    188  N         26.3630   19.1720   27.1510 N.3   408  SER408     -0.1202
    189  CA        26.5710   18.1430   26.1290 C.3   408  SER408      0.2020
    190  C         27.7340   17.1950   26.4240 C.2   408  SER408      0.2618
    191  O         27.6230   15.9910   26.2510 O.2   408  SER408     -0.2717
    192  CB        26.7940   18.8300   24.7650 C.3   408  SER408      0.2103
    193  OG        27.1550   17.8910   23.7850 O.3   408  SER408     -0.2182
    194  N         28.8660   17.7210   26.8640 N.am  409  TYR409     -0.1975
    195  CA        30.0460   16.8580   26.9070 C.3   409  TYR409      0.1639
    196  C         30.0270   15.8260   28.0340 C.2   409  TYR409      0.2290
    197  O         30.7790   14.8620   27.9920 O.2   409  TYR409     -0.2864
    198  CB        31.3300   17.6420   26.9740 C.3   409  TYR409      0.0560
    199  CG        31.6720   18.5450   25.8230 C.ar  409  TYR409     -0.0198
    200  CD1       30.9150   19.6960   25.5700 C.ar  409  TYR409     -0.0009
    201  CD2       32.7460   18.2720   25.0010 C.ar  409  TYR409     -0.0009
    202  CE1       31.2130   20.5190   24.5150 C.ar  409  TYR409      0.0417
    203  CE2       33.0530   19.1020   23.9490 C.ar  409  TYR409      0.0417
    204  CZ        32.2870   20.2230   23.7180 C.ar  409  TYR409      0.1957
    205  OH        32.5860   21.0530   22.6840 O.3   409  TYR409     -0.2866
    206  N         26.9790   13.1330   26.4210 N.3   412  THR412     -0.1203
    207  CA        27.3500   12.3080   25.2740 C.3   412  THR412      0.1994
    208  C         28.1840   11.0750   25.6610 C.2   412  THR412      0.2617
    209  O         28.0850   10.0420   25.0110 O.2   412  THR412     -0.2717
    210  CB        28.0620   13.1730   24.1900 C.3   412  THR412      0.1784
    211  OG1       28.0740   12.4910   22.9270 O.3   412  THR412     -0.2211
    212  CG2       29.4770   13.5360   24.6050 C.3   412  THR412      0.0376
    213  N         28.9850   11.1700   26.7250 N.am  413  GLN413     -0.1979
    214  CA        29.8480   10.0340   27.1260 C.3   413  GLN413      0.1601
    215  C         29.0670    8.8110   27.5960 C.2   413  GLN413      0.2287
    216  O         29.5850    7.7100   27.5860 O.2   413  GLN413     -0.2864
    217  CB        30.8310   10.3990   28.2290 C.3   413  GLN413      0.0394
    218  CG        31.5220   11.7400   28.0780 C.3   413  GLN413      0.0908
    219  CD        32.2190   11.9410   26.7560 C.2   413  GLN413      0.2608
    220  OE1       32.5070   10.9850   26.0190 O.2   413  GLN413     -0.2717
    221  NE2       32.4960   13.2040   26.4370 N.am  413  GLN413     -0.0878
    222  N         28.6770    7.0370   24.3010 N.3   416  ARG416     -0.1245
    223  CA        29.9640    6.8530   23.6150 C.3   416  ARG416      0.1563
    224  C         30.9200    5.9330   24.3780 C.2   416  ARG416      0.2260
    225  O         31.5700    5.0650   23.7770 O.2   416  ARG416     -0.2867
    226  CB        30.6480    8.1890   23.3450 C.3   416  ARG416      0.0307
    227  CG        31.8560    8.0660   22.4260 C.3   416  ARG416      0.0489
    228  CD        32.4060    9.4240   21.9970 C.3   416  ARG416      0.2205
    229  NE        33.1370   10.0850   23.0700 N.pl3 416  ARG416     -0.0865
    230  CZ        34.4300    9.9260   23.3300 C.cat 416  ARG416      0.5346
    231  NH1       35.1690    9.1060   22.6220 N.pl3 416  ARG416      0.1354
    232  NH2       34.9800   10.5630   24.3470 N.pl3 416  ARG416      0.1354
@<TRIPOS>BOND
     1   123   122    2
     2    51    50    2
     3    50    49    1
     4   122   121    1
     5    96    95    2
     6    49    48    1
     7    49    52    1
     8    95    94    1
     9    15    14    2
    10    25    24    1
    11   112   111    2
    12    54    55    1
    13    27    28    1
    14    27    22   am
    15    28    29    1
    16    28    31    1
    17   101   103   ar
    18   101    99   ar
    19   103   102   ar
    20    29    30    2
    21    21    24    1
    22    21    22    1
    23    21    20    1
    24    52    53    1
    25    94    93    1
    26    94    97    1
    27   121   124    1
    28   121   120    1
    29    24    26    1
    30    14    20   am
    31    14    13    1
    32    99    98   ar
    33   102   100   ar
    34    19    17    1
    35    22    23    2
    36     4     3    2
    37   111   120   am
    38   111   110    1
    39    33    35   ar
    40    33    32   ar
    41    35    36   ar
    42   100    98   ar
    43    92    90   am
    44    98    97    1
    45   124   125    1
    46   120   126    1
    47    57    56    2
    48    55    56    1
    49    32    31    1
    50    32    34   ar
    51    89    90    1
    52    89    86    1
    53    36    34   ar
    54    90    91    2
    55    87    86    1
    56    87    88    2
    57    17    16    1
    58    13    16    1
    59    13    12    1
    60   110   109    1
    61   110   113    1
    62   117   115   ar
    63   117   119   ar
    64    56    58   am
    65    47    45    1
    66     3    12   am
    67     3     2    1
    68   115   114   ar
    69    86    85    1
    70   119   118   ar
    71    16    18    1
    72   126   125    1
    73     1     2    1
    74   114   113    1
    75   114   116   ar
    76   118   116   ar
    77    45    46    1
    78    45    44    2
    79   138   136    1
    80     2     5    1
    81    58    59    1
    82     5     6    1
    83    65    67   ar
    84    65    63   ar
    85    62    59    1
    86    62    63    1
    87    85    83   am
    88    44    43    1
    89    67    68   ar
    90   136   135    1
    91    59    60    1
    92     7     6    1
    93     7     8    1
    94    63    64   ar
    95    39    40    2
    96    39    38    1
    97    84    83    2
    98    42    43    1
    99    42    41    1
   100    83    82    1
   101    10     9    1
   102   172   170    1
   103   137   135    1
   104   171   170    1
   105    68    66   ar
   106    38    41    1
   107    38    37    1
   108     8     9    2
   109   107   106    2
   110   135   132    1
   111    64    66   ar
   112     9    11    1
   113    60    69   am
   114    60    61    2
   115   170   169    1
   116   106   105    1
   117    69    70    1
   118    82    81    1
   119   132   131    1
   120   132   133    1
   121   105   104    1
   122   105   108    1
   123   169   166    1
   124   228   227    1
   125   228   229    1
   126   131   129   am
   127   134   133    2
   128    81    76   am
   129   227   226    1
   130   133   139   am
   131   127   128    1
   132   231   230    1
   133   205   204    1
   134    73    70    1
   135    70    71    1
   136   129   130    2
   137   129   128    1
   138   211   210    1
   139   229   230    2
   140   166   165    1
   141   166   167    1
   142    72    71    2
   143    77    76    2
   144    76    75    1
   145   147   148   ar
   146   147   145   ar
   147   230   232    1
   148   226   223    1
   149    79    78    1
   150   184   183    1
   151   184   185    2
   152   139   140    1
   153   187   185    1
   154   183   182    1
   155   223   222    1
   156   223   224    1
   157   185   186    1
   158   204   203   ar
   159   204   202   ar
   160   225   224    2
   161   148   146   ar
   162   193   192    1
   163   145   144   ar
   164   182   181    1
   165   203   201   ar
   166   162   160   ar
   167   162   164   ar
   168   167   168    2
   169   210   212    1
   170   210   207    1
   171    75    78    1
   172    75    74    1
   173   160   159   ar
   174   140   143    1
   175   140   141    1
   176   202   200   ar
   177   164   163   ar
   178   146   144   ar
   179   152   151    2
   180   144   143    1
   181    78    80    1
   182   192   189    1
   183   149   150    1
   184   201   199   ar
   185   209   208    2
   186   153   150    1
   187   207   208    1
   188   207   206    1
   189   159   158    1
   190   159   161   ar
   191   181   178    1
   192   141   142    2
   193   163   161   ar
   194   200   199   ar
   195   158   155    1
   196   151   150    1
   197   208   213   am
   198   178   177    1
   199   178   179    1
   200   177   175   am
   201   199   198    1
   202   220   219    2
   203   175   174    1
   204   175   176    2
   205   189   190    1
   206   189   188    1
   207   191   190    2
   208   157   156    2
   209   174   173    1
   210   190   194   am
   211   221   219   am
   212   154   155    1
   213   213   214    1
   214   219   218    1
   215   155   156    1
   216   194   195    1
   217   195   198    1
   218   195   196    1
   219   179   180    2
   220   214   215    1
   221   214   217    1
   222   216   215    2
   223   197   196    2
   224   218   217    1
