@<TRIPOS>MOLECULE
tmp/5bv3C00.pdb
 166 160 0 0 0
SMALL
GASTEIGER

@<TRIPOS>ATOM
      1  N         33.1950  -22.4280   75.0730 N.3   117  LYS117     -0.1245
      2  CA        32.2130  -21.4580   75.5420 C.3   117  LYS117      0.1561
      3  C         32.6460  -20.0220   75.2680 C.2   117  LYS117      0.2260
      4  O         31.8230  -19.1990   74.8430 O.2   117  LYS117     -0.2867
      5  CB        31.9550  -21.6120   77.0290 C.3   117  LYS117      0.0271
      6  CG        30.7590  -20.7990   77.5030 C.3   117  LYS117      0.0035
      7  CD        30.7580  -20.5760   79.0100 C.3   117  LYS117      0.0206
      8  CE        29.5580  -19.7330   79.4220 C.3   117  LYS117      0.1093
      9  NZ        29.8260  -18.9510   80.6540 N.3   117  LYS117     -0.1314
     10  N         32.9090  -26.6330   92.0360 N.3   148  TRP148     -0.1241
     11  CA        32.7280  -25.3220   92.6190 C.3   148  TRP148      0.1605
     12  C         31.4180  -25.1790   93.3950 C.2   148  TRP148      0.2264
     13  O         31.3700  -24.4530   94.3680 O.2   148  TRP148     -0.2867
     14  CB        32.8040  -24.2310   91.5540 C.3   148  TRP148      0.0550
     15  CG        31.6230  -24.1440   90.6230 C.ar  148  TRP148      0.0003
     16  CD1       31.4720  -24.7930   89.4160 C.ar  148  TRP148      0.0946
     17  CD2       30.4670  -23.3190   90.7710 C.ar  148  TRP148      0.0152
     18  NE1       30.2790  -24.4440   88.8370 N.ar  148  TRP148     -0.2442
     19  CE2       29.6500  -23.5310   89.6370 C.ar  148  TRP148      0.0810
     20  CE3       30.0430  -22.4090   91.7510 C.ar  148  TRP148      0.0012
     21  CZ2       28.4310  -22.8890   89.4640 C.ar  148  TRP148      0.0191
     22  CZ3       28.8370  -21.7700   91.5720 C.ar  148  TRP148      0.0001
     23  CH2       28.0430  -22.0060   90.4330 C.ar  148  TRP148      0.0015
     24  N         31.1100  -24.6340   97.5720 N.3   152  ILE152     -0.1245
     25  CA        30.3220  -23.6430   98.2780 C.3   152  ILE152      0.1561
     26  C         29.4060  -24.3290   99.2950 C.2   152  ILE152      0.2260
     27  O         29.3330  -23.9040  100.4520 O.2   152  ILE152     -0.2867
     28  CB        29.5110  -22.7690   97.3070 C.3   152  ILE152      0.0252
     29  CG1       30.4690  -21.9660   96.4110 C.3   152  ILE152      0.0019
     30  CG2       28.6260  -21.7980   98.0640 C.3   152  ILE152      0.0019
     31  CD1       29.7980  -21.3220   95.2170 C.3   152  ILE152      0.0001
     32  N         33.9660  -19.4180   99.4900 N.3   158  GLU158     -0.1245
     33  CA        33.2430  -18.1510   99.4650 C.3   158  GLU158      0.1567
     34  C         32.3350  -17.8820  100.7070 C.2   158  GLU158      0.2260
     35  O         31.4360  -17.0420  100.6360 O.2   158  GLU158     -0.2867
     36  CB        32.4250  -18.0260   98.1580 C.3   158  GLU158      0.0388
     37  CG        33.1940  -18.4290   96.9120 C.3   158  GLU158      0.1160
     38  CD        32.3910  -18.2880   95.6430 C.2   158  GLU158      0.3649
     39  OE1       32.4690  -19.2180   94.8260 O.co2 158  GLU158     -0.2457
     40  OE2       31.7030  -17.2620   95.4390 O.co2 158  GLU158     -0.2457
     41  N         31.3460  -14.4170  101.9170 N.3   161  ARG161     -0.1245
     42  CA        30.4980  -13.5690  101.0970 C.3   161  ARG161      0.1563
     43  C         29.0380  -13.9560  101.1330 C.2   161  ARG161      0.2260
     44  O         28.2150  -13.2230  100.5970 O.2   161  ARG161     -0.2867
     45  CB        31.0040  -13.5890   99.6540 C.3   161  ARG161      0.0307
     46  CG        32.5040  -13.2870   99.5680 C.3   161  ARG161      0.0489
     47  CD        33.0050  -13.1730   98.1340 C.3   161  ARG161      0.2205
     48  NE        32.5870  -11.9320   97.4780 N.pl3 161  ARG161     -0.0865
     49  CZ        32.0270  -11.8610   96.2700 C.cat 161  ARG161      0.5346
     50  NH1       31.8140  -12.9680   95.5380 N.pl3 161  ARG161      0.1354
     51  NH2       31.6800  -10.6790   95.7770 N.pl3 161  ARG161      0.1354
     52  N         24.7100  -16.1110   97.4580 N.3   179  LEU179     -0.1231
     53  CA        25.9490  -15.3570   97.5250 C.3   179  LEU179      0.1678
     54  C         26.1280  -14.5690   96.2260 C.2   179  LEU179      0.2434
     55  O         25.4340  -14.8380   95.2360 O.2   179  LEU179     -0.2733
     56  CB        27.1420  -16.2940   97.7620 C.3   179  LEU179      0.0284
     57  CG        27.7510  -17.2070   96.7240 C.3   179  LEU179      0.0019
     58  CD1       28.9800  -17.8590   97.3400 C.3   179  LEU179      0.0001
     59  CD2       26.8560  -18.2980   96.1760 C.3   179  LEU179      0.0001
     60  N         27.0920  -13.6330   96.2020 N.am  180  PRO180     -0.2718
     61  CA        27.4330  -12.9560   94.9550 C.3   180  PRO180      0.1535
     62  C         27.8140  -13.9190   93.8580 C.2   180  PRO180      0.2599
     63  O         28.5760  -14.8680   94.0520 O.2   180  PRO180     -0.2715
     64  CB        28.6020  -12.0350   95.3410 C.3   180  PRO180      0.0310
     65  CG        28.4660  -11.8520   96.8150 C.3   180  PRO180      0.0237
     66  CD        27.9200  -13.1530   97.3200 C.3   180  PRO180      0.0939
     67  N         27.2780  -13.6430   92.6820 N.am  181  ASP181     -0.1958
     68  CA        27.6350  -14.3890   91.5080 C.3   181  ASP181      0.1840
     69  C         29.0360  -13.9860   91.1030 C.2   181  ASP181      0.2625
     70  O         29.4230  -12.8480   91.2990 O.2   181  ASP181     -0.2715
     71  CB        26.6420  -14.0740   90.4160 C.3   181  ASP181      0.1450
     72  CG        26.7750  -15.0050   89.2340 C.2   181  ASP181      0.3671
     73  OD1       27.7000  -14.7970   88.4020 O.co2 181  ASP181     -0.2456
     74  OD2       25.9400  -15.9200   89.1600 O.co2 181  ASP181     -0.2456
     75  N         29.7960  -14.9360   90.5530 N.am  182  MET182     -0.1917
     76  CA        31.1170  -14.6720   89.9650 C.3   182  MET182      0.1952
     77  C         31.0990  -13.4870   88.9740 C.2   182  MET182      0.2658
     78  O         32.1170  -12.8470   88.7680 O.2   182  MET182     -0.2711
     79  CB        31.6250  -15.9290   89.2400 C.2   182  MET182      0.0110
     80  CG        33.0100  -15.8180   88.6120 C.2   182  MET182      0.0285
     81  SD        33.6850  -17.3660   87.9750 S.3   182  MET182     -0.1125
     82  CE        32.5760  -17.7680   86.6360 C.3   182  MET182      0.0742
     83  N         29.9600  -13.1900   88.3690 N.am  183  LYS183     -0.1974
     84  CA        29.8850  -12.0100   87.4750 C.3   183  LYS183      0.1596
     85  C         30.0140  -10.6500   88.1750 C.2   183  LYS183      0.2287
     86  O         30.3690   -9.6610   87.5410 O.2   183  LYS183     -0.2864
     87  CB        28.5600  -12.0150   86.7140 C.3   183  LYS183      0.0298
     88  CG        28.4320  -13.0980   85.6220 C.3   183  LYS183      0.0038
     89  CD        26.9600  -13.1970   85.2210 C.3   183  LYS183      0.0206
     90  CE        26.7020  -14.1300   84.0730 C.3   183  LYS183      0.1093
     91  NZ        26.1380  -15.4460   84.4530 N.3   183  LYS183     -0.1314
     92  N         23.5790  -15.3270   92.9890 N.3   195  VAL195     -0.1245
     93  CA        23.1430  -16.6670   92.6150 C.3   195  VAL195      0.1561
     94  C         22.6670  -17.4160   93.8830 C.2   195  VAL195      0.2260
     95  O         23.3310  -17.4120   94.9300 O.2   195  VAL195     -0.2867
     96  CB        24.2780  -17.4380   91.8720 C.3   195  VAL195      0.0252
     97  CG1       25.5460  -17.5150   92.7150 C.3   195  VAL195      0.0019
     98  CG2       23.8390  -18.8290   91.4720 C.3   195  VAL195      0.0019
     99  N         18.3480  -20.2840   83.7060 N.3   246  HIS246     -0.1241
    100  CA        18.8340  -20.4580   82.3580 C.3   246  HIS246      0.1621
    101  C         18.5550  -21.8800   81.8420 C.2   246  HIS246      0.2264
    102  O         18.6430  -22.8470   82.5920 O.2   246  HIS246     -0.2867
    103  CB        20.3430  -20.2310   82.2630 C.3   246  HIS246      0.0745
    104  CG        20.7750  -18.8050   82.3300 C.ar  246  HIS246      0.0817
    105  ND1       22.1000  -18.4560   82.4680 N.ar  246  HIS246     -0.2268
    106  CD2       20.0830  -17.6460   82.2380 C.ar  246  HIS246      0.1154
    107  CE1       22.1990  -17.1380   82.4990 C.ar  246  HIS246      0.1986
    108  NE2       20.9910  -16.6250   82.3610 N.ar  246  HIS246     -0.2212
    109  N         21.5660  -24.2570   80.9430 N.3   249  PRO249     -0.2102
    110  CA        22.4970  -23.6840   81.9040 C.3   249  PRO249      0.1504
    111  C         23.8990  -24.1570   81.5340 C.2   249  PRO249      0.2576
    112  O         24.0350  -25.1540   80.8690 O.2   249  PRO249     -0.2718
    113  CB        22.0410  -24.3120   83.2340 C.3   249  PRO249      0.0282
    114  CG        21.5830  -25.6760   82.8210 C.3   249  PRO249      0.0208
    115  CD        20.9810  -25.5080   81.4450 C.3   249  PRO249      0.0893
    116  N         24.9270  -23.4580   81.9770 N.am  250  SER250     -0.1938
    117  CA        26.3060  -23.9460   81.8100 C.3   250  SER250      0.2055
    118  C         26.6140  -25.1250   82.7580 C.2   250  SER250      0.2643
    119  O         27.4040  -26.0080   82.4310 O.2   250  SER250     -0.2714
    120  CB        27.3130  -22.8090   81.9860 C.3   250  SER250      0.2130
    121  OG        27.2450  -21.8850   80.9100 O.3   250  SER250     -0.2179
    122  N         25.9870  -25.1330   83.9350 N.am  251  TYR251     -0.1973
    123  CA        26.2290  -26.1540   84.9350 C.3   251  TYR251      0.1639
    124  C         24.9350  -26.8440   85.3100 C.2   251  TYR251      0.2290
    125  O         23.9070  -26.2000   85.5400 O.2   251  TYR251     -0.2864
    126  CB        26.8680  -25.5000   86.1480 C.3   251  TYR251      0.0560
    127  CG        28.1810  -24.8380   85.8340 C.ar  251  TYR251     -0.0198
    128  CD1       29.3380  -25.5870   85.7400 C.ar  251  TYR251     -0.0009
    129  CD2       28.2680  -23.4720   85.6450 C.ar  251  TYR251     -0.0009
    130  CE1       30.5570  -25.0010   85.4680 C.ar  251  TYR251      0.0417
    131  CE2       29.4840  -22.8680   85.3600 C.ar  251  TYR251      0.0417
    132  CZ        30.6240  -23.6440   85.2580 C.ar  251  TYR251      0.1957
    133  OH        31.8340  -23.0460   84.9780 O.3   251  TYR251     -0.2866
    134  N         20.3210  -23.5220   89.6990 N.3   255  ASN255     -0.1240
    135  CA        20.7620  -22.2470   90.2740 C.3   255  ASN255      0.1653
    136  C         19.8380  -21.1480   89.8410 C.2   255  ASN255      0.2266
    137  O         19.3730  -21.1600   88.7010 O.2   255  ASN255     -0.2867
    138  CB        22.1670  -21.9290   89.7890 C.3   255  ASN255      0.1155
    139  CG        23.2040  -22.8580   90.3720 C.2   255  ASN255      0.2627
    140  OD1       23.0540  -23.3670   91.4950 O.2   255  ASN255     -0.2716
    141  ND2       24.2690  -23.0780   89.6280 N.am  255  ASN255     -0.0877
    142  N         19.3470  -17.0840   89.3530 N.3   257  HIS257     -0.1241
    143  CA        20.0820  -15.8600   89.1530 C.3   257  HIS257      0.1621
    144  C         19.1960  -14.7100   89.6360 C.2   257  HIS257      0.2264
    145  O         17.9930  -14.6670   89.3600 O.2   257  HIS257     -0.2867
    146  CB        20.3600  -15.6410   87.6720 C.3   257  HIS257      0.0745
    147  CG        21.2730  -16.6380   87.0220 C.ar  257  HIS257      0.0817
    148  ND1       22.2790  -16.2550   86.1580 N.ar  257  HIS257     -0.2268
    149  CD2       21.2960  -17.9900   87.0420 C.ar  257  HIS257      0.1154
    150  CE1       22.9160  -17.3230   85.7200 C.ar  257  HIS257      0.1986
    151  NE2       22.3320  -18.3890   86.2320 N.ar  257  HIS257     -0.2212
    152  N         22.6850  -13.3310   79.4130 N.3   269  SER269     -0.1217
    153  CA        22.3790  -13.6800   80.7890 C.3   269  SER269      0.1889
    154  C         20.9630  -13.3320   81.2240 C.2   269  SER269      0.2288
    155  O         20.4150  -14.0600   82.0180 O.2   269  SER269     -0.2866
    156  CB        23.3980  -13.1190   81.7720 C.3   269  SER269      0.2089
    157  OG        23.3690  -11.7100   81.7520 O.3   269  SER269     -0.2183
    158  N         17.1380  -17.5790   76.6100 N.3   274  LYS274     -0.1245
    159  CA        18.1230  -18.1340   77.5330 C.3   274  LYS274      0.1561
    160  C         17.5930  -18.0740   78.9730 C.2   274  LYS274      0.2260
    161  O         17.4510  -19.0900   79.6580 O.2   274  LYS274     -0.2867
    162  CB        19.4050  -17.3260   77.3760 C.3   274  LYS274      0.0271
    163  CG        20.5670  -17.7610   78.2430 C.3   274  LYS274      0.0035
    164  CD        21.0490  -19.1380   77.8660 C.3   274  LYS274      0.0206
    165  CE        22.4290  -19.4090   78.4330 C.3   274  LYS274      0.1093
    166  NZ        23.0460  -20.5570   77.7120 N.3   274  LYS274     -0.1314
@<TRIPOS>BOND
     1     4     3    2
     2     1     2    1
     3     3     2    1
     4     2     5    1
     5   158   159    1
     6     5     6    1
     7   162   159    1
     8   162   163    1
     9     6     7    1
    10   159   160    1
    11   166   165    1
    12   164   163    1
    13   164   165    1
    14   160   161    2
    15     7     8    1
    16   152   153    1
    17     8     9    1
    18   153   154    1
    19   153   156    1
    20   112   111    2
    21   121   120    1
    22   109   115    1
    23   109   110    1
    24   154   155    2
    25   115   114    1
    26   111   110    1
    27   111   116   am
    28   157   156    1
    29   117   116    1
    30   117   120    1
    31   117   118    1
    32   101   100    1
    33   101   102    2
    34   110   113    1
    35   106   104   ar
    36   106   108   ar
    37   103   104    1
    38   103   100    1
    39   104   105   ar
    40   100    99    1
    41   108   107   ar
    42   119   118    2
    43   105   107   ar
    44   118   122   am
    45   114   113    1
    46   122   123    1
    47    90    91    1
    48    90    89    1
    49   123   124    1
    50   123   126    1
    51   133   132    1
    52    89    88    1
    53   132   131   ar
    54   132   130   ar
    55   124   125    2
    56   131   129   ar
    57   130   128   ar
    58    88    87    1
    59   129   127   ar
    60   150   148   ar
    61   150   151   ar
    62   128   127   ar
    63   127   126    1
    64   148   147   ar
    65   151   149   ar
    66    82    81    1
    67    87    84    1
    68   147   149   ar
    69   147   146    1
    70    84    85    1
    71    84    83    1
    72    86    85    2
    73   146   143    1
    74    81    80    1
    75    83    77   am
    76    73    72   ar
    77    80    79    2
    78   137   136    2
    79    78    77    2
    80    18    16   ar
    81    18    19   ar
    82    77    76    1
    83   143   142    1
    84   143   144    1
    85    74    72   ar
    86    72    71    1
    87    79    76    1
    88   145   144    2
    89    16    15   ar
    90    21    19   ar
    91    21    23   ar
    92   141   139   am
    93    19    17   ar
    94   134   135    1
    95   138   135    1
    96   138   139    1
    97   136   135    1
    98    76    75    1
    99   139   140    2
   100    71    68    1
   101    23    22   ar
   102    75    69   am
   103    15    17   ar
   104    15    14    1
   105    17    20   ar
   106    69    70    2
   107    69    68    1
   108    98    96    1
   109    68    67    1
   110    14    11    1
   111    22    20   ar
   112    96    93    1
   113    96    97    1
   114    10    11    1
   115    93    92    1
   116    93    94    1
   117    11    12    1
   118    67    62   am
   119    12    13    2
   120    62    63    2
   121    62    61    1
   122    94    95    2
   123    39    38   ar
   124    61    64    1
   125    61    60    1
   126    31    29    1
   127    55    54    2
   128    64    65    1
   129    40    38   ar
   130    50    49    1
   131    38    37    1
   132    51    49    1
   133    59    57    1
   134    60    54   am
   135    60    66    1
   136    54    53    1
   137    49    48    2
   138    29    28    1
   139    57    58    1
   140    57    56    1
   141    65    66    1
   142    37    36    1
   143    28    30    1
   144    28    25    1
   145    52    53    1
   146    48    47    1
   147    53    56    1
   148    24    25    1
   149    47    46    1
   150    36    33    1
   151    25    26    1
   152    26    27    2
   153    33    32    1
   154    33    34    1
   155    46    45    1
   156    45    42    1
   157    44    43    2
   158    35    34    2
   159    42    43    1
   160    42    41    1
