@<TRIPOS>MOLECULE
tmp/5bv5A00.pdb
 222 210 0 0 0
SMALL
GASTEIGER

@<TRIPOS>ATOM
      1  N        -36.7130  -24.2840   -7.0880 N.3    33  LEU33      -0.1245
      2  CA       -35.7170  -23.2170   -6.9670 C.3    33  LEU33       0.1561
      3  C        -36.2180  -21.8790   -7.5120 C.2    33  LEU33       0.2260
      4  O        -35.9610  -20.8310   -6.9200 O.2    33  LEU33      -0.2867
      5  CB       -34.4210  -23.6040   -7.6860 C.3    33  LEU33       0.0270
      6  CG       -33.7070  -24.8770   -7.2200 C.3    33  LEU33       0.0019
      7  CD1      -32.4940  -25.1510   -8.0970 C.3    33  LEU33       0.0001
      8  CD2      -33.2980  -24.7880   -5.7580 C.3    33  LEU33       0.0001
      9  N        -29.6240   -9.1480    0.7590 N.3    47  HIS47      -0.1241
     10  CA       -29.4540   -9.8350   -0.5190 C.3    47  HIS47       0.1621
     11  C        -29.3280   -8.8430   -1.6750 C.2    47  HIS47       0.2264
     12  O        -28.4890   -9.0160   -2.5590 O.2    47  HIS47      -0.2867
     13  CB       -30.6300  -10.7800   -0.7760 C.3    47  HIS47       0.0745
     14  CG       -30.5990  -12.0250    0.0690 C.ar   47  HIS47       0.0817
     15  ND1      -30.6270  -13.2760   -0.4410 N.ar   47  HIS47      -0.2268
     16  CD2      -30.5620  -12.1890    1.3930 C.ar   47  HIS47       0.1154
     17  CE1      -30.5860  -14.1720    0.5090 C.ar   47  HIS47       0.1986
     18  NE2      -30.5250  -13.5360    1.6560 N.ar   47  HIS47      -0.2212
     19  N        -26.0310   -7.2480   -1.6290 N.3    50  LEU50      -0.1231
     20  CA       -25.0910   -8.2030   -2.2110 C.3    50  LEU50       0.1693
     21  C        -25.1580   -8.1550   -3.7340 C.2    50  LEU50       0.2591
     22  O        -24.1280   -8.0860   -4.4050 O.2    50  LEU50      -0.2718
     23  CB       -25.3930   -9.6220   -1.7240 C.3    50  LEU50       0.0284
     24  CG       -24.5040  -10.6950   -2.4330 C.3    50  LEU50       0.0019
     25  CD1      -23.0690  -10.5770   -1.9830 C.3    50  LEU50       0.0001
     26  CD2      -25.1270  -12.0490   -2.1370 C.3    50  LEU50       0.0001
     27  N        -26.3760   -8.1840   -4.2680 N.am   51  ARG51      -0.1980
     28  CA       -26.5970   -8.0980   -5.7090 C.3    51  ARG51       0.1597
     29  C        -26.0560   -6.7870   -6.2750 C.2    51  ARG51       0.2287
     30  O        -25.4620   -6.7670   -7.3530 O.2    51  ARG51      -0.2864
     31  CB       -28.0880   -8.2230   -6.0290 C.3    51  ARG51       0.0334
     32  CG       -28.5000   -8.2410   -7.4950 C.3    51  ARG51       0.0492
     33  CD       -28.5600   -9.6450   -8.0750 C.3    51  ARG51       0.2205
     34  NE       -29.3450  -10.5680   -7.2590 N.pl3  51  ARG51      -0.0865
     35  CZ       -29.0280  -11.8490   -7.0750 C.cat  51  ARG51       0.5346
     36  NH1      -27.9430  -12.3660   -7.6540 N.pl3  51  ARG51       0.1354
     37  NH2      -29.7940  -12.6150   -6.3100 N.pl3  51  ARG51       0.1354
     38  N        -18.1880   -7.4700   -9.9210 N.3    58  PHE58      -0.1241
     39  CA       -18.1690   -8.5770  -10.8820 C.3    58  PHE58       0.1605
     40  C        -18.8030   -8.1980  -12.2190 C.2    58  PHE58       0.2264
     41  O        -19.4540   -9.0270  -12.8560 O.2    58  PHE58      -0.2867
     42  CB       -18.8740   -9.8190  -10.3200 C.3    58  PHE58       0.0534
     43  CG       -18.3440  -10.2770   -8.9900 C.ar   58  PHE58      -0.0203
     44  CD1      -16.9800  -10.4250   -8.7790 C.ar   58  PHE58      -0.0042
     45  CD2      -19.2150  -10.5940   -7.9570 C.ar   58  PHE58      -0.0042
     46  CE1      -16.4950  -10.8560   -7.5570 C.ar   58  PHE58      -0.0003
     47  CE2      -18.7360  -11.0290   -6.7340 C.ar   58  PHE58      -0.0003
     48  CZ       -17.3740  -11.1590   -6.5330 C.ar   58  PHE58      -0.0000
     49  N         -9.8610  -12.9270   -5.3490 N.3   101  ILE101     -0.1245
     50  CA       -10.8250  -12.1920   -4.5280 C.3   101  ILE101      0.1561
     51  C        -10.1190  -11.1520   -3.6520 C.2   101  ILE101      0.2260
     52  O        -10.6750  -10.0910   -3.3770 O.2   101  ILE101     -0.2867
     53  CB       -11.7010  -13.1340   -3.6670 C.3   101  ILE101      0.0252
     54  CG1      -12.9440  -12.4030   -3.1530 C.3   101  ILE101      0.0019
     55  CG2      -10.9190  -13.7140   -2.4970 C.3   101  ILE101      0.0019
     56  CD1      -13.8770  -11.9270   -4.2440 C.3   101  ILE101      0.0001
     57  N        -19.0020  -13.7600    2.8770 N.3   159  LEU159     -0.1231
     58  CA       -19.6810  -14.5150    1.8210 C.3   159  LEU159      0.1693
     59  C        -18.8730  -14.5400    0.5260 C.2   159  LEU159      0.2591
     60  O        -18.6810  -15.5990   -0.0730 O.2   159  LEU159     -0.2718
     61  CB       -21.0750  -13.9350    1.5450 C.3   159  LEU159      0.0284
     62  CG       -22.2680  -14.6240    2.2180 C.3   159  LEU159      0.0019
     63  CD1      -21.9980  -14.9370    3.6840 C.3   159  LEU159      0.0001
     64  CD2      -23.5170  -13.7680    2.0640 C.3   159  LEU159      0.0001
     65  N        -18.4000  -13.3700    0.1030 N.am  160  LEU160     -0.1980
     66  CA       -17.6460  -13.2440   -1.1420 C.3   160  LEU160      0.1596
     67  C        -16.3510  -14.0540   -1.1100 C.2   160  LEU160      0.2287
     68  O        -15.8990  -14.5480   -2.1430 O.2   160  LEU160     -0.2864
     69  CB       -17.3360  -11.7750   -1.4370 C.3   160  LEU160      0.0297
     70  CG       -18.5450  -10.8800   -1.7240 C.3   160  LEU160      0.0022
     71  CD1      -18.1360   -9.4140   -1.7130 C.3   160  LEU160      0.0001
     72  CD2      -19.2000  -11.2500   -3.0470 C.3   160  LEU160      0.0001
     73  N        -17.5650  -18.1920   -0.8440 N.3   163  GLY163     -0.1210
     74  CA       -18.0810  -18.7830   -2.0750 C.3   163  GLY163      0.1956
     75  C        -17.0180  -19.3810   -2.9810 C.2   163  GLY163      0.2611
     76  O        -17.3170  -20.2360   -3.8170 O.2   163  GLY163     -0.2717
     77  N        -15.7740  -18.9400   -2.8110 N.am  164  ASN164     -0.1974
     78  CA       -14.6610  -19.3940   -3.6430 C.3   164  ASN164      0.1688
     79  C        -14.2430  -20.8470   -3.4000 C.2   164  ASN164      0.2292
     80  O        -13.4280  -21.3860   -4.1490 O.2   164  ASN164     -0.2864
     81  CB       -13.4530  -18.4710   -3.4510 C.3   164  ASN164      0.1181
     82  CG       -13.7080  -17.0620   -3.9550 C.2   164  ASN164      0.2629
     83  OD1      -13.7110  -16.1060   -3.1810 O.2   164  ASN164     -0.2716
     84  ND2      -13.9310  -16.9280   -5.2570 N.am  164  ASN164     -0.0877
     85  N        -16.3140  -23.3870   -3.7230 N.3   166  ALA166     -0.1231
     86  CA       -16.9600  -24.1140   -4.8090 C.3   166  ALA166      0.1694
     87  C        -16.1750  -23.9780   -6.1130 C.2   166  ALA166      0.2592
     88  O        -16.1160  -24.9160   -6.9100 O.2   166  ALA166     -0.2718
     89  CB       -18.3860  -23.6210   -4.9920 C.3   166  ALA166      0.0304
     90  N        -15.5800  -22.8070   -6.3240 N.am  167  THR167     -0.1953
     91  CA       -14.7180  -22.5670   -7.4790 C.3   167  THR167      0.1897
     92  C        -13.4620  -23.4290   -7.4020 C.2   167  THR167      0.2313
     93  O        -12.9990  -23.9620   -8.4110 O.2   167  THR167     -0.2863
     94  CB       -14.2960  -21.0880   -7.5630 C.3   167  THR167      0.1794
     95  OG1      -15.4620  -20.2570   -7.5790 O.3   167  THR167     -0.2208
     96  CG2      -13.4680  -20.8270   -8.8150 C.3   167  THR167      0.0378
     97  N        -14.6070  -26.8270   -8.3720 N.3   170  LEU170     -0.1245
     98  CA       -14.8480  -26.9230   -9.8110 C.3   170  LEU170      0.1561
     99  C        -13.5520  -27.1650  -10.5810 C.2   170  LEU170      0.2260
    100  O        -13.5210  -27.9590  -11.5220 O.2   170  LEU170     -0.2867
    101  CB       -15.5410  -25.6630  -10.3380 C.3   170  LEU170      0.0270
    102  CG       -15.7860  -25.6070  -11.8500 C.3   170  LEU170      0.0019
    103  CD1      -16.5490  -26.8320  -12.3320 C.3   170  LEU170      0.0001
    104  CD2      -16.5280  -24.3310  -12.2190 C.3   170  LEU170      0.0001
    105  N        -19.3620  -28.6710  -14.5760 N.3   201  LEU201     -0.1245
    106  CA       -20.3860  -28.1470  -13.6700 C.3   201  LEU201      0.1561
    107  C        -21.6120  -29.0560  -13.6200 C.2   201  LEU201      0.2260
    108  O        -22.0990  -29.3830  -12.5380 O.2   201  LEU201     -0.2867
    109  CB       -20.8080  -26.7300  -14.0740 C.3   201  LEU201      0.0270
    110  CG       -19.9230  -25.6030  -13.5410 C.3   201  LEU201      0.0019
    111  CD1      -20.1850  -24.3140  -14.3050 C.3   201  LEU201      0.0001
    112  CD2      -20.1460  -25.4040  -12.0480 C.3   201  LEU201      0.0001
    113  N        -20.0880  -28.7100   -7.7700 N.3   206  PRO206     -0.2102
    114  CA       -19.5130  -28.4260   -6.4520 C.3   206  PRO206      0.1504
    115  C        -20.5270  -28.4180   -5.3080 C.2   206  PRO206      0.2575
    116  O        -20.2160  -28.8830   -4.2130 O.2   206  PRO206     -0.2718
    117  CB       -18.9070  -27.0320   -6.6330 C.3   206  PRO206      0.0282
    118  CG       -18.5390  -26.9840   -8.0730 C.3   206  PRO206      0.0208
    119  CD       -19.6340  -27.7330   -8.7780 C.3   206  PRO206      0.0893
    120  N        -21.7170  -27.8810   -5.5610 N.am  207  VAL207     -0.1980
    121  CA       -22.8230  -27.9550   -4.6120 C.3   207  VAL207      0.1595
    122  C        -23.7920  -29.0360   -5.0870 C.2   207  VAL207      0.2287
    123  O        -24.4370  -28.8960   -6.1260 O.2   207  VAL207     -0.2864
    124  CB       -23.5520  -26.6030   -4.4830 C.3   207  VAL207      0.0276
    125  CG1      -24.7030  -26.7000   -3.4890 C.3   207  VAL207      0.0022
    126  CG2      -22.5720  -25.5130   -4.0710 C.3   207  VAL207      0.0022
    127  N        -29.4060  -28.4310   -2.4010 N.3   210  THR210     -0.1218
    128  CA       -29.8060  -27.2520   -1.6400 C.3   210  THR210      0.1862
    129  C        -31.1860  -27.4970   -1.0330 C.2   210  THR210      0.2287
    130  O        -31.8490  -28.4790   -1.3700 O.2   210  THR210     -0.2866
    131  CB       -29.8120  -25.9840   -2.5200 C.3   210  THR210      0.1770
    132  OG1      -30.1110  -24.8340   -1.7170 O.3   210  THR210     -0.2211
    133  CG2      -30.8340  -26.0970   -3.6440 C.3   210  THR210      0.0375
    134  N        -35.1110  -25.9590    0.4030 N.3   212  ARG212     -0.1245
    135  CA       -36.1700  -24.9530    0.3930 C.3   212  ARG212      0.1563
    136  C        -37.2360  -25.3100    1.4230 C.2   212  ARG212      0.2260
    137  O        -37.3980  -26.4780    1.7760 O.2   212  ARG212     -0.2867
    138  CB       -36.8060  -24.8570   -0.9930 C.3   212  ARG212      0.0307
    139  CG       -35.9300  -24.1910   -2.0420 C.3   212  ARG212      0.0489
    140  CD       -35.8070  -22.6920   -1.8230 C.3   212  ARG212      0.2205
    141  NE       -35.3900  -22.0050   -3.0450 N.pl3 212  ARG212     -0.0865
    142  CZ       -34.1380  -21.9380   -3.4980 C.cat 212  ARG212      0.5346
    143  NH1      -33.1370  -22.5160   -2.8410 N.pl3 212  ARG212      0.1354
    144  NH2      -33.8840  -21.2850   -4.6260 N.pl3 212  ARG212      0.1354
    145  N        -29.5250  -31.1950   -6.8550 N.3   235  ILE235     -0.1245
    146  CA       -29.0350  -30.5650   -8.0760 C.3   235  ILE235      0.1561
    147  C        -28.2480  -31.5720   -8.9140 C.2   235  ILE235      0.2260
    148  O        -28.3950  -31.6230  -10.1360 O.2   235  ILE235     -0.2867
    149  CB       -28.1610  -29.3360   -7.7440 C.3   235  ILE235      0.0252
    150  CG1      -29.0390  -28.2070   -7.1900 C.3   235  ILE235      0.0019
    151  CG2      -27.3980  -28.8560   -8.9720 C.3   235  ILE235      0.0019
    152  CD1      -28.2870  -27.1730   -6.3810 C.3   235  ILE235      0.0001
    153  N        -26.4750  -26.1810  -11.5250 N.3   262  SER262     -0.1202
    154  CA       -25.3790  -26.1910  -10.5580 C.3   262  SER262      0.2020
    155  C        -25.2500  -24.8930   -9.7570 C.2   262  SER262      0.2619
    156  O        -24.7700  -24.9130   -8.6240 O.2   262  SER262     -0.2717
    157  CB       -24.0570  -26.4890  -11.2700 C.3   262  SER262      0.2103
    158  OG       -24.1030  -27.7520  -11.9120 O.3   262  SER262     -0.2182
    159  N        -25.6670  -23.7740  -10.3450 N.am  263  PHE263     -0.1961
    160  CA       -25.6470  -22.4850   -9.6530 C.3   263  PHE263      0.1771
    161  C        -26.9590  -22.1830   -8.9300 C.2   263  PHE263      0.2620
    162  O        -27.0750  -21.1620   -8.2520 O.2   263  PHE263     -0.2715
    163  CB       -25.3060  -21.3580  -10.6310 C.3   263  PHE263      0.0574
    164  CG       -23.8560  -21.3190  -11.0200 C.ar  263  PHE263     -0.0200
    165  CD1      -22.8990  -20.8730  -10.1210 C.ar  263  PHE263     -0.0042
    166  CD2      -23.4460  -21.7370  -12.2770 C.ar  263  PHE263     -0.0042
    167  CE1      -21.5610  -20.8400  -10.4690 C.ar  263  PHE263     -0.0003
    168  CE2      -22.1090  -21.7050  -12.6320 C.ar  263  PHE263     -0.0003
    169  CZ       -21.1650  -21.2560  -11.7270 C.ar  263  PHE263     -0.0000
    170  N        -27.9390  -23.0730   -9.0690 N.am  264  GLY264     -0.1940
    171  CA       -29.1920  -22.9760   -8.3290 C.3   264  GLY264      0.2014
    172  C        -30.2380  -22.1510   -9.0540 C.2   264  GLY264      0.2639
    173  O        -30.4630  -22.3370  -10.2500 O.2   264  GLY264     -0.2714
    174  N        -30.8650  -21.2340   -8.3190 N.am  265  SER265     -0.1949
    175  CA       -31.9810  -20.4290   -8.8200 C.3   265  SER265      0.1924
    176  C        -31.7740  -19.9270  -10.2530 C.2   265  SER265      0.2314
    177  O        -31.1310  -18.9020  -10.4840 O.2   265  SER265     -0.2863
    178  CB       -32.2340  -19.2470   -7.8760 C.3   265  SER265      0.2116
    179  OG       -33.3200  -18.4520   -8.3220 O.3   265  SER265     -0.2180
    180  N        -30.3350  -15.2540  -10.8030 N.3   266  LEU266     -0.1231
    181  CA       -28.9470  -15.4740  -11.3110 C.3   266  LEU266      0.1693
    182  C        -27.9280  -15.4440  -10.1720 C.2   266  LEU266      0.2592
    183  O        -27.9920  -14.5860   -9.2910 O.2   266  LEU266     -0.2718
    184  CB       -28.5840  -14.4200  -12.3610 C.3   266  LEU266      0.0284
    185  CG       -29.2950  -14.5310  -13.7090 C.3   266  LEU266      0.0019
    186  CD1      -28.9210  -13.3340  -14.5520 C.3   266  LEU266      0.0001
    187  CD2      -28.9180  -15.7910  -14.4460 C.3   266  LEU266      0.0001
    188  N        -26.9910  -16.3880  -10.2040 N.am  267  HIS267     -0.1962
    189  CA       -25.9610  -16.5010   -9.1770 C.3   267  HIS267      0.1787
    190  C        -24.8840  -15.4440   -9.4250 C.2   267  HIS267      0.2620
    191  O        -24.4140  -15.2800  -10.5530 O.2   267  HIS267     -0.2715
    192  CB       -25.3800  -17.9170   -9.1910 C.3   267  HIS267      0.0785
    193  CG       -24.3560  -18.1730   -8.1290 C.ar  267  HIS267      0.0821
    194  ND1      -23.0800  -17.6630   -8.2000 N.ar  267  HIS267     -0.2267
    195  CD2      -24.4040  -18.9160   -6.9970 C.ar  267  HIS267      0.1154
    196  CE1      -22.3900  -18.0620   -7.1480 C.ar  267  HIS267      0.1986
    197  NE2      -23.1680  -18.8250   -6.4010 N.ar  267  HIS267     -0.2212
    198  N        -24.4950  -14.7430   -8.3600 N.am  268  LEU268     -0.1963
    199  CA       -23.7020  -13.5150   -8.4590 C.3   268  LEU268      0.1728
    200  C        -22.2500  -13.7390   -8.8790 C.2   268  LEU268      0.2616
    201  O        -21.7360  -13.0280   -9.7440 O.2   268  LEU268     -0.2715
    202  CB       -23.7290  -12.7670   -7.1240 C.3   268  LEU268      0.0311
    203  CG       -25.1860  -12.5080   -6.7020 C.3   268  LEU268      0.0022
    204  CD1      -25.6150  -13.4430   -5.5660 C.3   268  LEU268      0.0001
    205  CD2      -25.4890  -11.0850   -6.3760 C.3   268  LEU268      0.0001
    206  N        -21.5900  -14.7140   -8.2590 N.am  269  GLY269     -0.1955
    207  CA       -20.1890  -15.0110   -8.5550 C.3   269  GLY269      0.1869
    208  C        -19.9670  -16.0750   -9.6160 C.2   269  GLY269      0.2309
    209  O        -18.8810  -16.6540   -9.6940 O.2   269  GLY269     -0.2863
    210  N        -17.4670  -14.9620  -12.3470 N.3   272  LEU272     -0.1231
    211  CA       -16.1420  -14.9840  -11.7280 C.3   272  LEU272      0.1693
    212  C        -15.6030  -16.4040  -11.6270 C.2   272  LEU272      0.2591
    213  O        -14.4530  -16.6640  -11.9840 O.2   272  LEU272     -0.2718
    214  CB       -16.1960  -14.3660  -10.3280 C.3   272  LEU272      0.0284
    215  CG       -14.8860  -14.3500   -9.5340 C.3   272  LEU272      0.0019
    216  CD1      -13.9570  -13.2570  -10.0460 C.3   272  LEU272      0.0001
    217  CD2      -15.1660  -14.1760   -8.0490 C.3   272  LEU272      0.0001
    218  N        -16.4340  -17.3100  -11.1200 N.am  273  ALA273     -0.1980
    219  CA       -16.0560  -18.7130  -10.9830 C.3   273  ALA273      0.1597
    220  C        -15.6740  -19.3020  -12.3340 C.2   273  ALA273      0.2287
    221  O        -14.6370  -19.9520  -12.4630 O.2   273  ALA273     -0.2864
    222  CB       -17.1920  -19.5110  -10.3620 C.3   273  ALA273      0.0319
@<TRIPOS>BOND
     1   105   106    1
     2   186   185    1
     3   187   185    1
     4   111   110    1
     5   109   106    1
     6   109   110    1
     7   185   184    1
     8   106   107    1
     9   107   108    2
    10   110   112    1
    11    41    40    2
    12   168   166   ar
    13   168   169   ar
    14   221   220    2
    15   184   181    1
    16   210   211    1
    17   220   219    1
    18   103   102    1
    19   166   164   ar
    20   104   102    1
    21    40    39    1
    22   213   212    2
    23   158   157    1
    24   102   101    1
    25   211   212    1
    26   211   214    1
    27   169   167   ar
    28   212   218   am
    29   153   154    1
    30   100    99    2
    31   181   180    1
    32   181   182    1
    33   157   154    1
    34   218   219    1
    35   164   163    1
    36   164   165   ar
    37   219   222    1
    38    39    42    1
    39    39    38    1
    40   163   160    1
    41    99    98    1
    42   154   155    1
    43   191   190    2
    44   177   176    2
    45   167   165   ar
    46   159   155   am
    47   159   160    1
    48   101    98    1
    49   214   215    1
    50    42    43    1
    51   176   175    1
    52   173   172    2
    53   188   182   am
    54   188   189    1
    55   182   183    2
    56   148   147    2
    57   216   215    1
    58    98    97    1
    59   155   156    2
    60   201   200    2
    61   209   208    2
    62   160   161    1
    63   208   207    1
    64   215   217    1
    65   190   189    1
    66   190   198   am
    67   192   189    1
    68   192   193    1
    69   170   161   am
    70   170   171    1
    71   172   171    1
    72   172   174   am
    73    43    44   ar
    74    43    45   ar
    75   151   149    1
    76   161   162    2
    77   147   146    1
    78   200   199    1
    79   200   206   am
    80   175   174    1
    81   175   178    1
    82    96    94    1
    83    44    46   ar
    84   119   118    1
    85   119   113    1
    86   207   206    1
    87   199   198    1
    88   199   202    1
    89    93    92    2
    90   179   178    1
    91   194   193   ar
    92   194   196   ar
    93   193   195   ar
    94     7     6    1
    95   146   149    1
    96   146   145    1
    97    33    32    1
    98    33    34    1
    99   118   117    1
   100    45    47   ar
   101   113   114    1
   102   149   150    1
   103     5     6    1
   104     5     2    1
   105    36    35    1
   106    95    94    1
   107    94    91    1
   108    46    48   ar
   109     3     2    1
   110     3     4    2
   111    32    31    1
   112    91    92    1
   113    91    90    1
   114    30    29    2
   115    34    35    2
   116     6     8    1
   117   150   152    1
   118   196   197   ar
   119   202   203    1
   120     1     2    1
   121    35    37    1
   122   195   197   ar
   123    88    87    2
   124    47    48   ar
   125   203   205    1
   126   203   204    1
   127   117   114    1
   128   114   115    1
   129    90    87   am
   130    29    28    1
   131   123   122    2
   132    87    86    1
   133    31    28    1
   134    28    27    1
   135   120   115   am
   136   120   121    1
   137    49    50    1
   138   115   116    2
   139    84    82   am
   140   122   121    1
   141    89    86    1
   142    86    85    1
   143   144   142    1
   144   121   124    1
   145    50    53    1
   146    50    51    1
   147   124   126    1
   148   124   125    1
   149    22    21    2
   150    27    21   am
   151    56    54    1
   152    80    79    2
   153    82    81    1
   154    82    83    2
   155    76    75    2
   156    21    20    1
   157    53    54    1
   158    53    55    1
   159    51    52    2
   160   133   131    1
   161    78    81    1
   162    78    79    1
   163    78    77    1
   164   142   141    2
   165   142   143    1
   166    72    70    1
   167   141   140    1
   168    75    77   am
   169    75    74    1
   170    12    11    2
   171   131   132    1
   172   131   128    1
   173    24    26    1
   174    24    25    1
   175    24    23    1
   176   127   128    1
   177    20    23    1
   178    20    19    1
   179    68    67    2
   180    74    73    1
   181   139   140    1
   182   139   138    1
   183    70    71    1
   184    70    69    1
   185    11    10    1
   186   128   129    1
   187    69    66    1
   188   130   129    2
   189    66    67    1
   190    66    65    1
   191   138   135    1
   192    13    10    1
   193    13    14    1
   194    10     9    1
   195    15    14   ar
   196    15    17   ar
   197    60    59    2
   198    14    16   ar
   199    65    59   am
   200   135   134    1
   201   135   136    1
   202    17    18   ar
   203    59    58    1
   204    16    18   ar
   205   136   137    2
   206    61    58    1
   207    61    62    1
   208    58    57    1
   209    64    62    1
   210    62    63    1
