@<TRIPOS>MOLECULE
tmp/5bv6A00.pdb
 183 174 0 0 0
SMALL
GASTEIGER

@<TRIPOS>ATOM
      1  N         23.4610   -7.6880   -6.1970 N.3    46  ILE46      -0.1245
      2  CA        24.3380   -6.6190   -6.6430 C.3    46  ILE46       0.1561
      3  C         25.2210   -6.2270   -5.4630 C.2    46  ILE46       0.2260
      4  O         24.7340   -6.1300   -4.3320 O.2    46  ILE46      -0.2867
      5  CB        23.5460   -5.3710   -7.1130 C.3    46  ILE46       0.0252
      6  CG1       22.9670   -5.5750   -8.5060 C.3    46  ILE46       0.0019
      7  CG2       24.4360   -4.1360   -7.0940 C.3    46  ILE46       0.0019
      8  CD1       22.0500   -4.4450   -8.9570 C.3    46  ILE46       0.0001
      9  N         17.9790   -3.2120    0.3210 N.3    65  VAL65      -0.1245
     10  CA        18.9740   -2.3240   -0.2460 C.3    65  VAL65       0.1561
     11  C         19.8270   -1.8140    0.9000 C.2    65  VAL65       0.2260
     12  O         19.2970   -1.2570    1.8640 O.2    65  VAL65      -0.2867
     13  CB        18.3080   -1.1370   -0.9870 C.3    65  VAL65       0.0252
     14  CG1       19.3560   -0.2230   -1.6140 C.3    65  VAL65       0.0019
     15  CG2       17.3300   -1.6560   -2.0310 C.3    65  VAL65       0.0019
     16  N         23.6280    0.3420    1.9120 N.3    67  GLN67      -0.1245
     17  CA        24.5590    1.3010    1.3450 C.3    67  GLN67       0.1566
     18  C         25.5190    1.8700    2.3770 C.2    67  GLN67       0.2260
     19  O         25.1330    2.1720    3.5080 O.2    67  GLN67      -0.2867
     20  CB        23.7820    2.4310    0.6720 C.3    67  GLN67       0.0367
     21  CG        24.6450    3.4170   -0.0820 C.3    67  GLN67       0.0905
     22  CD        23.8100    4.4880   -0.7280 C.2    67  GLN67       0.2608
     23  OE1       23.2150    5.3160   -0.0400 O.2    67  GLN67      -0.2717
     24  NE2       23.7430    4.4760   -2.0580 N.am   67  GLN67      -0.0878
     25  N         18.5570    0.7500    3.8360 N.3    78  ILE78      -0.1231
     26  CA        17.7840    1.9220    3.4690 C.3    78  ILE78       0.1692
     27  C         16.3550    1.5920    3.0400 C.2    78  ILE78       0.2591
     28  O         15.4650    2.4030    3.2900 O.2    78  ILE78      -0.2718
     29  CB        18.5060    2.7590    2.4040 C.3    78  ILE78       0.0266
     30  CG1       19.0540    1.8960    1.2790 C.3    78  ILE78       0.0019
     31  CG2       19.6680    3.5070    3.0490 C.3    78  ILE78       0.0020
     32  CD1       19.8940    2.7010    0.3020 C.3    78  ILE78       0.0001
     33  N         16.1060    0.3970    2.5070 N.am   79  LYS79      -0.1980
     34  CA        14.7410   -0.0020    2.1700 C.3    79  LYS79       0.1596
     35  C         14.6890   -1.4550    1.7130 C.2    79  LYS79       0.2287
     36  O         15.7210   -2.0680    1.4670 O.2    79  LYS79      -0.2864
     37  CB        14.1640    0.8910    1.0630 C.3    79  LYS79       0.0298
     38  CG        14.7830    0.6260   -0.3070 C.3    79  LYS79       0.0038
     39  CD        14.2040    1.5170   -1.3940 C.3    79  LYS79       0.0206
     40  CE        14.7970    2.9110   -1.3520 C.3    79  LYS79       0.1093
     41  NZ        14.5680    3.6330   -2.6440 N.3    79  LYS79      -0.1314
     42  N         12.7220   -3.9250   -1.3170 N.3    81  LEU81      -0.1245
     43  CA        11.9310   -3.9260   -2.5420 C.3    81  LEU81       0.1561
     44  C         11.2020   -5.2520   -2.7040 C.2    81  LEU81       0.2260
     45  O         11.6810   -6.2940   -2.2540 O.2    81  LEU81      -0.2867
     46  CB        12.8120   -3.6780   -3.7610 C.3    81  LEU81       0.0270
     47  CG        13.5960   -2.3650   -3.7780 C.3    81  LEU81       0.0019
     48  CD1       14.5510   -2.3680   -4.9560 C.3    81  LEU81       0.0001
     49  CD2       12.6360   -1.2000   -3.8680 C.3    81  LEU81       0.0001
     50  N         11.9500   -2.8010   -9.2440 N.3    86  TYR86      -0.1227
     51  CA        13.1370   -3.0080  -10.0580 C.3    86  TYR86       0.1736
     52  C         14.3520   -2.3130   -9.4650 C.2    86  TYR86       0.2595
     53  O         14.2210   -1.4540   -8.5770 O.2    86  TYR86      -0.2718
     54  CB        12.8880   -2.5080  -11.4810 C.3    86  TYR86       0.0548
     55  CG        12.3920   -1.0660  -11.5510 C.ar   86  TYR86      -0.0200
     56  CD1       13.2830   -0.0060  -11.5150 C.ar   86  TYR86      -0.0009
     57  CD2       11.0360   -0.7800  -11.6520 C.ar   86  TYR86      -0.0009
     58  CE1       12.8390    1.3010  -11.5830 C.ar   86  TYR86       0.0417
     59  CE2       10.5820    0.5170  -11.7310 C.ar   86  TYR86       0.0417
     60  CZ        11.4860    1.5540  -11.6900 C.ar   86  TYR86       0.1957
     61  OH        11.0390    2.8530  -11.7550 O.3    86  TYR86      -0.2866
     62  N         15.5310   -2.6730   -9.9610 N.am   87  PHE87      -0.1962
     63  CA        16.7590   -2.0510   -9.4870 C.3    87  PHE87       0.1771
     64  C         17.8700   -2.2670  -10.4930 C.2    87  PHE87       0.2620
     65  O         17.7480   -3.0980  -11.3960 O.2    87  PHE87      -0.2715
     66  CB        17.1570   -2.6080   -8.1120 C.3    87  PHE87       0.0574
     67  CG        17.2620   -4.1220   -8.0670 C.ar   87  PHE87      -0.0200
     68  CD1       18.4380   -4.7530   -8.4190 C.ar   87  PHE87      -0.0042
     69  CD2       16.1870   -4.8940   -7.6480 C.ar   87  PHE87      -0.0042
     70  CE1       18.5500   -6.1560   -8.3790 C.ar   87  PHE87      -0.0003
     71  CE2       16.2740   -6.2970   -7.6000 C.ar   87  PHE87      -0.0003
     72  CZ        17.4640   -6.9270   -7.9630 C.ar   87  PHE87      -0.0000
     73  N         18.9540   -1.5130  -10.3430 N.am   88  GLY88      -0.1940
     74  CA        20.1030   -1.6840  -11.2180 C.3    88  GLY88       0.2014
     75  C         20.1620   -0.6960  -12.3710 C.2    88  GLY88       0.2639
     76  O         21.1410   -0.6760  -13.1250 O.2    88  GLY88      -0.2714
     77  N         19.1150    0.1110  -12.5160 N.am   89  GLU89      -0.1963
     78  CA        19.0600    1.0800  -13.6040 C.3    89  GLU89       0.1733
     79  C         20.1080    2.1650  -13.4090 C.2    89  GLU89       0.2616
     80  O         20.6170    2.7180  -14.3850 O.2    89  GLU89      -0.2715
     81  CB        17.6650    1.7180  -13.7180 C.3    89  GLU89       0.0429
     82  CG        17.3130    2.6900  -12.5880 C.3    89  GLU89       0.1163
     83  CD        17.2910    1.9900  -11.2390 C.2    89  GLU89       0.3649
     84  OE1       16.6410    0.9320  -11.1460 O.co2  89  GLU89      -0.2457
     85  OE2       17.9480    2.4640  -10.2900 O.co2  89  GLU89      -0.2457
     86  N         20.4470    2.4640  -12.1570 N.am   90  LYS90      -0.1963
     87  CA        21.3110    3.6250  -11.9030 C.3    90  LYS90       0.1728
     88  C         22.7010    3.4820  -12.5340 C.2    90  LYS90       0.2616
     89  O         23.2390    4.4500  -13.0680 O.2    90  LYS90      -0.2715
     90  CB        21.4630    3.8800  -10.4030 C.3    90  LYS90       0.0311
     91  CG        21.9940    5.2900  -10.0630 C.3    90  LYS90       0.0038
     92  CD        22.1950    5.4610   -8.5550 C.3    90  LYS90       0.0206
     93  CE        22.4020    6.9290   -8.1800 C.3    90  LYS90       0.1093
     94  NZ        23.5640    7.5240   -8.8970 N.3    90  LYS90      -0.1314
     95  N         23.3030    2.2920  -12.4590 N.am   91  ALA91      -0.1977
     96  CA        24.6420    2.1360  -13.0360 C.3    91  ALA91       0.1597
     97  C         24.6340    2.3870  -14.5390 C.2    91  ALA91       0.2287
     98  O         25.5980    2.8920  -15.1020 O.2    91  ALA91      -0.2864
     99  CB        25.2140    0.7380  -12.7380 C.3    91  ALA91       0.0319
    100  N         29.6370    2.7650  -11.2660 N.3    97  VAL97      -0.1231
    101  CA        29.6600    1.4680  -10.6010 C.3    97  VAL97       0.1692
    102  C         28.3760    1.3560   -9.7730 C.2    97  VAL97       0.2592
    103  O         27.7200    2.3770   -9.5080 O.2    97  VAL97      -0.2718
    104  CB        30.8990    1.2920   -9.7040 C.3    97  VAL97       0.0266
    105  CG1       32.1760    1.4520  -10.5190 C.3    97  VAL97       0.0020
    106  CG2       30.8660    2.2780   -8.5530 C.3    97  VAL97       0.0020
    107  N         28.0070    0.1320   -9.4000 N.am   98  ARG98      -0.1966
    108  CA        26.8520   -0.1040   -8.5340 C.3    98  ARG98       0.1729
    109  C         26.9390    0.7560   -7.2750 C.2    98  ARG98       0.2617
    110  O         28.0010    0.8540   -6.6570 O.2    98  ARG98      -0.2715
    111  CB        26.7580   -1.5860   -8.1430 C.3    98  ARG98       0.0348
    112  CG        26.6270   -2.5420   -9.3110 C.3    98  ARG98       0.0492
    113  CD        25.3210   -2.3170  -10.0700 C.3    98  ARG98       0.2205
    114  NE        25.0300   -3.4370  -10.9670 N.pl3  98  ARG98      -0.0865
    115  CZ        24.1020   -3.4010  -11.9180 C.cat  98  ARG98       0.5346
    116  NH1       23.3760   -2.3010  -12.0920 N.pl3  98  ARG98       0.1354
    117  NH2       23.8800   -4.4690  -12.6870 N.pl3  98  ARG98       0.1354
    118  N         25.8180    1.3560   -6.8870 N.am   99  SER99      -0.1936
    119  CA        25.8270    2.3910   -5.8490 C.3    99  SER99       0.2055
    120  C         25.2420    1.8960   -4.5210 C.2    99  SER99       0.2642
    121  O         25.1940    2.6340   -3.5340 O.2    99  SER99      -0.2714
    122  CB        25.0560    3.6200   -6.3440 C.3    99  SER99       0.2130
    123  OG        23.6730    3.3070   -6.5050 O.3    99  SER99      -0.2179
    124  N         24.8060    0.6380   -4.5010 N.am  100  ALA100     -0.1977
    125  CA        24.2640    0.0210   -3.2930 C.3   100  ALA100      0.1597
    126  C         24.2850   -1.4950   -3.4180 C.2   100  ALA100      0.2287
    127  O         24.4060   -2.0250   -4.5270 O.2   100  ALA100     -0.2864
    128  CB        22.8450    0.5030   -3.0280 C.3   100  ALA100      0.0319
    129  N         22.2910   -5.0420   -3.2080 N.3   102  ILE102     -0.1245
    130  CA        20.9510   -5.6000   -3.2740 C.3   102  ILE102      0.1561
    131  C         21.0130   -7.0420   -2.8040 C.2   102  ILE102      0.2260
    132  O         21.6770   -7.8670   -3.4310 O.2   102  ILE102     -0.2867
    133  CB        20.3730   -5.5520   -4.6790 C.3   102  ILE102      0.0252
    134  CG1       20.3990   -4.1110   -5.2250 C.3   102  ILE102      0.0019
    135  CG2       18.9560   -6.0730   -4.6580 C.3   102  ILE102      0.0019
    136  CD1       19.4150   -3.2140   -4.5380 C.3   102  ILE102      0.0001
    137  N         13.8080    9.2990  -11.7070 N.3   136  TYR136     -0.1241
    138  CA        13.9580    8.2900  -10.6720 C.3   136  TYR136      0.1605
    139  C         15.3940    8.2930  -10.1330 C.2   136  TYR136      0.2264
    140  O         15.6150    8.3300   -8.9190 O.2   136  TYR136     -0.2867
    141  CB        13.5710    6.9130  -11.2420 C.3   136  TYR136      0.0534
    142  CG        13.6380    5.7540  -10.2730 C.ar  136  TYR136     -0.0201
    143  CD1       12.5580    5.4300   -9.4670 C.ar  136  TYR136     -0.0009
    144  CD2       14.7720    4.9580  -10.1950 C.ar  136  TYR136     -0.0009
    145  CE1       12.6170    4.3550   -8.5950 C.ar  136  TYR136      0.0417
    146  CE2       14.8400    3.8850   -9.3270 C.ar  136  TYR136      0.0417
    147  CZ        13.7660    3.5880   -8.5320 C.ar  136  TYR136      0.1957
    148  OH        13.8430    2.5190   -7.6710 O.3   136  TYR136     -0.2866
    149  N         17.1700    9.2560   -6.5230 N.3   140  LEU140     -0.1245
    150  CA        18.1270    8.4130   -5.8120 C.3   140  LEU140      0.1561
    151  C         19.3390    9.2380   -5.3920 C.2   140  LEU140      0.2260
    152  O         19.8060    9.1390   -4.2560 O.2   140  LEU140     -0.2867
    153  CB        18.5760    7.2310   -6.6810 C.3   140  LEU140      0.0270
    154  CG        17.4960    6.2520   -7.1300 C.3   140  LEU140      0.0019
    155  CD1       18.1270    5.0250   -7.7940 C.3   140  LEU140      0.0001
    156  CD2       16.6540    5.8380   -5.9520 C.3   140  LEU140      0.0001
    157  N         18.5660   11.3070   -2.4370 N.3   143  ASP143     -0.1225
    158  CA        18.5300   10.4350   -1.2630 C.3   143  ASP143      0.1805
    159  C         19.9410   10.1180   -0.7720 C.2   143  ASP143      0.2597
    160  O         20.2120   10.1970    0.4250 O.2   143  ASP143     -0.2718
    161  CB        17.7750    9.1340   -1.5610 C.3   143  ASP143      0.1424
    162  CG        16.2760    9.3510   -1.7070 C.2   143  ASP143      0.3668
    163  OD1       15.8050   10.4410   -1.3170 O.co2 143  ASP143     -0.2456
    164  OD2       15.5730    8.4390   -2.2090 O.co2 143  ASP143     -0.2456
    165  N         20.8350    9.7680   -1.6950 N.am  144  ASP144     -0.1974
    166  CA        22.2180    9.4810   -1.3280 C.3   144  ASP144      0.1709
    167  C         22.8240   10.6980   -0.6300 C.2   144  ASP144      0.2293
    168  O         23.4910   10.5590    0.3920 O.2   144  ASP144     -0.2864
    169  CB        23.0670    9.1030   -2.5500 C.3   144  ASP144      0.1436
    170  CG        22.6720    7.7580   -3.1630 C.2   144  ASP144      0.3671
    171  OD1       21.8190    7.0480   -2.5930 O.co2 144  ASP144     -0.2456
    172  OD2       23.2380    7.4110   -4.2170 O.co2 144  ASP144     -0.2456
    173  N         21.5230   11.0640    3.1370 N.3   147  ARG147     -0.1245
    174  CA        22.0650   10.1350    4.1270 C.3   147  ARG147      0.1563
    175  C         23.5990   10.1180    4.1490 C.2   147  ARG147      0.2260
    176  O         24.2030    9.3480    4.9020 O.2   147  ARG147     -0.2867
    177  CB        21.5380    8.7100    3.8700 C.3   147  ARG147      0.0307
    178  CG        22.1790    8.0260    2.6810 C.3   147  ARG147      0.0489
    179  CD        21.6590    6.5770    2.5520 C.3   147  ARG147      0.2205
    180  NE        20.2420    6.5820    2.2260 N.pl3 147  ARG147     -0.0865
    181  CZ        19.7660    6.4730    0.9910 C.cat 147  ARG147      0.5346
    182  NH1       20.6030    6.3240   -0.0360 N.pl3 147  ARG147      0.1354
    183  NH2       18.4570    6.5020    0.7850 N.pl3 147  ARG147      0.1354
@<TRIPOS>BOND
     1    98    97    2
     2    97    96    1
     3    80    79    2
     4    81    78    1
     5    81    82    1
     6    78    79    1
     7    78    77    1
     8    79    86   am
     9    76    75    2
    10    89    88    2
    11    96    99    1
    12    96    95    1
    13   117   115    1
    14    82    83    1
    15    88    95   am
    16    88    87    1
    17    77    75   am
    18    75    74    1
    19    86    87    1
    20   116   115    1
    21   115   114    2
    22    87    90    1
    23    61    60    1
    24    59    60   ar
    25    59    57   ar
    26   137   138    1
    27    60    58   ar
    28    57    55   ar
    29    58    56   ar
    30    55    56   ar
    31    55    54    1
    32    54    51    1
    33    65    64    2
    34   100   101    1
    35   141   138    1
    36   141   142    1
    37    83    84   ar
    38    83    85   ar
    39    74    73    1
    40   114   113    1
    41   138   139    1
    42   101   102    1
    43   101   104    1
    44   105   104    1
    45    64    73   am
    46    64    63    1
    47    90    91    1
    48   142   144   ar
    49   142   143   ar
    50   144   146   ar
    51   139   140    2
    52   113   112    1
    53    91    92    1
    54    51    52    1
    55    51    50    1
    56    62    63    1
    57    62    52   am
    58   102   103    2
    59   102   107   am
    60   104   106    1
    61    63    66    1
    62   143   145   ar
    63    52    53    2
    64   107   108    1
    65   146   147   ar
    66   112   111    1
    67     8     6    1
    68    94    93    1
    69   145   147   ar
    70    92    93    1
    71   108   111    1
    72   108   109    1
    73   147   148    1
    74     6     5    1
    75    68    70   ar
    76    68    67   ar
    77    70    72   ar
    78    66    67    1
    79    67    69   ar
    80    72    71   ar
    81   155   154    1
    82    69    71   ar
    83   109   118   am
    84   109   110    2
    85   154   153    1
    86   154   156    1
    87     5     7    1
    88     5     2    1
    89   118   119    1
    90   153   150    1
    91     2     1    1
    92     2     3    1
    93   149   150    1
    94   123   122    1
    95   122   119    1
    96   119   120    1
    97   150   151    1
    98     3     4    2
    99   151   152    2
   100   134   133    1
   101   134   136    1
   102    48    47    1
   103   133   135    1
   104   133   130    1
   105   127   126    2
   106   120   124   am
   107   120   121    2
   108   124   125    1
   109   172   170   ar
   110    49    47    1
   111    47    46    1
   112    46    43    1
   113   132   131    2
   114   126   125    1
   115   125   128    1
   116   130   129    1
   117   130   131    1
   118   170   171   ar
   119   170   169    1
   120    44    43    1
   121    44    45    2
   122    41    40    1
   123   169   166    1
   124    43    42    1
   125   157   158    1
   126   164   162   ar
   127    24    22   am
   128    15    13    1
   129   162   161    1
   130   162   163   ar
   131   165   166    1
   132   165   159   am
   133    14    13    1
   134   161   158    1
   135    39    40    1
   136    39    38    1
   137   166   167    1
   138   158   159    1
   139    13    10    1
   140   159   160    2
   141    22    21    1
   142    22    23    2
   143   167   168    2
   144    38    37    1
   145    10     9    1
   146    10    11    1
   147    21    20    1
   148   182   181    1
   149    32    30    1
   150    20    17    1
   151   183   181    1
   152    11    12    2
   153   181   180    2
   154    37    34    1
   155    30    29    1
   156    17    16    1
   157    17    18    1
   158    36    35    2
   159    35    34    1
   160    34    33    1
   161   180   179    1
   162    18    19    2
   163    29    31    1
   164    29    26    1
   165    33    27   am
   166   179   178    1
   167   178   177    1
   168    27    28    2
   169    27    26    1
   170   173   174    1
   171    26    25    1
   172   177   174    1
   173   174   175    1
   174   175   176    2
