@<TRIPOS>MOLECULE
tmp/5bv9A00.pdb
 170 166 0 0 0
SMALL
GASTEIGER

@<TRIPOS>ATOM
      1  N        -48.8550   -7.6400  -26.6410 N.3    29  HIS29      -0.1241
      2  CA       -48.8500   -6.9840  -25.3130 C.3    29  HIS29       0.1621
      3  C        -50.1990   -6.3350  -24.9620 C.2    29  HIS29       0.2264
      4  O        -50.6890   -6.4610  -23.8260 O.2    29  HIS29      -0.2867
      5  CB       -47.7620   -5.9470  -25.1750 C.3    29  HIS29       0.0745
      6  CG       -47.6890   -5.3270  -23.8020 C.ar   29  HIS29       0.0817
      7  ND1      -48.0440   -4.0170  -23.5460 N.ar   29  HIS29      -0.2268
      8  CD2      -47.2840   -5.8310  -22.6260 C.ar   29  HIS29       0.1154
      9  CE1      -47.9260   -3.7590  -22.2610 C.ar   29  HIS29       0.1986
     10  NE2      -47.4600   -4.8540  -21.6780 N.ar   29  HIS29      -0.2212
     11  N        -43.8490    0.7470  -21.6120 N.3    37  GLU37      -0.1231
     12  CA       -43.7230    0.3720  -20.2280 C.3    37  GLU37       0.1699
     13  C        -42.6910   -0.7300  -19.9100 C.2    37  GLU37       0.2592
     14  O        -41.9830   -0.6340  -18.9140 O.2    37  GLU37      -0.2718
     15  CB       -45.0760    0.0140  -19.6210 C.3    37  GLU37       0.0402
     16  CG       -45.8990   -1.0080  -20.3270 C.3    37  GLU37       0.1161
     17  CD       -47.3610   -0.8980  -20.0080 C.2    37  GLU37       0.3649
     18  OE1      -48.0720   -1.9560  -20.1330 O.co2  37  GLU37      -0.2457
     19  OE2      -47.8140    0.2270  -19.6320 O.co2  37  GLU37      -0.2457
     20  N        -42.6420   -1.7780  -20.6860 N.am   38  ALA38      -0.1966
     21  CA       -41.5670   -2.7620  -20.5800 C.3    38  ALA38       0.1713
     22  C        -41.2110   -3.1970  -21.9760 C.2    38  ALA38       0.2458
     23  O        -40.0700   -2.9140  -22.3940 O.2    38  ALA38      -0.2730
     24  CB       -41.8980   -3.9100  -19.5820 C.3    38  ALA38       0.0333
     25  N        -42.1950   -3.7940  -22.7150 N.am   39  PRO39      -0.2727
     26  CA       -42.1940   -3.6400  -24.1430 C.3    39  PRO39       0.1402
     27  C        -42.4250   -2.1490  -24.4310 C.2    39  PRO39       0.2269
     28  O        -42.9770   -1.4160  -23.5650 O.2    39  PRO39      -0.2865
     29  CB       -43.3250   -4.4800  -24.6060 C.3    39  PRO39       0.0296
     30  CG       -44.3330   -4.4120  -23.4930 C.3    39  PRO39       0.0237
     31  CD       -43.4790   -4.3860  -22.2600 C.3    39  PRO39       0.0939
     32  N        -44.4910  -10.4360  -25.3320 N.3    46  THR46      -0.1218
     33  CA       -43.5500  -10.8840  -24.3390 C.3    46  THR46       0.1862
     34  C        -43.7300  -12.3370  -24.0150 C.2    46  THR46       0.2287
     35  O        -44.8060  -12.9360  -24.1810 O.2    46  THR46      -0.2866
     36  CB       -43.6690  -10.0750  -23.0410 C.3    46  THR46       0.1770
     37  OG1      -44.9790  -10.2740  -22.5130 O.3    46  THR46      -0.2211
     38  CG2      -43.4030   -8.5350  -23.3120 C.3    46  THR46       0.0375
     39  N        -44.0300  -13.0840  -21.0080 N.3    48  GLU48      -0.1245
     40  CA       -45.0450  -12.9800  -19.9820 C.3    48  GLU48       0.1567
     41  C        -46.4270  -13.2180  -20.6000 C.2    48  GLU48       0.2260
     42  O        -47.2100  -14.0570  -20.1540 O.2    48  GLU48      -0.2867
     43  CB       -45.0030  -11.6110  -19.2440 C.3    48  GLU48       0.0388
     44  CG       -43.6470  -11.0800  -18.7670 C.3    48  GLU48       0.1160
     45  CD       -42.9460  -11.8620  -17.6800 C.2    48  GLU48       0.3649
     46  OE1      -43.5510  -12.8470  -17.1440 O.co2  48  GLU48      -0.2457
     47  OE2      -41.8080  -11.4370  -17.3290 O.co2  48  GLU48      -0.2457
     48  N        -32.9180  -12.5290  -12.6630 N.3   294  TRP294     -0.1241
     49  CA       -33.7960  -11.8560  -13.5610 C.3   294  TRP294      0.1605
     50  C        -33.8820  -12.5360  -14.9340 C.2   294  TRP294      0.2264
     51  O        -34.9610  -12.6020  -15.5200 O.2   294  TRP294     -0.2867
     52  CB       -33.3270  -10.3840  -13.7290 C.3   294  TRP294      0.0550
     53  CG       -34.3340   -9.4850  -14.4560 C.ar  294  TRP294      0.0003
     54  CD1      -34.2860   -9.0540  -15.7450 C.ar  294  TRP294      0.0946
     55  CD2      -35.4940   -8.8840  -13.8880 C.ar  294  TRP294      0.0152
     56  NE1      -35.3730   -8.2390  -16.0290 N.ar  294  TRP294     -0.2442
     57  CE2      -36.1070   -8.0830  -14.8920 C.ar  294  TRP294      0.0810
     58  CE3      -36.0610   -8.8960  -12.6200 C.ar  294  TRP294      0.0012
     59  CZ2      -37.2980   -7.3660  -14.6610 C.ar  294  TRP294      0.0191
     60  CZ3      -37.2070   -8.1770  -12.3930 C.ar  294  TRP294      0.0001
     61  CH2      -37.8160   -7.4180  -13.4140 C.ar  294  TRP294      0.0015
     62  N        -39.9590  -12.0400   -9.3100 N.3   321  TYR321     -0.1241
     63  CA       -39.7470  -13.0840  -10.2880 C.3   321  TYR321      0.1605
     64  C        -39.6810  -14.4950   -9.7100 C.2   321  TYR321      0.2264
     65  O        -39.6670  -15.4080  -10.4840 O.2   321  TYR321     -0.2867
     66  CB       -38.4680  -12.7770  -11.1620 C.3   321  TYR321      0.0534
     67  CG       -38.7450  -11.8800  -12.3620 C.ar  321  TYR321     -0.0201
     68  CD1      -39.8410  -11.0260  -12.3920 C.ar  321  TYR321     -0.0009
     69  CD2      -37.9470  -11.9240  -13.5100 C.ar  321  TYR321     -0.0009
     70  CE1      -40.1330  -10.2180  -13.5120 C.ar  321  TYR321      0.0417
     71  CE2      -38.2090  -11.1000  -14.6320 C.ar  321  TYR321      0.0417
     72  CZ       -39.3080  -10.2340  -14.6030 C.ar  321  TYR321      0.1957
     73  OH       -39.6920   -9.4720  -15.6580 O.3   321  TYR321     -0.2866
     74  N        -43.4810   -0.5580   -7.9270 N.3   410  TRP410     -0.1241
     75  CA       -44.7830   -0.8600   -8.4470 C.3   410  TRP410      0.1605
     76  C        -45.4570   -1.9430   -7.6120 C.2   410  TRP410      0.2264
     77  O        -44.9040   -2.9880   -7.3550 O.2   410  TRP410     -0.2867
     78  CB       -44.7030   -1.2320   -9.9360 C.3   410  TRP410      0.0550
     79  CG       -46.0430   -1.5430  -10.5510 C.ar  410  TRP410      0.0003
     80  CD1      -47.1690   -0.8150  -10.4620 C.ar  410  TRP410      0.0946
     81  CD2      -46.3700   -2.6870  -11.3200 C.ar  410  TRP410      0.0152
     82  NE1      -48.2130   -1.4420  -11.0940 N.ar  410  TRP410     -0.2442
     83  CE2      -47.7320   -2.6070  -11.6280 C.ar  410  TRP410      0.0810
     84  CE3      -45.6460   -3.8180  -11.7180 C.ar  410  TRP410      0.0012
     85  CZ2      -48.3750   -3.5860  -12.4040 C.ar  410  TRP410      0.0191
     86  CZ3      -46.2860   -4.8060  -12.4240 C.ar  410  TRP410      0.0001
     87  CH2      -47.6310   -4.6930  -12.7670 C.ar  410  TRP410      0.0015
     88  N        -45.6690   -5.6350   -8.3710 N.3   413  MET413     -0.1245
     89  CA       -44.5960   -6.5170   -7.9390 C.3   413  MET413      0.1570
     90  C        -44.9080   -7.1150   -6.5560 C.2   413  MET413      0.2261
     91  O        -44.2460   -8.0390   -6.1080 O.2   413  MET413     -0.2867
     92  CB       -43.2150   -5.8070   -8.0250 C.3   413  MET413      0.0387
     93  CG       -42.7120   -5.5480   -9.4380 C.3   413  MET413      0.0595
     94  SD       -42.4450   -7.0930  -10.3450 S.3   413  MET413     -0.1393
     95  CE       -40.9690   -6.7710  -11.2590 C.3   413  MET413      0.0692
     96  N        -48.2550   -9.9340   -7.8600 N.3   416  TRP416     -0.1241
     97  CA       -47.8380  -11.0680   -8.6790 C.3   416  TRP416      0.1605
     98  C        -47.2120  -12.2270   -7.8640 C.2   416  TRP416      0.2264
     99  O        -47.6550  -13.3860   -8.0010 O.2   416  TRP416     -0.2867
    100  CB       -46.8660  -10.6160   -9.8200 C.3   416  TRP416      0.0550
    101  CG       -47.5360   -9.9970  -11.0030 C.ar  416  TRP416      0.0003
    102  CD1      -48.8650   -9.9870  -11.2850 C.ar  416  TRP416      0.0946
    103  CD2      -46.8900   -9.3320  -12.0690 C.ar  416  TRP416      0.0152
    104  NE1      -49.0890   -9.3000  -12.4450 N.ar  416  TRP416     -0.2442
    105  CE2      -47.8880   -8.9180  -12.9700 C.ar  416  TRP416      0.0810
    106  CE3      -45.5560   -9.0510  -12.3520 C.ar  416  TRP416      0.0012
    107  CZ2      -47.6090   -8.2770  -14.1440 C.ar  416  TRP416      0.0191
    108  CZ3      -45.2620   -8.3750  -13.4780 C.ar  416  TRP416      0.0001
    109  CH2      -46.2890   -7.9820  -14.3860 C.ar  416  TRP416      0.0015
    110  N        -47.8740    2.1530   -5.7240 N.3   501  ASN501     -0.1240
    111  CA       -46.4240    2.0710   -5.5020 C.3   501  ASN501      0.1653
    112  C        -46.1320    2.0150   -4.0090 C.2   501  ASN501      0.2266
    113  O        -47.0130    2.2940   -3.2030 O.2   501  ASN501     -0.2867
    114  CB       -45.6890    3.3130   -6.0620 C.3   501  ASN501      0.1155
    115  CG       -45.6310    3.3480   -7.5810 C.2   501  ASN501      0.2627
    116  OD1      -45.0120    2.5060   -8.2310 O.2   501  ASN501     -0.2716
    117  ND2      -46.2820    4.3410   -8.1550 N.am  501  ASN501     -0.0877
    118  N        -55.7710    0.0270  -11.4130 N.3   533  ASP533     -0.1239
    119  CA       -55.1990   -1.0050  -12.3110 C.3   533  ASP533      0.1674
    120  C        -55.9730   -2.3080  -12.2160 C.2   533  ASP533      0.2266
    121  O        -55.8830   -3.0310  -11.2420 O.2   533  ASP533     -0.2867
    122  CB       -53.7370   -1.2220  -11.9140 C.3   533  ASP533      0.1410
    123  CG       -52.9550   -1.9650  -12.9090 C.2   533  ASP533      0.3668
    124  OD1      -53.4470   -2.9940  -13.4240 O.co2 533  ASP533     -0.2456
    125  OD2      -51.7750   -1.5610  -13.1620 O.co2 533  ASP533     -0.2456
    126  N        -56.1740    5.7000  -17.3300 N.3   589  GLU589     -0.1245
    127  CA       -54.9210    5.9230  -16.5880 C.3   589  GLU589      0.1567
    128  C        -54.2110    7.1150  -17.1110 C.2   589  GLU589      0.2260
    129  O        -54.2660    7.4080  -18.2840 O.2   589  GLU589     -0.2867
    130  CB       -53.9890    4.6800  -16.6080 C.3   589  GLU589      0.0388
    131  CG       -53.3890    4.3510  -17.9950 C.3   589  GLU589      0.1160
    132  CD       -52.6770    3.0130  -18.0170 C.2   589  GLU589      0.3649
    133  OE1      -53.3820    2.0340  -17.8680 O.co2 589  GLU589     -0.2457
    134  OE2      -51.4400    2.9290  -18.2400 O.co2 589  GLU589     -0.2457
    135  N        -50.6950    9.0150  -17.8250 N.3   591  ARG591     -0.1245
    136  CA       -49.3020    8.6420  -18.0990 C.3   591  ARG591      0.1563
    137  C        -48.4230    9.8930  -18.1700 C.2   591  ARG591      0.2260
    138  O        -48.0500   10.3820  -19.2210 O.2   591  ARG591     -0.2867
    139  CB       -49.2580    7.8650  -19.3880 C.3   591  ARG591      0.0307
    140  CG       -50.0520    6.5720  -19.3880 C.3   591  ARG591      0.0489
    141  CD       -49.5530    5.6180  -18.2780 C.3   591  ARG591      0.2205
    142  NE       -48.1360    5.2550  -18.4390 N.pl3 591  ARG591     -0.0865
    143  CZ       -47.6920    4.0830  -18.9040 C.cat 591  ARG591      0.5346
    144  NH1      -48.5220    3.0850  -19.2550 N.pl3 591  ARG591      0.1354
    145  NH2      -46.3760    3.8760  -18.9960 N.pl3 591  ARG591      0.1354
    146  N        -54.6690   -4.5630  -21.9620 N.3   681  ARG681     -0.1245
    147  CA       -53.4440   -5.3700  -21.9020 C.3   681  ARG681      0.1563
    148  C        -53.8010   -6.8050  -21.8210 C.2   681  ARG681      0.2260
    149  O        -54.7010   -7.1660  -21.0520 O.2   681  ARG681     -0.2867
    150  CB       -52.6410   -4.9750  -20.6740 C.3   681  ARG681      0.0307
    151  CG       -52.1520   -3.5340  -20.7290 C.3   681  ARG681      0.0489
    152  CD       -51.4510   -3.2370  -19.4330 C.3   681  ARG681      0.2205
    153  NE       -50.7760   -1.9480  -19.3900 N.pl3 681  ARG681     -0.0865
    154  CZ       -51.3090   -0.7770  -19.0040 C.cat 681  ARG681      0.5346
    155  NH1      -52.5780   -0.6840  -18.6330 N.pl3 681  ARG681      0.1354
    156  NH2      -50.5810    0.3100  -18.9870 N.pl3 681  ARG681      0.1354
    157  N        -52.0310   -9.5020  -20.4710 N.3   683  TRP683     -0.1241
    158  CA       -51.7850  -10.0740  -19.1490 C.3   683  TRP683      0.1605
    159  C        -52.8900   -9.5990  -18.1770 C.2   683  TRP683      0.2264
    160  O        -53.3830  -10.3850  -17.3830 O.2   683  TRP683     -0.2867
    161  CB       -50.3810   -9.8010  -18.6240 C.3   683  TRP683      0.0550
    162  CG       -50.0940   -8.4310  -18.0910 C.ar  683  TRP683      0.0003
    163  CD1      -49.4530   -7.4180  -18.7250 C.ar  683  TRP683      0.0946
    164  CD2      -50.4280   -7.9250  -16.7660 C.ar  683  TRP683      0.0152
    165  NE1      -49.3850   -6.3120  -17.9080 N.ar  683  TRP683     -0.2442
    166  CE2      -49.9780   -6.5990  -16.7010 C.ar  683  TRP683      0.0810
    167  CE3      -51.0380   -8.4840  -15.6430 C.ar  683  TRP683      0.0012
    168  CZ2      -50.1190   -5.8300  -15.5570 C.ar  683  TRP683      0.0191
    169  CZ3      -51.2080   -7.7010  -14.4970 C.ar  683  TRP683      0.0001
    170  CH2      -50.7500   -6.4020  -14.4490 C.ar  683  TRP683      0.0015
@<TRIPOS>BOND
     1     1     2    1
     2    32    33    1
     3     2     5    1
     4     2     3    1
     5     5     6    1
     6     3     4    2
     7    29    26    1
     8    29    30    1
     9    27    26    1
    10    27    28    2
    11    33    34    1
    12    33    36    1
    13    35    34    2
    14    26    25    1
    15     6     7   ar
    16     6     8   ar
    17     7     9   ar
    18    30    31    1
    19    38    36    1
    20    36    37    1
    21    25    31    1
    22    25    22   am
    23     8    10   ar
    24    23    22    2
    25     9    10   ar
    26    22    21    1
    27   146   147    1
    28   147   148    1
    29   147   150    1
    30   148   149    2
    31    11    12    1
    32    39    40    1
    33   151   150    1
    34   151   152    1
    35    20    21    1
    36    20    13   am
    37    41    42    2
    38    41    40    1
    39    21    24    1
    40   157   158    1
    41    16    17    1
    42    16    15    1
    43    12    13    1
    44    12    15    1
    45    18    17   ar
    46    17    19   ar
    47    40    43    1
    48    13    14    2
    49   152   153    1
    50   153   154    2
    51   139   140    1
    52   139   136    1
    53   140   141    1
    54   144   143    1
    55    43    44    1
    56   138   137    2
    57   158   161    1
    58   158   159    1
    59   154   156    1
    60   154   155    1
    61   145   143    1
    62   143   142    2
    63    44    45    1
    64   163   162   ar
    65   163   165   ar
    66   161   162    1
    67   142   141    1
    68   129   128    2
    69   134   132   ar
    70   159   160    2
    71   137   136    1
    72   136   135    1
    73   162   164   ar
    74   132   131    1
    75   132   133   ar
    76   131   130    1
    77   165   166   ar
    78    45    47   ar
    79    45    46   ar
    80   126   127    1
    81   128   127    1
    82   164   166   ar
    83   164   167   ar
    84   166   168   ar
    85   130   127    1
    86    56    54   ar
    87    56    57   ar
    88    54    53   ar
    89    73    72    1
    90   167   169   ar
    91   168   170   ar
    92    51    50    2
    93    50    49    1
    94    57    59   ar
    95    57    55   ar
    96    59    61   ar
    97    71    72   ar
    98    71    69   ar
    99    72    70   ar
   100   169   170   ar
   101    53    55   ar
   102    53    52    1
   103   109   107   ar
   104   109   108   ar
   105   107   105   ar
   106    55    58   ar
   107    52    49    1
   108    49    48    1
   109    70    68   ar
   110    69    67   ar
   111   108   106   ar
   112   124   123   ar
   113    61    60   ar
   114   125   123   ar
   115   105   104   ar
   116   105   103   ar
   117   123   122    1
   118    87    86   ar
   119    87    85   ar
   120    58    60   ar
   121   104   102   ar
   122    86    84   ar
   123    85    83   ar
   124    68    67   ar
   125    67    66    1
   126   106   103   ar
   127   119   120    1
   128   119   122    1
   129   119   118    1
   130   120   121    2
   131   103   101   ar
   132    84    81   ar
   133    83    81   ar
   134    83    82   ar
   135    81    79   ar
   136   102   101   ar
   137    95    94    1
   138    66    63    1
   139    82    80   ar
   140   101   100    1
   141    79    80   ar
   142    79    78    1
   143    65    64    2
   144    94    93    1
   145    63    64    1
   146    63    62    1
   147    78    75    1
   148   100    97    1
   149    93    92    1
   150    97    98    1
   151    97    96    1
   152    75    74    1
   153    75    76    1
   154    88    89    1
   155   116   115    2
   156   117   115   am
   157    92    89    1
   158    99    98    2
   159    89    90    1
   160    76    77    2
   161   115   114    1
   162    90    91    2
   163   114   111    1
   164   110   111    1
   165   111   112    1
   166   112   113    2
