@<TRIPOS>MOLECULE
tmp/5bveA00.pdb
 219 209 0 0 0
SMALL
GASTEIGER

@<TRIPOS>ATOM
      1  N         18.6690   -9.4190   14.2100 N.3    23  ILE23      -0.1231
      2  CA        18.7860   -8.3310   15.1930 C.3    23  ILE23       0.1692
      3  C         17.4950   -8.0400   15.9630 C.2    23  ILE23       0.2593
      4  O         17.4700   -7.1650   16.8350 O.2    23  ILE23      -0.2718
      5  CB        19.2730   -6.9930   14.5530 C.3    23  ILE23       0.0266
      6  CG1       18.2340   -6.4130   13.5940 C.3    23  ILE23       0.0019
      7  CG2       20.6540   -7.1480   13.8910 C.3    23  ILE23       0.0020
      8  CD1       18.6910   -5.1340   12.8850 C.3    23  ILE23       0.0001
      9  N         16.4210   -8.7600   15.6620 N.am   24  GLY24      -0.1942
     10  CA        15.1820   -8.5620   16.3960 C.3    24  GLY24       0.2014
     11  C         14.0130   -9.2750   15.7570 C.2    24  GLY24       0.2639
     12  O         14.1550   -9.8630   14.6770 O.2    24  GLY24      -0.2714
     13  N         12.8590   -9.2180   16.4170 N.am   25  GLU25      -0.1963
     14  CA        11.6620   -9.8790   15.9110 C.3    25  GLU25       0.1733
     15  C         10.3850   -9.2490   16.4220 C.2    25  GLU25       0.2617
     16  O         10.4020   -8.4330   17.3370 O.2    25  GLU25      -0.2715
     17  CB        11.6700  -11.3500   16.2940 C.3    25  GLU25       0.0429
     18  CG        11.5570  -11.5910   17.7830 C.3    25  GLU25       0.1163
     19  CD        11.8290  -13.0390   18.1270 C.2    25  GLU25       0.3649
     20  OE1       12.1530  -13.8020   17.1930 O.co2  25  GLU25      -0.2457
     21  OE2       11.7370  -13.4140   19.3190 O.co2  25  GLU25      -0.2457
     22  N          9.2660   -9.6480   15.8310 N.am   26  GLY26      -0.1940
     23  CA         7.9790   -9.1870   16.2850 C.3    26  GLY26       0.2014
     24  C          6.9690  -10.3010   16.1580 C.2    26  GLY26       0.2639
     25  O          7.3260  -11.4330   15.8290 O.2    26  GLY26      -0.2714
     26  N          5.7060   -9.9660   16.3990 N.am   27  ALA27      -0.1963
     27  CA         4.6160  -10.9370   16.3970 C.3    27  ALA27       0.1728
     28  C          4.5230  -11.7120   15.0820 C.2    27  ALA27       0.2616
     29  O          4.3130  -12.9240   15.0810 O.2    27  ALA27      -0.2715
     30  CB         3.2860  -10.2340   16.6870 C.3    27  ALA27       0.0334
     31  N          4.6660  -11.0120   13.9620 N.am   28  TYR28      -0.1960
     32  CA         4.5420  -11.6600   12.6590 C.3    28  TYR28       0.1774
     33  C          5.7030  -11.2860   11.7480 C.2    28  TYR28       0.2659
     34  O          5.4980  -10.9520   10.5750 O.2    28  TYR28      -0.2711
     35  CB         3.2010  -11.3100   11.9950 C.3    28  TYR28       0.0574
     36  CG         2.7950   -9.8520   12.1080 C.ar   28  TYR28      -0.0198
     37  CD1        2.2010   -9.3580   13.2720 C.ar   28  TYR28      -0.0009
     38  CD2        2.9900   -8.9730   11.0560 C.ar   28  TYR28      -0.0009
     39  CE1        1.8360   -8.0370   13.3800 C.ar   28  TYR28       0.0417
     40  CE2        2.6270   -7.6480   11.1620 C.ar   28  TYR28       0.0417
     41  CZ         2.0510   -7.1850   12.3290 C.ar   28  TYR28       0.1957
     42  OH         1.6890   -5.8630   12.4380 O.3    28  TYR28      -0.2866
     43  N          6.9210  -11.3310   12.2910 N.am   29  GLY29      -0.1716
     44  CA         8.1060  -11.1570   11.4700 C.2    29  GLY29       0.1480
     45  C          9.4150  -11.0710   12.2270 C.2    29  GLY29       0.2820
     46  O          9.4970  -11.3980   13.4100 O.2    29  GLY29      -0.2669
     47  N         10.4330  -10.5750   11.5390 N.am   30  MET30      -0.1928
     48  CA        11.7940  -10.6150   12.0330 C.3    30  MET30       0.1739
     49  C         12.6120   -9.4780   11.4300 C.2    30  MET30       0.2616
     50  O         12.3300   -9.0300   10.3120 O.2    30  MET30      -0.2715
     51  CB        12.4200  -11.9710   11.6870 C.3    30  MET30       0.0427
     52  CG        13.9040  -12.1230   12.0080 C.3    30  MET30       0.0599
     53  SD        14.5530  -13.7340   11.4640 S.3    30  MET30      -0.1393
     54  CE        13.6820  -14.8140   12.5920 C.3    30  MET30       0.0692
     55  N         13.6190   -9.0100   12.1670 N.am   31  VAL31      -0.1977
     56  CA        14.5030   -7.9830   11.6450 C.3    31  VAL31       0.1596
     57  C         15.9200   -8.5220   11.4980 C.2    31  VAL31       0.2287
     58  O         16.4290   -9.1760   12.4070 O.2    31  VAL31      -0.2864
     59  CB        14.5520   -6.7290   12.5470 C.3    31  VAL31       0.0276
     60  CG1       15.2140   -5.5660   11.7860 C.3    31  VAL31       0.0022
     61  CG2       13.1540   -6.3470   13.0210 C.3    31  VAL31       0.0022
     62  N         19.0220   -2.0550    8.2510 N.3    44  ALA44      -0.1245
     63  CA        18.1150   -2.9570    8.9270 C.3    44  ALA44       0.1562
     64  C         17.0150   -3.3380    7.9670 C.2    44  ALA44       0.2260
     65  O         16.4970   -2.4970    7.2240 O.2    44  ALA44      -0.2867
     66  CB        17.5410   -2.3210   10.1980 C.3    44  ALA44       0.0290
     67  N         13.3110   -5.0790    7.9410 N.3    46  LYS46      -0.1231
     68  CA        12.1900   -5.6050    8.6940 C.3    46  LYS46       0.1693
     69  C         11.2690   -6.4230    7.7920 C.2    46  LYS46       0.2592
     70  O         10.5770   -5.8740    6.9350 O.2    46  LYS46      -0.2718
     71  CB        11.4110   -4.4610    9.3550 C.3    46  LYS46       0.0285
     72  CG        10.1860   -4.9000   10.1310 C.3    46  LYS46       0.0035
     73  CD         9.4740   -3.6900   10.7230 C.3    46  LYS46       0.0206
     74  CE         8.1770   -4.0860   11.4090 C.3    46  LYS46       0.1093
     75  NZ         7.7290   -3.0100   12.3300 N.3    46  LYS46      -0.1314
     76  N         11.2570   -7.7350    8.0080 N.am   47  LYS47      -0.1966
     77  CA        10.3440   -8.6210    7.2950 C.3    47  LYS47       0.1728
     78  C          9.0100   -8.7150    8.0340 C.2    47  LYS47       0.2616
     79  O          8.9740   -9.0190    9.2200 O.2    47  LYS47      -0.2715
     80  CB        10.9510  -10.0190    7.1310 C.3    47  LYS47       0.0311
     81  CG        10.0200  -11.0240    6.4380 C.3    47  LYS47       0.0038
     82  CD        10.6280  -12.4370    6.4100 C.3    47  LYS47       0.0206
     83  CE         9.7120  -13.4330    5.7000 C.3    47  LYS47       0.1093
     84  NZ        10.2590  -14.8110    5.7330 N.3    47  LYS47      -0.1314
     85  N          7.9260   -8.4740    7.3100 N.am   48  ILE48      -0.1977
     86  CA         6.5800   -8.5530    7.8610 C.3    48  ILE48       0.1596
     87  C          5.7450   -9.5490    7.0620 C.2    48  ILE48       0.2287
     88  O          5.7000   -9.4620    5.8320 O.2    48  ILE48      -0.2864
     89  CB         5.9100   -7.1750    7.8270 C.3    48  ILE48       0.0276
     90  CG1        6.7430   -6.1720    8.6290 C.3    48  ILE48       0.0022
     91  CG2        4.5150   -7.2480    8.3740 C.3    48  ILE48       0.0022
     92  CD1        6.3770   -4.7240    8.3430 C.3    48  ILE48       0.0001
     93  N         12.5250    6.7720   13.1780 N.3    76  ILE76      -0.1245
     94  CA        13.0080    5.8370   12.1640 C.3    76  ILE76       0.1561
     95  C         12.2290    6.0460   10.8690 C.2    76  ILE76       0.2260
     96  O         11.0460    6.3590   10.8950 O.2    76  ILE76      -0.2867
     97  CB        12.8810    4.3480   12.6410 C.3    76  ILE76       0.0252
     98  CG1       13.8820    3.4590   11.8980 C.3    76  ILE76       0.0019
     99  CG2       11.4080    3.8260   12.5200 C.3    76  ILE76       0.0019
    100  CD1       15.3260    3.8310   12.1660 C.3    76  ILE76       0.0001
    101  N         15.2680    0.0580    6.6650 N.3    97  GLN97      -0.1231
    102  CA        15.4400    1.2130    7.5530 C.3    97  GLN97       0.1698
    103  C         16.9140    1.4100    7.8870 C.2    97  GLN97       0.2592
    104  O         17.7180    0.4740    7.7520 O.2    97  GLN97      -0.2718
    105  CB        14.6460    1.0260    8.8540 C.3    97  GLN97       0.0381
    106  CG        13.2120    0.5540    8.6640 C.3    97  GLN97       0.0905
    107  CD        12.4000    0.6170    9.9450 C.2    97  GLN97       0.2608
    108  OE1       12.6510   -0.1210   10.9050 O.2    97  GLN97      -0.2717
    109  NE2       11.4170    1.5140    9.9680 N.am   97  GLN97      -0.0878
    110  N         17.2650    2.6180    8.3270 N.am   98  ASP98      -0.1960
    111  CA        18.6130    2.8840    8.8220 C.3    98  ASP98       0.1840
    112  C         18.9390    1.9140    9.9420 C.2    98  ASP98       0.2622
    113  O         18.0860    1.6080   10.7900 O.2    98  ASP98      -0.2715
    114  CB        18.7520    4.3110    9.3370 C.3    98  ASP98       0.1450
    115  CG        18.6310    5.3560    8.2530 C.2    98  ASP98       0.3671
    116  OD1       18.8620    5.0560    7.0640 O.co2  98  ASP98      -0.2456
    117  OD2       18.3260    6.5070    8.6100 O.co2  98  ASP98      -0.2456
    118  N         20.1650    1.4100    9.9410 N.am   99  LEU99      -0.1963
    119  CA        20.5850    0.5000   10.9970 C.3    99  LEU99       0.1728
    120  C         21.0520    1.2730   12.2180 C.2    99  LEU99       0.2616
    121  O         21.9520    2.1210   12.1440 O.2    99  LEU99      -0.2715
    122  CB        21.7040   -0.4280   10.5140 C.3    99  LEU99       0.0311
    123  CG        22.1700   -1.4890   11.5070 C.3    99  LEU99       0.0022
    124  CD1       21.1030   -2.5380   11.8110 C.3    99  LEU99       0.0001
    125  CD2       23.4280   -2.1440   10.9840 C.3    99  LEU99       0.0001
    126  N         20.4450    0.9780   13.3530 N.am  100  MET100     -0.1963
    127  CA        20.9300    1.5570   14.5990 C.3   100  MET100      0.1736
    128  C         21.7780    0.5260   15.3450 C.2   100  MET100      0.2616
    129  O         21.6390   -0.6760   15.1080 O.2   100  MET100     -0.2715
    130  CB        19.7480    2.0420   15.4190 C.3   100  MET100      0.0427
    131  CG        18.9360    3.0940   14.6510 C.3   100  MET100      0.0599
    132  SD        19.8400    4.6450   14.4110 S.3   100  MET100     -0.1393
    133  CE        19.5640    4.9380   12.6710 C.3   100  MET100      0.0692
    134  N         22.6600    0.9980   16.2240 N.am  101  GLU101     -0.1963
    135  CA        23.6120    0.1280   16.9210 C.3   101  GLU101      0.1733
    136  C         22.9890   -0.6960   18.0430 C.2   101  GLU101      0.2617
    137  O         23.3290   -1.8560   18.2330 O.2   101  GLU101     -0.2715
    138  CB        24.7610    0.9640   17.4850 C.3   101  GLU101      0.0429
    139  CG        25.3460    1.9510   16.4840 C.3   101  GLU101      0.1163
    140  CD        26.3770    1.3300   15.5580 C.2   101  GLU101      0.3649
    141  OE1       26.9660    0.2900   15.9290 O.co2 101  GLU101     -0.2457
    142  OE2       26.6000    1.8900   14.4590 O.co2 101  GLU101     -0.2457
    143  N         22.0700   -0.1000   18.7940 N.am  102  THR102     -0.1937
    144  CA        21.5010   -0.7960   19.9340 C.3   102  THR102      0.2028
    145  C         20.1650   -0.1550   20.3200 C.2   102  THR102      0.2642
    146  O         19.6470    0.6710   19.5730 O.2   102  THR102     -0.2714
    147  CB        22.4920   -0.7970   21.1480 C.3   102  THR102      0.1808
    148  OG1       21.9930   -1.6560   22.1820 O.3   102  THR102     -0.2208
    149  CG2       22.7160    0.6170   21.6890 C.3   102  THR102      0.0379
    150  N         19.5940   -0.5630   21.4520 N.am  103  ASP103     -0.1971
    151  CA        18.3710    0.0820   21.9460 C.3   103  ASP103      0.1709
    152  C         18.4870    0.3770   23.4390 C.2   103  ASP103      0.2293
    153  O         19.4210   -0.0880   24.1040 O.2   103  ASP103     -0.2864
    154  CB        17.1340   -0.7760   21.6330 C.3   103  ASP103      0.1436
    155  CG        17.1490   -2.1200   22.3200 C.2   103  ASP103      0.3671
    156  OD1       17.3320   -2.1720   23.5570 O.co2 103  ASP103     -0.2456
    157  OD2       16.9550   -3.1420   21.6310 O.co2 103  ASP103     -0.2456
    158  N         18.6050   -2.7250   25.9860 N.3   106  LYS106     -0.1245
    159  CA        19.9330   -3.3190   26.1590 C.3   106  LYS106      0.1561
    160  C         20.8560   -2.4070   26.9460 C.2   106  LYS106      0.2260
    161  O         21.6080   -2.8570   27.8050 O.2   106  LYS106     -0.2867
    162  CB        20.5560   -3.6200   24.7940 C.3   106  LYS106      0.0271
    163  CG        19.8100   -4.6580   23.9590 C.3   106  LYS106      0.0035
    164  CD        20.3960   -4.7020   22.5500 C.3   106  LYS106      0.0206
    165  CE        19.8500   -5.8500   21.7280 C.3   106  LYS106      0.1093
    166  NZ        20.7250   -6.0770   20.5370 N.3   106  LYS106     -0.1314
    167  N          3.0780    2.3640   21.6540 N.3   141  ASP141     -0.1239
    168  CA         3.8900    1.2800   22.2080 C.3   141  ASP141      0.1674
    169  C          5.3250    1.7160   22.4950 C.2   141  ASP141      0.2266
    170  O          6.2890    0.9800   22.2180 O.2   141  ASP141     -0.2867
    171  CB         3.8770    0.0580   21.2720 C.3   141  ASP141      0.1410
    172  CG         4.2290   -1.2430   22.0040 C.2   141  ASP141      0.3668
    173  OD1        4.1950   -1.2630   23.2650 O.co2 141  ASP141     -0.2456
    174  OD2        4.5310   -2.2480   21.3230 O.co2 141  ASP141     -0.2456
    175  N          8.5120    2.1200   24.5960 N.3   143  LYS143     -0.1245
    176  CA         9.1660    1.2870   25.6000 C.3   143  LYS143      0.1561
    177  C         10.6530    1.2420   25.2450 C.2   143  LYS143      0.2260
    178  O         11.0270    1.5900   24.1120 O.2   143  LYS143     -0.2867
    179  CB         8.5580   -0.1200   25.6390 C.3   143  LYS143      0.0271
    180  CG         8.7400   -0.8960   24.3490 C.3   143  LYS143      0.0035
    181  CD         7.8870   -2.1430   24.3810 C.3   143  LYS143      0.0206
    182  CE         8.0080   -2.9500   23.1140 C.3   143  LYS143      0.1093
    183  NZ         7.0920   -4.1270   23.1970 N.3   143  LYS143     -0.1314
    184  N         12.7790   -0.9300   24.2420 N.3   145  SER145     -0.1202
    185  CA        13.2940   -1.6640   23.0770 C.3   145  SER145      0.2020
    186  C         12.8580   -0.9960   21.7640 C.2   145  SER145      0.2618
    187  O         13.3640   -1.3350   20.6880 O.2   145  SER145     -0.2717
    188  CB        12.8720   -3.1520   23.1040 C.3   145  SER145      0.2103
    189  OG        11.4730   -3.3150   23.2520 O.3   145  SER145     -0.2182
    190  N         11.9570   -0.0190   21.8480 N.am  146  ASN146     -0.1974
    191  CA        11.5690    0.7200   20.6450 C.3   146  ASN146      0.1688
    192  C         12.2490    2.0870   20.5760 C.2   146  ASN146      0.2292
    193  O         11.8710    2.9610   19.7930 O.2   146  ASN146     -0.2864
    194  CB        10.0460    0.8690   20.5850 C.3   146  ASN146      0.1181
    195  CG         9.3490   -0.4190   20.1610 C.2   146  ASN146      0.2629
    196  OD1        9.9630   -1.2880   19.5390 O.2   146  ASN146     -0.2716
    197  ND2        8.0530   -0.5410   20.4850 N.am  146  ASN146     -0.0877
    198  N         15.8030    3.3820   19.7100 N.3   148  LEU148     -0.1245
    199  CA        17.0700    2.9130   19.1600 C.3   148  LEU148      0.1561
    200  C         18.1460    3.9420   19.3900 C.2   148  LEU148      0.2260
    201  O         17.8530    5.1330   19.4150 O.2   148  LEU148     -0.2867
    202  CB        16.9410    2.6170   17.6650 C.3   148  LEU148      0.0270
    203  CG        15.7760    1.6860   17.3170 C.3   148  LEU148      0.0019
    204  CD1       15.7220    1.3950   15.8080 C.3   148  LEU148      0.0001
    205  CD2       15.8760    0.4130   18.1180 C.3   148  LEU148      0.0001
    206  N         11.2570    3.7180   16.9940 N.3   158  CYS158     -0.1221
    207  CA        10.8610    2.7940   15.9220 C.3   158  CYS158      0.1808
    208  C          9.5640    2.0580   16.2290 C.2   158  CYS158      0.2601
    209  O          8.8980    2.3080   17.2440 O.2   158  CYS158     -0.2717
    210  CB        11.9700    1.7720   15.6490 C.3   158  CYS158      0.0970
    211  SG        12.3250    0.6080   17.0180 S.3   158  CYS158     -0.0800
    212  N          9.2470    1.1330   15.3360 N.am  159  ASP159     -0.1973
    213  CA         8.0490    0.3070   15.3730 C.3   159  ASP159      0.1709
    214  C          6.7720    1.1330   15.4600 C.2   159  ASP159      0.2293
    215  O          6.1830    1.2980   16.5310 O.2   159  ASP159     -0.2864
    216  CB         8.1000   -0.7010   16.5250 C.3   159  ASP159      0.1436
    217  CG         7.0010   -1.7470   16.4090 C.2   159  ASP159      0.3671
    218  OD1        6.3360   -1.7360   15.3560 O.co2 159  ASP159     -0.2456
    219  OD2        6.7870   -2.5580   17.3390 O.co2 159  ASP159     -0.2456
@<TRIPOS>BOND
     1    83    84    1
     2    83    82    1
     3    88    87    2
     4    82    81    1
     5    81    80    1
     6   101   102    1
     7    70    69    2
     8    87    86    1
     9   116   115   ar
    10    80    77    1
    11    65    64    2
    12    77    76    1
    13    77    78    1
    14    85    86    1
    15    85    78   am
    16   102   103    1
    17   102   105    1
    18   104   103    2
    19    69    76   am
    20    69    68    1
    21    89    86    1
    22    89    91    1
    23    89    90    1
    24   103   110   am
    25    67    68    1
    26    64    63    1
    27    78    79    2
    28    62    63    1
    29   115   117   ar
    30   115   114    1
    31   110   111    1
    32    92    90    1
    33   106   105    1
    34   106   107    1
    35    68    71    1
    36   111   114    1
    37   111   112    1
    38    63    66    1
    39    71    72    1
    40   118   112   am
    41   118   119    1
    42   112   113    2
    43   107   109   am
    44   107   108    2
    45    72    73    1
    46    50    49    2
    47   122   119    1
    48   122   123    1
    49    34    33    2
    50    73    74    1
    51    95    96    2
    52    95    94    1
    53   125   123    1
    54   119   120    1
    55    38    40   ar
    56    38    36   ar
    57    40    41   ar
    58    74    75    1
    59    49    48    1
    60    49    55   am
    61    53    52    1
    62    53    54    1
    63    44    45    1
    64    44    43    2
    65    57    56    1
    66    57    58    2
    67   123   124    1
    68    47    48    1
    69    47    45   am
    70    56    55    1
    71    56    59    1
    72    51    52    1
    73    51    48    1
    74    33    43    1
    75    33    32    1
    76    60    59    1
    77    98   100    1
    78    98    97    1
    79    35    36    1
    80    35    32    1
    81    36    37   ar
    82   121   120    2
    83    94    97    1
    84    94    93    1
    85   120   126   am
    86    45    46    2
    87    41    42    1
    88    41    39   ar
    89    99    97    1
    90    59    61    1
    91    32    31    1
    92   133   132    1
    93     8     6    1
    94    37    39   ar
    95   126   127    1
    96     6     5    1
    97     7     5    1
    98    31    28   am
    99     1     2    1
   100   132   131    1
   101   142   140   ar
   102     5     2    1
   103   127   128    1
   104   127   130    1
   105   131   130    1
   106    12    11    2
   107    29    28    2
   108    28    27    1
   109   129   128    2
   110     2     3    1
   111   212   213    1
   112   212   208   am
   113   128   134   am
   114   218   217   ar
   115   213   214    1
   116   213   216    1
   117   214   215    2
   118   140   141   ar
   119   140   139    1
   120   210   207    1
   121   210   211    1
   122     9     3   am
   123     9    10    1
   124    11    10    1
   125    11    13   am
   126   204   203    1
   127    25    24    2
   128    22    23    1
   129    22    15   am
   130    14    17    1
   131    14    13    1
   132    14    15    1
   133   207   208    1
   134   207   206    1
   135     3     4    2
   136    24    23    1
   137    24    26   am
   138   134   135    1
   139   208   209    2
   140    17    18    1
   141    27    26    1
   142    27    30    1
   143   217   216    1
   144   217   219   ar
   145    15    16    2
   146   139   138    1
   147   135   138    1
   148   135   136    1
   149    20    19   ar
   150   203   202    1
   151   203   205    1
   152   202   199    1
   153    18    19    1
   154   136   137    2
   155   136   143   am
   156    19    21   ar
   157   143   144    1
   158   199   200    1
   159   199   198    1
   160   200   201    2
   161   196   195    2
   162   146   145    2
   163   193   192    2
   164   144   145    1
   165   144   147    1
   166   195   197   am
   167   195   194    1
   168   145   150   am
   169   166   165    1
   170   192   191    1
   171   194   191    1
   172   191   190    1
   173   187   186    2
   174   147   149    1
   175   147   148    1
   176   171   172    1
   177   171   168    1
   178   174   172   ar
   179   150   151    1
   180   157   155   ar
   181   154   151    1
   182   154   155    1
   183   167   168    1
   184   165   164    1
   185   186   190   am
   186   186   185    1
   187   151   152    1
   188   172   173   ar
   189   168   169    1
   190   170   169    2
   191   155   156   ar
   192   164   163    1
   193   185   188    1
   194   185   184    1
   195   188   189    1
   196   182   183    1
   197   182   181    1
   198   152   153    2
   199   163   162    1
   200   178   177    2
   201   180   181    1
   202   180   179    1
   203   175   176    1
   204   162   159    1
   205   177   176    1
   206   176   179    1
   207   158   159    1
   208   159   160    1
   209   160   161    2
