@<TRIPOS>MOLECULE
tmp/5bvfA00.pdb
 219 209 0 0 0
SMALL
GASTEIGER

@<TRIPOS>ATOM
      1  N         18.7140  -10.1810   14.3090 N.3    23  ILE23      -0.1231
      2  CA        18.6720   -9.2170   15.3990 C.3    23  ILE23       0.1692
      3  C         17.6020   -9.6090   16.3990 C.2    23  ILE23       0.2593
      4  O         17.8910   -9.9380   17.5550 O.2    23  ILE23      -0.2718
      5  CB        18.3840   -7.8040   14.9040 C.3    23  ILE23       0.0266
      6  CG1       19.5750   -7.2410   14.1260 C.3    23  ILE23       0.0019
      7  CG2       18.0270   -6.8950   16.0910 C.3    23  ILE23       0.0020
      8  CD1       19.2110   -5.9420   13.3940 C.3    23  ILE23       0.0001
      9  N         16.3530   -9.5940   15.9500 N.am   24  GLY24      -0.1942
     10  CA        15.2550   -9.8600   16.8560 C.3    24  GLY24       0.2014
     11  C         14.0010  -10.2340   16.1020 C.2    24  GLY24       0.2639
     12  O         14.0320  -10.4660   14.8970 O.2    24  GLY24      -0.2714
     13  N         12.8850  -10.2910   16.8110 N.am   25  GLU25      -0.1963
     14  CA        11.6600  -10.6740   16.1520 C.3    25  GLU25       0.1733
     15  C         10.4760   -9.8730   16.6370 C.2    25  GLU25       0.2617
     16  O         10.5670   -9.1140   17.6040 O.2    25  GLU25      -0.2715
     17  CB        11.4030  -12.1600   16.3530 C.3    25  GLU25       0.0429
     18  CG        11.2290  -12.5530   17.7990 C.3    25  GLU25       0.1163
     19  CD        10.9870  -14.0380   17.9500 C.2    25  GLU25       0.3649
     20  OE1       11.8500  -14.8170   17.4910 O.co2  25  GLU25      -0.2457
     21  OE2        9.9390  -14.4260   18.5170 O.co2  25  GLU25      -0.2457
     22  N          9.3690  -10.0370   15.9250 N.am   26  GLY26      -0.1940
     23  CA         8.1030   -9.4770   16.3290 C.3    26  GLY26       0.2014
     24  C          7.0750  -10.5860   16.3030 C.2    26  GLY26       0.2639
     25  O          7.4040  -11.7650   16.1070 O.2    26  GLY26      -0.2714
     26  N          5.8210  -10.2000   16.4810 N.am   27  ALA27      -0.1963
     27  CA         4.7320  -11.1450   16.6490 C.3    27  ALA27       0.1728
     28  C          4.5010  -11.9390   15.3660 C.2    27  ALA27       0.2616
     29  O          4.0480  -13.0840   15.3970 O.2    27  ALA27      -0.2715
     30  CB         3.4540  -10.3980   17.0760 C.3    27  ALA27       0.0334
     31  N          4.8380  -11.3370   14.2330 N.am   28  TYR28      -0.1960
     32  CA         4.6760  -12.0110   12.9480 C.3    28  TYR28       0.1771
     33  C          5.7890  -11.5990   11.9960 C.2    28  TYR28       0.2620
     34  O          5.5480  -11.2730   10.8390 O.2    28  TYR28      -0.2715
     35  CB         3.2930  -11.7220   12.3390 C.3    28  TYR28       0.0574
     36  CG         2.8540  -10.2740   12.4160 C.ar   28  TYR28      -0.0198
     37  CD1        2.2900   -9.7480   13.5770 C.ar   28  TYR28      -0.0009
     38  CD2        3.0040   -9.4400   11.3280 C.ar   28  TYR28      -0.0009
     39  CE1        1.9020   -8.4080   13.6410 C.ar   28  TYR28       0.0417
     40  CE2        2.6230   -8.1270   11.3770 C.ar   28  TYR28       0.0417
     41  CZ         2.0760   -7.6100   12.5270 C.ar   28  TYR28       0.1957
     42  OH         1.7090   -6.2850   12.5200 O.3    28  TYR28      -0.2866
     43  N          7.0160  -11.6210   12.5010 N.am   29  GLY29      -0.1940
     44  CA         8.1700  -11.3590   11.6740 C.3    29  GLY29       0.2014
     45  C          9.4830  -11.3840   12.4290 C.2    29  GLY29       0.2639
     46  O          9.5540  -11.8140   13.5840 O.2    29  GLY29      -0.2714
     47  N         10.5100  -10.8770   11.7630 N.am   30  MET30      -0.1963
     48  CA        11.8880  -10.9840   12.2110 C.3    30  MET30       0.1736
     49  C         12.6590   -9.7640   11.7000 C.2    30  MET30       0.2616
     50  O         12.3490   -9.2300   10.6290 O.2    30  MET30      -0.2715
     51  CB        12.5050  -12.2880   11.6840 C.3    30  MET30       0.0427
     52  CG        13.9430  -12.5790   12.0870 C.3    30  MET30       0.0599
     53  SD        14.6210  -13.9750   11.1380 S.3    30  MET30      -0.1393
     54  CE        13.5130  -15.2620   11.6750 C.3    30  MET30       0.0692
     55  N         13.6600   -9.3290   12.4550 N.am   31  VAL31      -0.1977
     56  CA        14.5330   -8.2620   11.9980 C.3    31  VAL31       0.1596
     57  C         15.9460   -8.7860   11.9130 C.2    31  VAL31       0.2287
     58  O         16.4200   -9.4560   12.8260 O.2    31  VAL31      -0.2864
     59  CB        14.5290   -7.0480   12.9360 C.3    31  VAL31       0.0276
     60  CG1       15.1500   -5.8370   12.2340 C.3    31  VAL31       0.0022
     61  CG2       13.1180   -6.7630   13.4110 C.3    31  VAL31       0.0022
     62  N         19.0880   -2.2510    8.5700 N.3    44  ALA44      -0.1245
     63  CA        18.1750   -3.1610    9.2210 C.3    44  ALA44       0.1562
     64  C         17.0760   -3.5340    8.2480 C.2    44  ALA44       0.2260
     65  O         16.6140   -2.7030    7.4560 O.2    44  ALA44      -0.2867
     66  CB        17.5800   -2.5510   10.4540 C.3    44  ALA44       0.0290
     67  N         13.3050   -5.4230    8.3070 N.3    46  LYS46      -0.1231
     68  CA        12.2060   -5.9940    9.0600 C.3    46  LYS46       0.1693
     69  C         11.2930   -6.8050    8.1400 C.2    46  LYS46       0.2592
     70  O         10.6170   -6.2530    7.2710 O.2    46  LYS46      -0.2718
     71  CB        11.4230   -4.8750    9.7530 C.3    46  LYS46       0.0285
     72  CG        10.1210   -5.2680   10.4090 C.3    46  LYS46       0.0035
     73  CD         9.5260   -4.0140   11.0420 C.3    46  LYS46       0.0206
     74  CE         8.1560   -4.2410   11.6440 C.3    46  LYS46       0.1093
     75  NZ         7.8020   -3.1070   12.5480 N.3    46  LYS46      -0.1314
     76  N         11.2750   -8.1110    8.3610 N.am   47  LYS47      -0.1966
     77  CA        10.3880   -9.0040    7.6390 C.3    47  LYS47       0.1728
     78  C          9.0530   -9.0750    8.3720 C.2    47  LYS47       0.2616
     79  O          9.0210   -9.2790    9.5650 O.2    47  LYS47      -0.2715
     80  CB        10.9990  -10.4010    7.5230 C.3    47  LYS47       0.0311
     81  CG        10.1480  -11.4030    6.7370 C.3    47  LYS47       0.0038
     82  CD        10.6340  -12.8210    6.9870 C.3    47  LYS47       0.0206
     83  CE         9.8160  -13.8260    6.1820 C.3    47  LYS47       0.1093
     84  NZ        10.1960  -15.2280    6.5000 N.3    47  LYS47      -0.1314
     85  N          7.9640   -8.9080    7.6370 N.am   48  ILE48      -0.1977
     86  CA         6.6360   -8.9620    8.1980 C.3    48  ILE48       0.1596
     87  C          5.8220   -9.9890    7.4200 C.2    48  ILE48       0.2287
     88  O          5.8680  -10.0140    6.1870 O.2    48  ILE48      -0.2864
     89  CB         5.9570   -7.5800    8.1260 C.3    48  ILE48       0.0276
     90  CG1        6.8450   -6.5200    8.7810 C.3    48  ILE48       0.0022
     91  CG2        4.6040   -7.6160    8.7790 C.3    48  ILE48       0.0022
     92  CD1        6.4020   -5.1070    8.4820 C.3    48  ILE48       0.0001
     93  N         12.6890    6.5370   13.0990 N.3    76  ILE76      -0.1245
     94  CA        13.1340    5.5910   12.0830 C.3    76  ILE76       0.1561
     95  C         12.3240    5.7980   10.8080 C.2    76  ILE76       0.2260
     96  O         11.1130    6.0440   10.8510 O.2    76  ILE76      -0.2867
     97  CB        13.0040    4.1120   12.5610 C.3    76  ILE76       0.0252
     98  CG1       13.9930    3.2300   11.8030 C.3    76  ILE76       0.0019
     99  CG2       11.5350    3.5800   12.4450 C.3    76  ILE76       0.0019
    100  CD1       15.4410    3.6250   12.0430 C.3    76  ILE76       0.0001
    101  N         15.3970   -0.3290    6.8200 N.3    97  GLN97      -0.1231
    102  CA        15.5490    0.8510    7.6660 C.3    97  GLN97       0.1698
    103  C         17.0180    1.0950    8.0000 C.2    97  GLN97       0.2592
    104  O         17.8260    0.1790    7.9070 O.2    97  GLN97      -0.2718
    105  CB        14.7440    0.6820    8.9710 C.3    97  GLN97       0.0381
    106  CG        13.2700    0.2900    8.7510 C.3    97  GLN97       0.0905
    107  CD        12.4480    0.3830   10.0260 C.2    97  GLN97       0.2608
    108  OE1       12.5680   -0.4500   10.9260 O.2    97  GLN97      -0.2717
    109  NE2       11.6070    1.4010   10.1070 N.am   97  GLN97      -0.0878
    110  N         17.3590    2.3220    8.3950 N.am   98  ASP98      -0.1960
    111  CA        18.6920    2.5990    8.9490 C.3    98  ASP98       0.1840
    112  C         19.0070    1.6220   10.0640 C.2    98  ASP98       0.2622
    113  O         18.1610    1.3620   10.9170 O.2    98  ASP98      -0.2715
    114  CB        18.7860    4.0230    9.4940 C.3    98  ASP98       0.1450
    115  CG        18.6480    5.0730    8.4140 C.2    98  ASP98       0.3671
    116  OD1       18.9780    4.7850    7.2540 O.co2  98  ASP98      -0.2456
    117  OD2       18.2040    6.1980    8.7330 O.co2  98  ASP98      -0.2456
    118  N         20.2170    1.0670   10.0580 N.am   99  LEU99      -0.1963
    119  CA        20.6060    0.1720   11.1290 C.3    99  LEU99       0.1728
    120  C         21.1500    0.9910   12.2860 C.2    99  LEU99       0.2616
    121  O         22.0520    1.8000   12.1120 O.2    99  LEU99      -0.2715
    122  CB        21.6460   -0.8500   10.6520 C.3    99  LEU99       0.0311
    123  CG        22.1600   -1.8290   11.7100 C.3    99  LEU99       0.0022
    124  CD1       21.0580   -2.7390   12.2240 C.3    99  LEU99       0.0001
    125  CD2       23.3530   -2.6210   11.1720 C.3    99  LEU99       0.0001
    126  N         20.5780    0.7890   13.4610 N.am  100  MET100     -0.1963
    127  CA        21.0450    1.4660   14.6670 C.3   100  MET100      0.1736
    128  C         21.8990    0.4870   15.4560 C.2   100  MET100      0.2616
    129  O         21.7370   -0.7180   15.3030 O.2   100  MET100     -0.2715
    130  CB        19.8580    1.9630   15.4800 C.3   100  MET100      0.0427
    131  CG        18.9430    2.8960   14.6620 C.3   100  MET100      0.0599
    132  SD        19.7550    4.4720   14.3430 S.3   100  MET100     -0.1393
    133  CE        19.4020    5.3290   15.8960 C.3   100  MET100      0.0692
    134  N         22.8060    0.9970   16.2770 N.am  101  GLU101     -0.1963
    135  CA        23.7560    0.1480   16.9930 C.3   101  GLU101      0.1733
    136  C         23.1190   -0.6470   18.1280 C.2   101  GLU101      0.2617
    137  O         23.4050   -1.8260   18.3190 O.2   101  GLU101     -0.2715
    138  CB        24.9070    0.9950   17.5470 C.3   101  GLU101      0.0429
    139  CG        26.0380    0.1770   18.1640 C.3   101  GLU101      0.1163
    140  CD        27.0880   -0.2450   17.1410 C.2   101  GLU101      0.3649
    141  OE1       27.4040    0.5580   16.2340 O.co2 101  GLU101     -0.2457
    142  OE2       27.5980   -1.3830   17.2430 O.co2 101  GLU101     -0.2457
    143  N         22.2510   -0.0070   18.8930 N.am  102  THR102     -0.1937
    144  CA        21.6940   -0.6660   20.0610 C.3   102  THR102      0.2028
    145  C         20.3220   -0.0500   20.3660 C.2   102  THR102      0.2642
    146  O         19.7840    0.7120   19.5440 O.2   102  THR102     -0.2714
    147  CB        22.6810   -0.5750   21.2850 C.3   102  THR102      0.1808
    148  OG1       22.2420   -1.4490   22.3250 O.3   102  THR102     -0.2208
    149  CG2       22.7730    0.8300   21.8270 C.3   102  THR102      0.0379
    150  N         19.7290   -0.4200   21.4900 N.am  103  ASP103     -0.1971
    151  CA        18.5050    0.2380   21.9460 C.3   103  ASP103      0.1709
    152  C         18.5570    0.5010   23.4480 C.2   103  ASP103      0.2293
    153  O         19.4720    0.0500   24.1400 O.2   103  ASP103     -0.2864
    154  CB        17.2640   -0.5870   21.5980 C.3   103  ASP103      0.1436
    155  CG        17.3100   -1.9760   22.1730 C.2   103  ASP103      0.3671
    156  OD1       17.2150   -2.1050   23.4140 O.co2 103  ASP103     -0.2456
    157  OD2       17.4380   -2.9480   21.3830 O.co2 103  ASP103     -0.2456
    158  N         18.6480   -2.5980   25.9460 N.3   106  LYS106     -0.1245
    159  CA        19.9860   -3.1740   26.0650 C.3   106  LYS106      0.1561
    160  C         20.9100   -2.2740   26.8590 C.2   106  LYS106      0.2260
    161  O         21.6990   -2.7400   27.6790 O.2   106  LYS106     -0.2867
    162  CB        20.5960   -3.4240   24.6840 C.3   106  LYS106      0.0271
    163  CG        19.9640   -4.5770   23.9160 C.3   106  LYS106      0.0035
    164  CD        21.0250   -5.4860   23.3000 C.3   106  LYS106      0.0206
    165  CE        21.3900   -5.1010   21.8690 C.3   106  LYS106      0.1093
    166  NZ        20.7150   -5.9790   20.8570 N.3   106  LYS106     -0.1314
    167  N          3.1730    2.3000   21.6850 N.3   141  ASP141     -0.1239
    168  CA         4.0300    1.1940   22.1360 C.3   141  ASP141      0.1674
    169  C          5.4390    1.6960   22.4450 C.2   141  ASP141      0.2266
    170  O          6.4400    1.0580   22.1140 O.2   141  ASP141     -0.2867
    171  CB         4.0710    0.0770   21.0730 C.3   141  ASP141      0.1410
    172  CG         4.5760   -1.2560   21.6260 C.2   141  ASP141      0.3668
    173  OD1        4.6030   -1.4330   22.8640 O.co2 141  ASP141     -0.2456
    174  OD2        4.9380   -2.1330   20.8170 O.co2 141  ASP141     -0.2456
    175  N          8.5630    2.0560   24.5070 N.3   143  LYS143     -0.1245
    176  CA         9.2190    1.2720   25.5360 C.3   143  LYS143      0.1561
    177  C         10.6820    1.2270   25.1650 C.2   143  LYS143      0.2260
    178  O         11.0210    1.5280   24.0140 O.2   143  LYS143     -0.2867
    179  CB         8.6030   -0.1230   25.6330 C.3   143  LYS143      0.0271
    180  CG         8.6460   -0.8850   24.3410 C.3   143  LYS143      0.0035
    181  CD         7.9520   -2.2340   24.5080 C.3   143  LYS143      0.0206
    182  CE         8.0140   -3.0270   23.2200 C.3   143  LYS143      0.1093
    183  NZ         7.2890   -4.3110   23.3720 N.3   143  LYS143     -0.1314
    184  N         12.8980   -0.9300   24.2970 N.3   145  SER145     -0.1202
    185  CA        13.4100   -1.6870   23.1560 C.3   145  SER145      0.2020
    186  C         12.9910   -1.0650   21.8170 C.2   145  SER145      0.2618
    187  O         13.5360   -1.4300   20.7690 O.2   145  SER145     -0.2717
    188  CB        12.9570   -3.1530   23.2190 C.3   145  SER145      0.2103
    189  OG        11.5460   -3.2500   23.3390 O.3   145  SER145     -0.2182
    190  N         12.0350   -0.1340   21.8470 N.am  146  ASN146     -0.1974
    191  CA        11.6300    0.5670   20.6290 C.3   146  ASN146      0.1688
    192  C         12.2580    1.9440   20.5460 C.2   146  ASN146      0.2292
    193  O         11.8260    2.7830   19.7700 O.2   146  ASN146     -0.2864
    194  CB        10.0970    0.6800   20.5370 C.3   146  ASN146      0.1181
    195  CG         9.4460   -0.6450   20.1810 C.2   146  ASN146      0.2629
    196  OD1       10.1040   -1.5270   19.6360 O.2   146  ASN146     -0.2716
    197  ND2        8.1660   -0.7950   20.4960 N.am  146  ASN146     -0.0877
    198  N         15.8190    3.3420   19.6280 N.3   148  LEU148     -0.1245
    199  CA        17.0870    2.8780   19.0810 C.3   148  LEU148      0.1561
    200  C         18.1630    3.9230   19.2710 C.2   148  LEU148      0.2260
    201  O         17.8840    5.1100   19.1740 O.2   148  LEU148     -0.2867
    202  CB        16.9340    2.5360   17.6010 C.3   148  LEU148      0.0270
    203  CG        15.7840    1.5670   17.3110 C.3   148  LEU148      0.0019
    204  CD1       15.7370    1.2500   15.8390 C.3   148  LEU148      0.0001
    205  CD2       15.8900    0.2720   18.1200 C.3   148  LEU148      0.0001
    206  N         11.2890    3.6740   16.9290 N.3   158  CYS158     -0.1221
    207  CA        10.9090    2.7170   15.8800 C.3   158  CYS158      0.1808
    208  C          9.6140    1.9870   16.1850 C.2   158  CYS158      0.2601
    209  O          8.9260    2.2940   17.1550 O.2   158  CYS158     -0.2717
    210  CB        12.0240    1.6860   15.6500 C.3   158  CYS158      0.0970
    211  SG        12.3050    0.4630   16.9870 S.3   158  CYS158     -0.0800
    212  N          9.3130    0.9990   15.3440 N.am  159  ASP159     -0.1973
    213  CA         8.1720    0.1040   15.5020 C.3   159  ASP159      0.1709
    214  C          6.8670    0.8630   15.6080 C.2   159  ASP159      0.2293
    215  O          6.3130    1.0170   16.6950 O.2   159  ASP159     -0.2864
    216  CB         8.3460   -0.8000   16.7290 C.3   159  ASP159      0.1436
    217  CG         7.2840   -1.8860   16.8080 C.2   159  ASP159      0.3671
    218  OD1        6.5980   -2.1240   15.7940 O.co2 159  ASP159     -0.2456
    219  OD2        7.1400   -2.5170   17.8770 O.co2 159  ASP159     -0.2456
@<TRIPOS>BOND
     1    83    84    1
     2    83    82    1
     3    88    87    2
     4    81    82    1
     5    81    80    1
     6   101   102    1
     7   116   115   ar
     8    70    69    2
     9    87    86    1
    10    65    64    2
    11    80    77    1
    12    85    86    1
    13    85    78   am
    14    77    76    1
    15    77    78    1
    16   102   103    1
    17   102   105    1
    18   104   103    2
    19   103   110   am
    20    89    86    1
    21    89    91    1
    22    89    90    1
    23    69    76   am
    24    69    68    1
    25    64    63    1
    26    67    68    1
    27    78    79    2
    28   110   111    1
    29   115   117   ar
    30   115   114    1
    31    92    90    1
    32    62    63    1
    33   106   105    1
    34   106   107    1
    35   111   114    1
    36   111   112    1
    37    68    71    1
    38    63    66    1
    39    71    72    1
    40   107   109   am
    41   107   108    2
    42   118   112   am
    43   118   119    1
    44   112   113    2
    45    72    73    1
    46    50    49    2
    47   122   119    1
    48   122   123    1
    49    95    96    2
    50    95    94    1
    51    34    33    2
    52    73    74    1
    53   119   120    1
    54    53    54    1
    55    53    52    1
    56   125   123    1
    57    38    40   ar
    58    38    36   ar
    59    40    41   ar
    60    74    75    1
    61    44    45    1
    62    44    43    1
    63    51    52    1
    64    51    48    1
    65    49    48    1
    66    49    55   am
    67   123   124    1
    68    47    48    1
    69    47    45   am
    70    98   100    1
    71    98    97    1
    72    57    56    1
    73    57    58    2
    74    33    43   am
    75    33    32    1
    76    56    55    1
    77    56    59    1
    78    94    97    1
    79    94    93    1
    80   121   120    2
    81    60    59    1
    82   120   126   am
    83    35    36    1
    84    35    32    1
    85    36    37   ar
    86    45    46    2
    87    99    97    1
    88    42    41    1
    89    41    39   ar
    90    59    61    1
    91    32    31    1
    92     8     6    1
    93   126   127    1
    94    37    39   ar
    95     6     5    1
    96    31    28   am
    97     1     2    1
    98   132   131    1
    99   132   133    1
   100   131   130    1
   101   127   128    1
   102   127   130    1
   103    12    11    2
   104     5     2    1
   105     5     7    1
   106   129   128    2
   107   212   213    1
   108   212   208   am
   109    28    29    2
   110    28    27    1
   111     2     3    1
   112   128   134   am
   113   213   214    1
   114   213   216    1
   115   214   215    2
   116   210   207    1
   117   210   211    1
   118   218   217   ar
   119   204   203    1
   120   207   208    1
   121   207   206    1
   122    22    23    1
   123    22    15   am
   124     9     3   am
   125     9    10    1
   126    11    13   am
   127    11    10    1
   128    25    24    2
   129    14    17    1
   130    14    15    1
   131    14    13    1
   132   208   209    2
   133   141   140   ar
   134   134   135    1
   135    24    23    1
   136    24    26   am
   137    17    18    1
   138     3     4    2
   139    26    27    1
   140    15    16    2
   141    27    30    1
   142   216   217    1
   143   217   219   ar
   144   135   138    1
   145   135   136    1
   146   140   142   ar
   147   140   139    1
   148   203   202    1
   149   203   205    1
   150    20    19   ar
   151   138   139    1
   152   202   199    1
   153    18    19    1
   154    19    21   ar
   155   136   137    2
   156   136   143   am
   157   143   144    1
   158   199   200    1
   159   199   198    1
   160   201   200    2
   161   146   145    2
   162   196   195    2
   163   193   192    2
   164   144   145    1
   165   144   147    1
   166   195   197   am
   167   195   194    1
   168   145   150   am
   169   194   191    1
   170   192   191    1
   171   191   190    1
   172   187   186    2
   173   174   172   ar
   174   166   165    1
   175   171   172    1
   176   171   168    1
   177   147   149    1
   178   147   148    1
   179   157   155   ar
   180   150   151    1
   181   154   151    1
   182   154   155    1
   183   172   173   ar
   184   167   168    1
   185   186   190   am
   186   186   185    1
   187   165   164    1
   188   151   152    1
   189   170   169    2
   190   168   169    1
   191   155   156   ar
   192   185   188    1
   193   185   184    1
   194   188   189    1
   195   182   183    1
   196   182   181    1
   197   164   163    1
   198   152   153    2
   199   163   162    1
   200   178   177    2
   201   180   181    1
   202   180   179    1
   203   175   176    1
   204   162   159    1
   205   177   176    1
   206   176   179    1
   207   158   159    1
   208   159   160    1
   209   160   161    2
