@<TRIPOS>MOLECULE
tmp/5bvkA00.pdb
 154 143 0 0 0
SMALL
GASTEIGER

@<TRIPOS>ATOM
      1  N         20.5800   38.3140   44.5750 N.3    21  VAL21      -0.1245
      2  CA        20.3330   39.1290   43.3710 C.3    21  VAL21       0.1561
      3  C         19.3150   40.2680   43.5880 C.2    21  VAL21       0.2260
      4  O         18.1910   40.0530   44.0740 O.2    21  VAL21      -0.2867
      5  CB        19.9730   38.2820   42.1000 C.3    21  VAL21       0.0252
      6  CG1       19.7580   39.1680   40.8810 C.3    21  VAL21       0.0019
      7  CG2       21.0620   37.2500   41.7710 C.3    21  VAL21       0.0019
      8  N         20.4980   43.5470   36.7020 N.3    34  ALA34      -0.1245
      9  CA        20.4360   42.5980   37.8110 C.3    34  ALA34       0.1562
     10  C         21.8270   42.4840   38.4330 C.2    34  ALA34       0.2260
     11  O         22.8260   42.2830   37.7380 O.2    34  ALA34      -0.2867
     12  CB        19.9260   41.2220   37.3510 C.3    34  ALA34       0.0290
     13  N         24.1750   40.6920   41.3740 N.3    36  LYS36      -0.1245
     14  CA        24.4420   39.6270   42.3240 C.3    36  LYS36       0.1561
     15  C         25.5230   40.1220   43.2790 C.2    36  LYS36       0.2260
     16  O         26.6130   40.5210   42.8540 O.2    36  LYS36      -0.2867
     17  CB        24.8630   38.3390   41.5950 C.3    36  LYS36       0.0271
     18  CG        25.3140   37.2230   42.5330 C.3    36  LYS36       0.0035
     19  CD        25.1350   35.8390   41.9350 C.3    36  LYS36       0.0206
     20  CE        25.5230   34.7410   42.9250 C.3    36  LYS36       0.1093
     21  NZ        25.4700   33.3700   42.3100 N.3    36  LYS36      -0.1314
     22  N         33.1400   32.3200   40.2480 N.3    53  GLU53      -0.1245
     23  CA        31.9820   32.4850   39.3640 C.3    53  GLU53       0.1567
     24  C         32.1890   33.6170   38.3530 C.2    53  GLU53       0.2260
     25  O         31.7760   33.4950   37.2030 O.2    53  GLU53      -0.2867
     26  CB        30.6800   32.6980   40.1510 C.3    53  GLU53       0.0388
     27  CG        29.4310   32.3630   39.3460 C.3    53  GLU53       0.1160
     28  CD        28.1310   32.8420   39.9860 C.2    53  GLU53       0.3649
     29  OE1       27.9350   32.7060   41.2110 O.co2  53  GLU53      -0.2457
     30  OE2       27.2760   33.3700   39.2520 O.co2  53  GLU53      -0.2457
     31  N         34.4200   32.0840   35.6630 N.3    56  ILE56      -0.1231
     32  CA        33.6660   31.1580   34.8020 C.3    56  ILE56       0.1692
     33  C         32.8090   31.9690   33.8330 C.2    56  ILE56       0.2591
     34  O         32.8150   31.7180   32.6280 O.2    56  ILE56      -0.2718
     35  CB        32.7940   30.1620   35.6330 C.3    56  ILE56       0.0266
     36  CG1       33.6680   29.1940   36.4520 C.3    56  ILE56       0.0019
     37  CG2       31.8480   29.3780   34.7200 C.3    56  ILE56       0.0020
     38  CD1       32.9390   28.5210   37.5990 C.3    56  ILE56       0.0001
     39  N         32.0810   32.9370   34.3770 N.am   57  MET57      -0.1979
     40  CA        31.1430   33.7360   33.6100 C.3    57  MET57       0.1605
     41  C         31.7700   34.6550   32.5790 C.2    57  MET57       0.2287
     42  O         31.1740   34.8730   31.5350 O.2    57  MET57      -0.2864
     43  CB        30.2380   34.5330   34.5330 C.3    57  MET57       0.0413
     44  CG        28.9920   33.7680   34.8940 C.3    57  MET57       0.0598
     45  SD        27.9080   34.8120   35.8620 S.3    57  MET57      -0.1393
     46  CE        27.1620   35.7930   34.5540 C.3    57  MET57       0.0692
     47  N         31.8760   33.2290   29.0320 N.3    60  LEU60      -0.1245
     48  CA        30.6610   32.8290   28.3460 C.3    60  LEU60       0.1561
     49  C         30.0500   33.9590   27.5240 C.2    60  LEU60       0.2260
     50  O         29.4310   34.8620   28.0790 O.2    60  LEU60      -0.2867
     51  CB        29.6630   32.2120   29.3550 C.3    60  LEU60       0.0270
     52  CG        30.1460   30.9490   30.1110 C.3    60  LEU60       0.0019
     53  CD1       29.0910   30.4030   31.0560 C.3    60  LEU60       0.0001
     54  CD2       30.6250   29.8510   29.1810 C.3    60  LEU60       0.0001
     55  N         23.1630   32.6680   26.2580 N.3    65  ILE65      -0.1231
     56  CA        23.7960   32.4510   27.5520 C.3    65  ILE65       0.1692
     57  C         23.8240   33.7960   28.2770 C.2    65  ILE65       0.2591
     58  O         24.1230   34.8290   27.6800 O.2    65  ILE65      -0.2718
     59  CB        25.2480   31.8870   27.4100 C.3    65  ILE65       0.0266
     60  CG1       25.2940   30.5990   26.5390 C.3    65  ILE65       0.0019
     61  CG2       25.9240   31.6670   28.7840 C.3    65  ILE65       0.0020
     62  CD1       24.5790   29.3770   27.0940 C.3    65  ILE65       0.0001
     63  N         23.5100   33.7640   29.5650 N.am   66  ILE66      -0.1980
     64  CA        23.7050   34.8990   30.4680 C.3    66  ILE66       0.1595
     65  C         25.0750   35.5980   30.2660 C.2    66  ILE66       0.2287
     66  O         26.1310   34.9540   30.1810 O.2    66  ILE66      -0.2864
     67  CB        23.4590   34.4750   31.9490 C.3    66  ILE66       0.0276
     68  CG1       23.1980   35.7060   32.8450 C.3    66  ILE66       0.0022
     69  CG2       24.5370   33.4930   32.4290 C.3    66  ILE66       0.0022
     70  CD1       23.3100   35.4790   34.3420 C.3    66  ILE66       0.0001
     71  N         27.8770   38.5250   31.4960 N.3    68  LEU68      -0.1245
     72  CA        28.4640   39.4260   32.4810 C.3    68  LEU68       0.1561
     73  C         28.6770   40.8110   31.8540 C.2    68  LEU68       0.2260
     74  O         29.4990   40.9590   30.9560 O.2    68  LEU68      -0.2867
     75  CB        29.7870   38.8430   32.9860 C.3    68  LEU68       0.0270
     76  CG        30.4490   39.4120   34.2390 C.3    68  LEU68       0.0019
     77  CD1       29.5480   39.1840   35.4470 C.3    68  LEU68       0.0001
     78  CD2       31.8230   38.7820   34.4450 C.3    68  LEU68       0.0001
     79  N         28.4660   41.2180   40.6800 N.3    80  MET80      -0.1245
     80  CA        28.3540   40.8950   39.2630 C.3    80  MET80       0.1570
     81  C         27.1240   41.5720   38.7280 C.2    80  MET80       0.2261
     82  O         26.0630   41.5320   39.3540 O.2    80  MET80      -0.2867
     83  CB        28.2120   39.3940   39.0580 C.3    80  MET80       0.0387
     84  CG        29.5160   38.6350   39.1250 C.3    80  MET80       0.0595
     85  SD        29.2190   36.8690   38.9190 S.3    80  MET80      -0.1393
     86  CE        28.7440   36.4090   40.5860 C.3    80  MET80       0.0692
     87  N         24.5580   41.9000   35.4580 N.3    82  THR82      -0.1218
     88  CA        24.0630   41.2630   34.2460 C.3    82  THR82       0.1862
     89  C         22.8090   41.9680   33.7410 C.2    82  THR82       0.2287
     90  O         22.3090   42.8630   34.4060 O.2    82  THR82      -0.2866
     91  CB        23.8170   39.7430   34.4340 C.3    82  THR82       0.1770
     92  OG1       23.5410   39.1760   33.1480 O.3    82  THR82      -0.2211
     93  CG2       22.6380   39.4550   35.3650 C.3    82  THR82       0.0375
     94  N         27.9430   26.0320   24.6190 N.3   124  LEU124     -0.1245
     95  CA        28.6260   25.4180   25.7730 C.3   124  LEU124      0.1561
     96  C         29.3990   24.1270   25.4560 C.2   124  LEU124      0.2260
     97  O         30.5300   23.9440   25.9340 O.2   124  LEU124     -0.2867
     98  CB        27.6330   25.1840   26.9130 C.3   124  LEU124      0.0270
     99  CG        26.9620   26.4330   27.5160 C.3   124  LEU124      0.0019
    100  CD1       26.0240   26.0050   28.6280 C.3   124  LEU124      0.0001
    101  CD2       27.9790   27.4700   28.0080 C.3   124  LEU124      0.0001
    102  N         32.2550   22.8230   28.0750 N.3   129  PHE129     -0.1241
    103  CA        31.6740   23.2360   29.3200 C.3   129  PHE129      0.1605
    104  C         30.4580   22.3610   29.5860 C.2   129  PHE129      0.2264
    105  O         29.5180   22.3440   28.7860 O.2   129  PHE129     -0.2867
    106  CB        31.2710   24.7160   29.2570 C.3   129  PHE129      0.0534
    107  CG        30.9540   25.2980   30.5940 C.ar  129  PHE129     -0.0203
    108  CD1       31.9260   25.9790   31.3060 C.ar  129  PHE129     -0.0042
    109  CD2       29.6890   25.1640   31.1400 C.ar  129  PHE129     -0.0042
    110  CE1       31.6390   26.5190   32.5450 C.ar  129  PHE129     -0.0003
    111  CE2       29.3910   25.7010   32.3810 C.ar  129  PHE129     -0.0003
    112  CZ        30.3670   26.3790   33.0840 C.ar  129  PHE129     -0.0000
    113  N         27.2130   21.9120   31.8400 N.3   131  HIS131     -0.1241
    114  CA        26.3350   22.7330   32.6890 C.3   131  HIS131      0.1621
    115  C         25.9880   22.0830   34.0460 C.2   131  HIS131      0.2264
    116  O         26.1760   22.7100   35.0860 O.2   131  HIS131     -0.2867
    117  CB        25.0530   23.1320   31.9480 C.3   131  HIS131      0.0745
    118  CG        24.2340   24.1570   32.6750 C.ar  131  HIS131      0.0817
    119  ND1       23.5240   23.8680   33.8250 N.ar  131  HIS131     -0.2268
    120  CD2       24.0140   25.4690   32.4170 C.ar  131  HIS131      0.1154
    121  CE1       22.9030   24.9590   34.2400 C.ar  131  HIS131      0.1986
    122  NE2       23.1840   25.9430   33.4050 N.ar  131  HIS131     -0.2212
    123  N         20.3130   30.9040   28.9780 N.3   149  ILE149     -0.1231
    124  CA        20.6880   29.9110   29.9690 C.3   149  ILE149      0.1692
    125  C         21.5670   30.5530   31.0360 C.2   149  ILE149      0.2592
    126  O         22.5260   31.2740   30.7280 O.2   149  ILE149     -0.2718
    127  CB        21.4190   28.7160   29.3320 C.3   149  ILE149      0.0266
    128  CG1       20.5350   28.0840   28.2440 C.3   149  ILE149      0.0019
    129  CG2       21.7780   27.6670   30.4050 C.3   149  ILE149      0.0020
    130  CD1       21.2310   26.9940   27.4540 C.3   149  ILE149      0.0001
    131  N         21.2210   30.2760   32.2880 N.am  150  ALA150     -0.1966
    132  CA        22.0140   30.6970   33.4220 C.3   150  ALA150      0.1728
    133  C         22.2640   29.4980   34.3340 C.2   150  ALA150      0.2616
    134  O         21.8670   28.3710   34.0090 O.2   150  ALA150     -0.2715
    135  CB        21.2940   31.8120   34.1610 C.3   150  ALA150      0.0334
    136  N         22.9190   29.7440   35.4650 N.am  151  ASP151     -0.1957
    137  CA        23.0180   28.7660   36.5500 C.3   151  ASP151      0.1840
    138  C         22.8910   29.4830   37.8970 C.2   151  ASP151      0.2622
    139  O         23.8600   30.0460   38.3940 O.2   151  ASP151     -0.2715
    140  CB        24.3470   28.0170   36.4770 C.3   151  ASP151      0.1450
    141  CG        24.3670   26.7600   37.3490 C.2   151  ASP151      0.3671
    142  OD1       23.3120   26.3070   37.8790 O.co2 151  ASP151     -0.2456
    143  OD2       25.4750   26.2200   37.5010 O.co2 151  ASP151     -0.2456
    144  N         21.6970   29.4600   38.4810 N.am  152  PHE152     -0.1974
    145  CA        21.4530   30.2190   39.7130 C.3   152  PHE152      0.1639
    146  C         21.6920   29.3970   40.9470 C.2   152  PHE152      0.2290
    147  O         21.1940   28.2740   41.0490 O.2   152  PHE152     -0.2864
    148  CB        20.0150   30.7390   39.7760 C.3   152  PHE152      0.0560
    149  CG        19.6460   31.6140   38.6370 C.ar  152  PHE152     -0.0200
    150  CD1       18.7810   31.1490   37.6530 C.ar  152  PHE152     -0.0042
    151  CD2       20.1640   32.9130   38.5430 C.ar  152  PHE152     -0.0042
    152  CE1       18.4350   31.9640   36.5870 C.ar  152  PHE152     -0.0003
    153  CE2       19.8230   33.7310   37.4830 C.ar  152  PHE152     -0.0003
    154  CZ        18.9590   33.2520   36.5090 C.ar  152  PHE152     -0.0000
@<TRIPOS>BOND
     1    94    95    1
     2    96    95    1
     3    96    97    2
     4    95    98    1
     5    55    56    1
     6    60    62    1
     7    60    59    1
     8    98    99    1
     9    59    56    1
    10    59    61    1
    11   130   128    1
    12    99   101    1
    13    99   100    1
    14    49    50    2
    15    49    48    1
    16    56    57    1
    17    58    57    2
    18   102   103    1
    19   128   127    1
    20    57    63   am
    21    48    47    1
    22    48    51    1
    23   105   104    2
    24   123   124    1
    25    54    52    1
    26   106   103    1
    27   106   107    1
    28   103   104    1
    29   127   124    1
    30   127   129    1
    31    51    52    1
    32    63    64    1
    33   124   125    1
    34    52    53    1
    35    66    65    2
    36    65    64    1
    37    64    67    1
    38   107   109   ar
    39   107   108   ar
    40   126   125    2
    41    74    73    2
    42   125   131   am
    43   109   111   ar
    44   108   110   ar
    45    71    72    1
    46    42    41    2
    47   113   114    1
    48    73    72    1
    49   117   118    1
    50   117   114    1
    51    67    69    1
    52    67    68    1
    53   131   132    1
    54   111   112   ar
    55   120   118   ar
    56   120   122   ar
    57    72    75    1
    58   110   112   ar
    59    41    40    1
    60    34    33    2
    61   118   119   ar
    62   114   115    1
    63    68    70    1
    64    75    76    1
    65    92    91    1
    66   122   121   ar
    67   132   135    1
    68   132   133    1
    69    40    39    1
    70    40    43    1
    71    89    88    1
    72    89    90    2
    73   119   121   ar
    74    33    39   am
    75    33    32    1
    76   134   133    2
    77   115   116    2
    78    76    78    1
    79    76    77    1
    80    88    91    1
    81    88    87    1
    82   133   136   am
    83    91    93    1
    84    43    44    1
    85    46    45    1
    86    37    35    1
    87    32    35    1
    88    32    31    1
    89    44    45    1
    90   136   137    1
    91    35    36    1
    92    36    38    1
    93   140   137    1
    94   140   141    1
    95   154   152   ar
    96   154   153   ar
    97   137   138    1
    98   152   150   ar
    99     8     9    1
   100    25    24    2
   101   141   143   ar
   102   141   142   ar
   103    12     9    1
   104   153   151   ar
   105   150   149   ar
   106    11    10    2
   107     9    10    1
   108   138   139    2
   109   138   144   am
   110    24    23    1
   111   144   145    1
   112   151   149   ar
   113   149   148    1
   114    81    80    1
   115    81    82    2
   116    85    84    1
   117    85    86    1
   118    83    84    1
   119    83    80    1
   120    30    28   ar
   121    80    79    1
   122    27    28    1
   123    27    26    1
   124    23    26    1
   125    23    22    1
   126   145   148    1
   127   145   146    1
   128    28    29   ar
   129     6     5    1
   130   146   147    2
   131    13    14    1
   132    17    14    1
   133    17    18    1
   134     7     5    1
   135    19    18    1
   136    19    20    1
   137     5     2    1
   138    21    20    1
   139    14    15    1
   140    16    15    2
   141     2     3    1
   142     2     1    1
   143     3     4    2
