@<TRIPOS>MOLECULE
tmp/5bvnA00.pdb
 231 219 0 0 0
SMALL
GASTEIGER

@<TRIPOS>ATOM
      1  N         14.7360   43.6240   42.9690 N.3    13  LEU13      -0.1231
      2  CA        14.1330   42.7320   41.9670 C.3    13  LEU13       0.1693
      3  C         13.8330   41.3710   42.5350 C.2    13  LEU13       0.2592
      4  O         12.7890   40.7780   42.2230 O.2    13  LEU13      -0.2718
      5  CB        14.9800   42.6210   40.6830 C.3    13  LEU13       0.0284
      6  CG        14.9890   43.8610   39.7900 C.3    13  LEU13       0.0019
      7  CD1       16.0280   43.7400   38.6740 C.3    13  LEU13       0.0001
      8  CD2       13.6140   44.1520   39.2440 C.3    13  LEU13       0.0001
      9  N         14.7570   40.8950   43.3580 N.am   14  GLY14      -0.1957
     10  CA        14.6160   39.6790   44.1420 C.3    14  GLY14       0.1869
     11  C         15.7230   39.5700   45.1710 C.2    14  GLY14       0.2309
     12  O         16.3970   40.5690   45.4780 O.2    14  GLY14      -0.2863
     13  N         21.8580   34.7680   44.6250 N.3    17  GLN17      -0.1245
     14  CA        22.7230   33.6940   45.1210 C.3    17  GLN17       0.1566
     15  C         23.5320   34.0740   46.3700 C.2    17  GLN17       0.2260
     16  O         23.5560   33.3040   47.3420 O.2    17  GLN17      -0.2867
     17  CB        23.6480   33.1470   44.0120 C.3    17  GLN17       0.0367
     18  CG        23.0400   31.9920   43.2370 C.3    17  GLN17       0.0905
     19  CD        23.9960   30.8490   42.9730 C.2    17  GLN17       0.2608
     20  OE1       24.4000   30.1200   43.8840 O.2    17  GLN17      -0.2717
     21  NE2       24.3220   30.6190   41.7100 N.am   17  GLN17      -0.0878
     22  N         19.4700   41.4000   44.3140 N.3    21  VAL21      -0.1245
     23  CA        19.4520   42.0710   43.0130 C.3    21  VAL21       0.1561
     24  C         18.5780   43.3260   43.0740 C.2    21  VAL21       0.2260
     25  O         17.4330   43.2970   43.5480 O.2    21  VAL21      -0.2867
     26  CB        19.1080   41.1950   41.7800 C.3    21  VAL21       0.0252
     27  CG1       19.5310   41.8970   40.4870 C.3    21  VAL21       0.0019
     28  CG2       19.7530   39.8210   41.8660 C.3    21  VAL21       0.0019
     29  N         20.4470   45.5350   35.9640 N.3    34  ALA34      -0.1231
     30  CA        20.3090   44.7720   37.1970 C.3    34  ALA34       0.1694
     31  C         21.6550   44.6550   37.8950 C.2    34  ALA34       0.2592
     32  O         22.6870   44.3980   37.2780 O.2    34  ALA34      -0.2718
     33  CB        19.6860   43.3980   36.9420 C.3    34  ALA34       0.0304
     34  N         21.6290   44.8530   39.1900 N.am   35  VAL35      -0.1966
     35  CA        22.8360   44.9200   39.9780 C.3    35  VAL35       0.1727
     36  C         22.7190   43.9230   41.0990 C.2    35  VAL35       0.2616
     37  O         21.8040   44.0160   41.9180 O.2    35  VAL35      -0.2715
     38  CB        23.1550   46.3780   40.4730 C.3    35  VAL35       0.0290
     39  CG1       24.3050   46.3880   41.4890 C.3    35  VAL35       0.0023
     40  CG2       23.4590   47.3170   39.2900 C.3    35  VAL35       0.0023
     41  N         23.6510   42.9640   41.1330 N.am   36  LYS36      -0.1977
     42  CA        23.7180   42.0160   42.2390 C.3    36  LYS36       0.1596
     43  C         24.8310   42.4520   43.1350 C.2    36  LYS36       0.2287
     44  O         25.9800   42.5490   42.7160 O.2    36  LYS36      -0.2864
     45  CB        23.9200   40.5750   41.7540 C.3    36  LYS36       0.0298
     46  CG        23.4410   39.5080   42.7510 C.3    36  LYS36       0.0038
     47  CD        23.6320   38.1480   42.1500 C.3    36  LYS36       0.0206
     48  CE        24.5660   37.2630   42.9190 C.3    36  LYS36       0.1093
     49  NZ        24.5060   35.8760   42.3760 N.3    36  LYS36      -0.1314
     50  N         31.6440   33.5310   39.9870 N.3    53  GLU53      -0.1245
     51  CA        30.4800   33.7740   39.1550 C.3    53  GLU53       0.1567
     52  C         30.7900   34.9360   38.2130 C.2    53  GLU53       0.2260
     53  O         30.4920   34.8420   37.0360 O.2    53  GLU53      -0.2867
     54  CB        29.2440   34.0170   40.0260 C.3    53  GLU53       0.0388
     55  CG        27.9410   34.1010   39.2460 C.3    53  GLU53       0.1160
     56  CD        26.7290   34.5680   40.0280 C.2    53  GLU53       0.3649
     57  OE1       26.8470   34.8740   41.2350 O.co2  53  GLU53      -0.2457
     58  OE2       25.6520   34.6670   39.4090 O.co2  53  GLU53      -0.2457
     59  N         32.9720   33.4190   35.4170 N.3    56  ILE56      -0.1231
     60  CA        32.1890   32.5460   34.5550 C.3    56  ILE56       0.1692
     61  C         31.3550   33.4000   33.5780 C.2    56  ILE56       0.2591
     62  O         31.3470   33.1150   32.3790 O.2    56  ILE56      -0.2718
     63  CB        31.3300   31.5490   35.3940 C.3    56  ILE56       0.0266
     64  CG1       32.2010   30.5350   36.1330 C.3    56  ILE56       0.0019
     65  CG2       30.3090   30.8340   34.5350 C.3    56  ILE56       0.0020
     66  CD1       31.5340   29.9130   37.3420 C.3    56  ILE56       0.0001
     67  N         30.6670   34.4300   34.1020 N.am   57  MET57      -0.1979
     68  CA        29.7270   35.2950   33.3840 C.3    57  MET57       0.1605
     69  C         30.4280   36.2060   32.3680 C.2    57  MET57       0.2287
     70  O         29.8070   36.5790   31.3710 O.2    57  MET57      -0.2864
     71  CB        28.9140   36.1490   34.3690 C.3    57  MET57       0.0413
     72  CG        27.8820   35.3710   35.2000 C.3    57  MET57       0.0598
     73  SD        26.9420   36.4840   36.3170 S.3    57  MET57      -0.1393
     74  CE        25.8820   37.2980   35.1140 C.3    57  MET57       0.0692
     75  N         30.4830   34.8190   28.8190 N.3    60  LEU60      -0.1245
     76  CA        29.2050   34.6190   28.1270 C.3    60  LEU60       0.1561
     77  C         28.7030   35.8910   27.4110 C.2    60  LEU60       0.2260
     78  O         28.2110   36.8330   28.0340 O.2    60  LEU60      -0.2867
     79  CB        28.1450   34.0230   29.0820 C.3    60  LEU60       0.0270
     80  CG        28.6270   33.1050   30.2340 C.3    60  LEU60       0.0019
     81  CD1       27.5430   32.9430   31.3090 C.3    60  LEU60       0.0001
     82  CD2       29.1670   31.7710   29.7240 C.3    60  LEU60       0.0001
     83  N         22.1180   34.7400   26.0710 N.3    65  ILE65      -0.1231
     84  CA        22.7250   34.5840   27.3950 C.3    65  ILE65       0.1692
     85  C         22.7220   35.9150   28.1350 C.2    65  ILE65       0.2591
     86  O         23.0270   36.9370   27.5330 O.2    65  ILE65      -0.2718
     87  CB        24.1550   33.9570   27.3340 C.3    65  ILE65       0.0266
     88  CG1       24.1970   32.7220   26.4010 C.3    65  ILE65       0.0019
     89  CG2       24.6730   33.6080   28.7380 C.3    65  ILE65       0.0020
     90  CD1       23.2030   31.5830   26.7670 C.3    65  ILE65       0.0001
     91  N         22.3720   35.9090   29.4290 N.am   66  ILE66      -0.1980
     92  CA        22.6300   37.0260   30.3490 C.3    66  ILE66       0.1595
     93  C         24.0710   37.6120   30.1570 C.2    66  ILE66       0.2287
     94  O         25.0460   36.8570   30.0650 O.2    66  ILE66      -0.2864
     95  CB        22.3100   36.6210   31.8210 C.3    66  ILE66       0.0276
     96  CG1       22.1210   37.8850   32.7170 C.3    66  ILE66       0.0022
     97  CG2       23.3830   35.6250   32.3740 C.3    66  ILE66       0.0022
     98  CD1       21.5520   37.6500   34.0980 C.3    66  ILE66       0.0001
     99  N         27.9040   43.1330   40.6700 N.3    80  MET80      -0.1245
    100  CA        27.8050   42.5290   39.3340 C.3    80  MET80       0.1570
    101  C         26.7230   43.2800   38.5460 C.2    80  MET80       0.2261
    102  O         25.6580   43.5240   39.0990 O.2    80  MET80      -0.2867
    103  CB        27.3360   41.0630   39.4690 C.3    80  MET80       0.0387
    104  CG        28.3430   40.0580   39.1370 C.3    80  MET80       0.0595
    105  SD        27.5970   38.4120   39.3420 S.3    80  MET80      -0.1393
    106  CE        28.2080   37.9800   40.9130 C.3    80  MET80       0.0692
    107  N         24.3020   43.3940   35.1360 N.3    82  THR82      -0.1203
    108  CA        23.7560   42.7250   33.9690 C.3    82  THR82       0.1994
    109  C         22.6900   43.5650   33.3510 C.2    82  THR82       0.2618
    110  O         22.1840   44.5120   33.9700 O.2    82  THR82      -0.2717
    111  CB        23.2410   41.2960   34.2820 C.3    82  THR82       0.1784
    112  OG1       21.9190   41.3370   34.8840 O.3    82  THR82      -0.2211
    113  CG2       24.2370   40.4660   35.1040 C.3    82  THR82       0.0376
    114  N         22.3270   43.2150   32.1140 N.am   83  ASP83      -0.1959
    115  CA        21.0920   43.7100   31.5090 C.3    83  ASP83       0.1840
    116  C         19.9420   43.4620   32.4840 C.2    83  ASP83       0.2622
    117  O         19.9920   42.5490   33.3230 O.2    83  ASP83      -0.2715
    118  CB        20.7800   43.0040   30.1590 C.3    83  ASP83       0.1450
    119  CG        21.7330   41.8920   29.7440 C.2    83  ASP83       0.3671
    120  OD1       22.2720   41.9670   28.6250 O.co2  83  ASP83      -0.2456
    121  OD2       21.9510   40.9590   30.5460 O.co2  83  ASP83      -0.2456
    122  N         18.9300   44.2810   32.3680 N.am   84  TYR84      -0.1960
    123  CA        17.6990   44.1310   33.0960 C.3    84  TYR84       0.1771
    124  C         16.6820   43.4610   32.1830 C.2    84  TYR84       0.2619
    125  O         16.4490   43.9250   31.0660 O.2    84  TYR84      -0.2715
    126  CB        17.1960   45.5160   33.5570 C.3    84  TYR84       0.0574
    127  CG        15.7900   45.5010   34.1090 C.ar   84  TYR84      -0.0198
    128  CD1       15.4210   44.6020   35.1130 C.ar   84  TYR84      -0.0009
    129  CD2       14.8240   46.3750   33.6260 C.ar   84  TYR84      -0.0009
    130  CE1       14.1310   44.5870   35.6290 C.ar   84  TYR84       0.0417
    131  CE2       13.5300   46.3810   34.1480 C.ar   84  TYR84       0.0417
    132  CZ        13.1900   45.4900   35.1520 C.ar   84  TYR84       0.1957
    133  OH        11.9200   45.4890   35.6660 O.3    84  TYR84      -0.2866
    134  N         16.0850   42.3750   32.6570 N.am   85  MET85      -0.1963
    135  CA        15.0550   41.6610   31.9190 C.3    85  MET85       0.1736
    136  C         13.6910   41.9220   32.5340 C.2    85  MET85       0.2616
    137  O         13.3470   41.3420   33.5590 O.2    85  MET85      -0.2715
    138  CB        15.4030   40.1700   31.7890 C.3    85  MET85       0.0427
    139  CG        16.2110   39.8290   30.5370 C.3    85  MET85       0.0599
    140  SD        17.7420   40.7710   30.2530 S.3    85  MET85      -0.1393
    141  CE        18.8370   40.0200   31.5160 C.3    85  MET85       0.0692
    142  N         12.9140   42.8020   31.8830 N.am   86  GLU86      -0.1977
    143  CA        11.7790   43.5100   32.4870 C.3    86  GLU86       0.1602
    144  C         10.6410   42.5720   32.9680 C.2    86  GLU86       0.2287
    145  O          9.9400   42.8980   33.9240 O.2    86  GLU86      -0.2864
    146  CB        11.2540   44.6270   31.5610 C.3    86  GLU86       0.0415
    147  CG        10.7790   44.1340   30.1940 C.3    86  GLU86       0.1163
    148  CD         9.9830   45.1030   29.3370 C.2    86  GLU86       0.3649
    149  OE1       10.2890   45.2100   28.1270 O.co2  86  GLU86      -0.2457
    150  OE2        9.0260   45.7190   29.8580 O.co2  86  GLU86      -0.2457
    151  N         11.0970   39.4460   34.0170 N.3    88  GLY88      -0.1210
    152  CA        11.7000   38.6210   35.0390 C.3    88  GLY88       0.1956
    153  C         11.8070   37.1970   34.5850 C.2    88  GLY88       0.2611
    154  O         12.0870   36.9190   33.4160 O.2    88  GLY88      -0.2717
    155  N         11.5460   36.3000   35.5190 N.am   89  ASP89      -0.1973
    156  CA        11.6730   34.8530   35.3970 C.3    89  ASP89       0.1709
    157  C         10.6880   34.2390   34.3540 C.2    89  ASP89       0.2293
    158  O          9.4840   34.5050   34.4270 O.2    89  ASP89      -0.2864
    159  CB        11.4480   34.3200   36.8130 C.3    89  ASP89       0.1436
    160  CG        11.2530   32.8670   37.0100 C.2    89  ASP89       0.3671
    161  OD1       10.6850   32.2160   36.1070 O.co2  89  ASP89      -0.2456
    162  OD2       11.6060   32.3790   38.0970 O.co2  89  ASP89      -0.2456
    163  N         26.7230   28.4180   23.9920 N.3   124  LEU124     -0.1245
    164  CA        27.4410   27.7960   25.1100 C.3   124  LEU124      0.1561
    165  C         28.2510   26.5760   24.7060 C.2   124  LEU124      0.2260
    166  O         29.3830   26.4510   25.1400 O.2   124  LEU124     -0.2867
    167  CB        26.4440   27.4510   26.2370 C.3   124  LEU124      0.0270
    168  CG        25.8550   28.6970   26.9420 C.3   124  LEU124      0.0019
    169  CD1       24.7700   28.2780   27.9560 C.3   124  LEU124      0.0001
    170  CD2       26.9980   29.6080   27.5340 C.3   124  LEU124      0.0001
    171  N         30.8250   25.1150   27.1530 N.3   129  PHE129     -0.1241
    172  CA        30.3090   25.5220   28.4430 C.3   129  PHE129      0.1605
    173  C         29.1320   24.6560   28.7170 C.2   129  PHE129      0.2264
    174  O         28.1690   24.6510   27.9500 O.2   129  PHE129     -0.2867
    175  CB        29.8970   27.0100   28.4690 C.3   129  PHE129      0.0534
    176  CG        29.5920   27.4810   29.8680 C.ar  129  PHE129     -0.0203
    177  CD1       30.6080   27.9330   30.7040 C.ar  129  PHE129     -0.0042
    178  CD2       28.2840   27.4640   30.3590 C.ar  129  PHE129     -0.0042
    179  CE1       30.3240   28.3710   32.0030 C.ar  129  PHE129     -0.0003
    180  CE2       28.0000   27.8980   31.6570 C.ar  129  PHE129     -0.0003
    181  CZ        29.0220   28.3450   32.4690 C.ar  129  PHE129     -0.0000
    182  N         26.0470   24.0860   31.0040 N.3   131  HIS131     -0.1241
    183  CA        25.1660   24.8660   31.8600 C.3   131  HIS131      0.1621
    184  C         24.9070   24.1530   33.2030 C.2   131  HIS131      0.2264
    185  O         25.0350   24.7750   34.2840 O.2   131  HIS131     -0.2867
    186  CB        23.8490   25.2130   31.1520 C.3   131  HIS131      0.0745
    187  CG        23.0740   26.2640   31.8900 C.ar  131  HIS131      0.0817
    188  ND1       22.2900   25.9450   32.9800 N.ar  131  HIS131     -0.2268
    189  CD2       23.0320   27.6030   31.7050 C.ar  131  HIS131      0.1154
    190  CE1       21.7800   27.0900   33.4130 C.ar  131  HIS131      0.1986
    191  NE2       22.1890   28.1110   32.6780 N.ar  131  HIS131     -0.2212
    192  N         15.3440   34.3180   31.8470 N.3   140  LEU140     -0.1245
    193  CA        14.8210   35.6520   32.0280 C.3   140  LEU140      0.1561
    194  C         14.1910   36.1380   30.7030 C.2   140  LEU140      0.2260
    195  O         14.6370   35.7770   29.5850 O.2   140  LEU140     -0.2867
    196  CB        15.9350   36.6070   32.5320 C.3   140  LEU140      0.0270
    197  CG        16.3170   36.5730   34.0480 C.3   140  LEU140      0.0019
    198  CD1       17.5700   37.4160   34.3340 C.3   140  LEU140      0.0001
    199  CD2       15.1850   37.1070   34.9590 C.3   140  LEU140      0.0001
    200  N         19.1170   33.1350   28.8180 N.3   149  ILE149     -0.1231
    201  CA        19.4910   32.0430   29.7320 C.3   149  ILE149      0.1692
    202  C         20.3780   32.6670   30.8050 C.2   149  ILE149      0.2592
    203  O         21.2870   33.4530   30.4920 O.2   149  ILE149     -0.2718
    204  CB        20.1970   30.8580   28.9990 C.3   149  ILE149      0.0266
    205  CG1       19.2920   30.2380   27.8690 C.3   149  ILE149      0.0019
    206  CG2       20.6880   29.7510   29.9880 C.3   149  ILE149      0.0020
    207  CD1       20.0390   29.6280   26.6400 C.3   149  ILE149      0.0001
    208  N         20.0860   32.3270   32.0660 N.am  150  ALA150     -0.1966
    209  CA        20.8490   32.7360   33.2460 C.3   150  ALA150      0.1728
    210  C         21.0680   31.4730   34.1350 C.2   150  ALA150      0.2616
    211  O         20.8190   30.3490   33.6910 O.2   150  ALA150     -0.2715
    212  CB        20.0770   33.8270   34.0070 C.3   150  ALA150      0.0334
    213  N         21.5550   31.6590   35.3610 N.am  151  ASP151     -0.1957
    214  CA        21.7260   30.5830   36.3360 C.3   151  ASP151      0.1840
    215  C         21.6120   31.1840   37.7480 C.2   151  ASP151      0.2622
    216  O         22.5290   31.8610   38.2150 O.2   151  ASP151     -0.2715
    217  CB        23.0550   29.8300   36.0970 C.3   151  ASP151      0.1450
    218  CG        23.2730   28.5640   36.9180 C.2   151  ASP151      0.3671
    219  OD1       22.4330   28.2610   37.7750 O.co2 151  ASP151     -0.2456
    220  OD2       24.3640   28.0040   36.8450 O.co2 151  ASP151     -0.2456
    221  N         20.4720   30.9490   38.4190 N.am  152  PHE152     -0.1974
    222  CA        20.2350   31.5440   39.7460 C.3   152  PHE152      0.1639
    223  C         20.6010   30.6360   40.8830 C.2   152  PHE152      0.2290
    224  O         20.2710   30.9400   42.0290 O.2   152  PHE152     -0.2864
    225  CB        18.7910   32.0340   39.9140 C.3   152  PHE152      0.0560
    226  CG        18.3980   32.9930   38.8430 C.ar  152  PHE152     -0.0200
    227  CD1       17.4700   32.6310   37.8780 C.ar  152  PHE152     -0.0042
    228  CD2       18.9880   34.2460   38.7660 C.ar  152  PHE152     -0.0042
    229  CE1       17.1120   33.5250   36.8700 C.ar  152  PHE152     -0.0003
    230  CE2       18.6430   35.1360   37.7560 C.ar  152  PHE152     -0.0003
    231  CZ        17.6990   34.7750   36.8190 C.ar  152  PHE152     -0.0000
@<TRIPOS>BOND
     1   163   164    1
     2   165   164    1
     3   165   166    2
     4   164   167    1
     5    83    84    1
     6   167   168    1
     7    88    90    1
     8    88    87    1
     9   207   205    1
    10   168   170    1
    11   168   169    1
    12   171   172    1
    13    87    84    1
    14    87    89    1
    15    84    85    1
    16    77    78    2
    17    77    76    1
    18    86    85    2
    19   205   204    1
    20   174   173    2
    21    76    75    1
    22    76    79    1
    23   149   148   ar
    24    85    91   am
    25   172   175    1
    26   172   173    1
    27   175   176    1
    28   120   119   ar
    29   200   201    1
    30   204   201    1
    31   204   206    1
    32    79    80    1
    33   148   150   ar
    34   148   147    1
    35    91    92    1
    36   195   194    2
    37    82    80    1
    38   201   202    1
    39   119   118    1
    40   119   121   ar
    41   176   178   ar
    42   176   177   ar
    43    94    93    2
    44    93    92    1
    45   118   115    1
    46   147   146    1
    47    80    81    1
    48   140   139    1
    49   140   141    1
    50    92    95    1
    51   178   180   ar
    52   203   202    2
    53   139   138    1
    54   194   193    1
    55   177   179   ar
    56   202   208   am
    57   182   183    1
    58   125   124    2
    59   186   183    1
    60   186   187    1
    61    70    69    2
    62   115   114    1
    63   115   116    1
    64   146   143    1
    65   180   181   ar
    66   189   187   ar
    67   189   191   ar
    68   138   135    1
    69    95    97    1
    70    95    96    1
    71   192   193    1
    72   183   184    1
    73   142   143    1
    74   142   136   am
    75   187   188   ar
    76   135   136    1
    77   135   134    1
    78   179   181   ar
    79   193   196    1
    80   208   209    1
    81   114   109   am
    82   124   134   am
    83   124   123    1
    84    69    68    1
    85   122   116   am
    86   122   123    1
    87    62    61    2
    88   116   117    2
    89   143   144    1
    90   196   197    1
    91   136   137    2
    92   191   190   ar
    93    96    98    1
    94   144   145    2
    95   188   190   ar
    96   123   126    1
    97   184   185    2
    98   209   212    1
    99   209   210    1
   100   109   108    1
   101   109   110    2
   102    68    67    1
   103    68    71    1
   104   154   153    2
   105   126   127    1
   106    61    67   am
   107    61    60    1
   108   129   127   ar
   109   129   131   ar
   110   211   210    2
   111   108   111    1
   112   108   107    1
   113   151   152    1
   114   197   198    1
   115   197   199    1
   116   127   128   ar
   117   210   213   am
   118   131   132   ar
   119   111   112    1
   120   111   113    1
   121   157   158    2
   122   157   156    1
   123    71    72    1
   124    65    63    1
   125    60    63    1
   126    60    59    1
   127   153   152    1
   128   153   155   am
   129   128   130   ar
   130    74    73    1
   131   132   130   ar
   132   132   133    1
   133    72    73    1
   134   213   214    1
   135    63    64    1
   136   156   155    1
   137   156   159    1
   138    29    30    1
   139   217   214    1
   140   217   218    1
   141   161   160   ar
   142    64    66    1
   143   214   215    1
   144   159   160    1
   145   231   229   ar
   146   231   230   ar
   147   220   218   ar
   148   229   227   ar
   149   218   219   ar
   150    33    30    1
   151   160   162   ar
   152    53    52    2
   153    30    31    1
   154    32    31    2
   155   215   216    2
   156   215   221   am
   157   230   228   ar
   158   227   226   ar
   159    31    34   am
   160    52    51    1
   161   221   222    1
   162   101   102    2
   163   101   100    1
   164     7     6    1
   165   228   226   ar
   166   226   225    1
   167   104   105    1
   168   104   103    1
   169    51    50    1
   170    51    54    1
   171    34    35    1
   172     8     6    1
   173    55    54    1
   174    55    56    1
   175    40    38    1
   176   100   103    1
   177   100    99    1
   178   105   106    1
   179    58    56   ar
   180   222   225    1
   181   222   223    1
   182     6     5    1
   183    35    38    1
   184    35    36    1
   185    56    57   ar
   186    38    39    1
   187    27    26    1
   188     5     2    1
   189   223   224    2
   190    36    41   am
   191    36    37    2
   192    41    42    1
   193    21    19   am
   194    45    42    1
   195    45    46    1
   196    26    28    1
   197    26    23    1
   198     2     3    1
   199     2     1    1
   200    47    46    1
   201    47    48    1
   202     4     3    2
   203    42    43    1
   204    49    48    1
   205     3     9   am
   206    44    43    2
   207    19    18    1
   208    19    20    2
   209    23    24    1
   210    23    22    1
   211    24    25    2
   212    18    17    1
   213     9    10    1
   214    17    14    1
   215    10    11    1
   216    13    14    1
   217    14    15    1
   218    11    12    2
   219    15    16    2
