@<TRIPOS>MOLECULE
tmp/5bvoA00.pdb
 222 211 0 0 0
SMALL
GASTEIGER

@<TRIPOS>ATOM
      1  N         15.0100   43.5720   43.7960 N.3    13  LEU13      -0.1231
      2  CA        14.4240   42.6650   42.8140 C.3    13  LEU13       0.1693
      3  C         14.3010   41.2410   43.3340 C.2    13  LEU13       0.2592
      4  O         13.4200   40.5010   42.9010 O.2    13  LEU13      -0.2718
      5  CB        15.2110   42.6890   41.5020 C.3    13  LEU13       0.0284
      6  CG        15.1640   43.9600   40.6520 C.3    13  LEU13       0.0019
      7  CD1       16.1530   43.8470   39.4990 C.3    13  LEU13       0.0001
      8  CD2       13.7610   44.2660   40.1300 C.3    13  LEU13       0.0001
      9  N         15.1810   40.8600   44.2580 N.am   14  GLY14      -0.1957
     10  CA        15.1340   39.5310   44.8530 C.3    14  GLY14       0.1869
     11  C         16.2730   39.2200   45.7940 C.2    14  GLY14       0.2309
     12  O         16.8840   40.1330   46.3580 O.2    14  GLY14      -0.2863
     13  N         19.7500   41.4190   44.8430 N.3    19  VAL19      -0.1245
     14  CA        19.8020   42.0300   43.5040 C.3    19  VAL19       0.1561
     15  C         18.9130   43.2700   43.4960 C.2    19  VAL19       0.2260
     16  O         17.7620   43.2040   43.9090 O.2    19  VAL19      -0.2867
     17  CB        19.3870   41.0550   42.3690 C.3    19  VAL19       0.0252
     18  CG1       19.5090   41.7100   40.9920 C.3    19  VAL19       0.0019
     19  CG2       20.2560   39.8200   42.3850 C.3    19  VAL19       0.0019
     20  N         20.6690   45.7740   36.4700 N.3    32  ALA32      -0.1231
     21  CA        20.5530   44.9550   37.6860 C.3    32  ALA32       0.1694
     22  C         21.9070   44.9040   38.3760 C.2    32  ALA32       0.2592
     23  O         22.9430   44.7210   37.7120 O.2    32  ALA32      -0.2718
     24  CB        20.0880   43.5390   37.3510 C.3    32  ALA32       0.0304
     25  N         21.9020   45.0650   39.6990 N.am   33  VAL33      -0.1966
     26  CA        23.1260   45.0490   40.4710 C.3    33  VAL33       0.1727
     27  C         23.0130   44.0460   41.6100 C.2    33  VAL33       0.2616
     28  O         22.1650   44.1940   42.5130 O.2    33  VAL33      -0.2715
     29  CB        23.5270   46.4610   40.9820 C.3    33  VAL33       0.0290
     30  CG1       24.8170   46.3990   41.8060 C.3    33  VAL33       0.0023
     31  CG2       23.7160   47.4260   39.8170 C.3    33  VAL33       0.0023
     32  N         23.8720   43.0300   41.5580 N.am   34  LYS34      -0.1977
     33  CA        23.9570   42.0340   42.6250 C.3    34  LYS34       0.1596
     34  C         25.0220   42.4360   43.6510 C.2    34  LYS34       0.2287
     35  O         26.1770   42.6700   43.2960 O.2    34  LYS34      -0.2864
     36  CB        24.2500   40.6560   42.0580 C.3    34  LYS34       0.0298
     37  CG        24.0360   39.5200   43.0470 C.3    34  LYS34       0.0038
     38  CD        24.4480   38.2060   42.4000 C.3    34  LYS34       0.0206
     39  CE        24.6340   37.1250   43.4470 C.3    34  LYS34       0.1093
     40  NZ        24.9580   35.8300   42.7890 N.3    34  LYS34      -0.1314
     41  N         32.0370   33.6850   40.4830 N.3    51  GLU51      -0.1245
     42  CA        30.8800   33.9320   39.6150 C.3    51  GLU51       0.1567
     43  C         31.2260   35.0350   38.6270 C.2    51  GLU51       0.2260
     44  O         30.9760   34.8870   37.4320 O.2    51  GLU51      -0.2867
     45  CB        29.6280   34.2650   40.4280 C.3    51  GLU51       0.0388
     46  CG        28.3790   34.5010   39.5740 C.3    51  GLU51       0.1160
     47  CD        27.1020   34.4410   40.3940 C.2    51  GLU51       0.3649
     48  OE1       26.9780   33.5190   41.2110 O.co2  51  GLU51      -0.2457
     49  OE2       26.2250   35.3060   40.2290 O.co2  51  GLU51      -0.2457
     50  N         33.6530   33.4780   35.9220 N.3    54  ILE54      -0.1231
     51  CA        32.8570   32.6090   35.0370 C.3    54  ILE54       0.1692
     52  C         32.0220   33.4880   34.1080 C.2    54  ILE54       0.2591
     53  O         32.0810   33.3280   32.9040 O.2    54  ILE54      -0.2718
     54  CB        31.9480   31.6280   35.8390 C.3    54  ILE54       0.0266
     55  CG1       32.7860   30.6910   36.7340 C.3    54  ILE54       0.0019
     56  CG2       31.0730   30.7890   34.9010 C.3    54  ILE54       0.0020
     57  CD1       31.9880   29.8950   37.7620 C.3    54  ILE54       0.0001
     58  N         31.2480   34.4150   34.6820 N.am   55  MET55      -0.1979
     59  CA        30.3970   35.3350   33.9100 C.3    55  MET55       0.1605
     60  C         31.1320   36.1610   32.8680 C.2    55  MET55       0.2287
     61  O         30.5860   36.4150   31.7830 O.2    55  MET55      -0.2864
     62  CB        29.6120   36.2630   34.8440 C.3    55  MET55       0.0413
     63  CG        28.5240   35.5480   35.6250 C.3    55  MET55       0.0598
     64  SD        27.3900   36.6770   36.4900 S.3    55  MET55      -0.1393
     65  CE        26.9350   37.7390   35.0920 C.3    55  MET55       0.0692
     66  N         31.2620   35.0110   29.2370 N.3    58  LEU58      -0.1245
     67  CA        30.0250   34.7990   28.4750 C.3    58  LEU58       0.1561
     68  C         29.5000   36.0380   27.7590 C.2    58  LEU58       0.2260
     69  O         29.0550   36.9980   28.3980 O.2    58  LEU58      -0.2867
     70  CB        28.9510   34.2000   29.3790 C.3    58  LEU58       0.0270
     71  CG        29.3380   33.0640   30.3440 C.3    58  LEU58       0.0019
     72  CD1       28.1610   32.7500   31.2440 C.3    58  LEU58       0.0001
     73  CD2       29.8010   31.8170   29.6140 C.3    58  LEU58       0.0001
     74  N         22.6260   34.9360   26.5510 N.3    63  ILE63      -0.1231
     75  CA        23.2470   34.6230   27.8470 C.3    63  ILE63       0.1692
     76  C         23.2910   35.9180   28.6430 C.2    63  ILE63       0.2591
     77  O         23.5430   36.9830   28.0830 O.2    63  ILE63      -0.2718
     78  CB        24.7080   34.0390   27.7170 C.3    63  ILE63       0.0266
     79  CG1       24.7640   32.8110   26.7880 C.3    63  ILE63       0.0019
     80  CG2       25.2960   33.6840   29.1030 C.3    63  ILE63       0.0020
     81  CD1       23.8800   31.6310   27.2010 C.3    63  ILE63       0.0001
     82  N         23.0480   35.8190   29.9450 N.am   64  ILE64      -0.1980
     83  CA        23.2810   36.9360   30.8730 C.3    64  ILE64       0.1595
     84  C         24.6570   37.5760   30.5690 C.2    64  ILE64       0.2287
     85  O         25.6420   36.8540   30.3200 O.2    64  ILE64      -0.2864
     86  CB        23.1130   36.4840   32.3560 C.3    64  ILE64       0.0276
     87  CG1       23.0010   37.6850   33.3090 C.3    64  ILE64       0.0022
     88  CG2       24.2040   35.4910   32.7920 C.3    64  ILE64       0.0022
     89  CD1       21.8330   38.6120   33.0250 C.3    64  ILE64       0.0001
     90  N         28.2140   43.1150   41.1570 N.3    78  MET78      -0.1245
     91  CA        28.1370   42.6290   39.7770 C.3    78  MET78       0.1570
     92  C         26.9960   43.3730   39.0880 C.2    78  MET78       0.2261
     93  O         25.9230   43.5270   39.6800 O.2    78  MET78      -0.2867
     94  CB        27.7340   41.1620   39.7810 C.3    78  MET78       0.0387
     95  CG        28.8140   40.1380   39.5590 C.3    78  MET78       0.0595
     96  SD        27.9900   38.5330   39.6070 S.3    78  MET78      -0.1393
     97  CE        28.4840   37.9150   41.2070 C.3    78  MET78       0.0692
     98  N         24.5630   43.5760   35.6330 N.3    80  THR80      -0.1203
     99  CA        24.0250   43.0300   34.3700 C.3    80  THR80       0.1994
    100  C         22.9410   43.9270   33.7410 C.2    80  THR80       0.2618
    101  O         22.5140   44.9450   34.3190 O.2    80  THR80      -0.2717
    102  CB        23.4350   41.6030   34.5370 C.3    80  THR80       0.1784
    103  OG1       22.2000   41.6590   35.2740 O.3    80  THR80      -0.2211
    104  CG2       24.4160   40.6290   35.2220 C.3    80  THR80       0.0376
    105  N         22.5020   43.5300   32.5440 N.am   81  ASP81      -0.1959
    106  CA        21.2420   43.9930   31.9310 C.3    81  ASP81       0.1840
    107  C         20.0800   43.8290   32.9140 C.2    81  ASP81       0.2622
    108  O         20.0300   42.8390   33.6390 O.2    81  ASP81      -0.2715
    109  CB        20.9160   43.1150   30.7220 C.3    81  ASP81       0.1450
    110  CG        22.1600   42.4640   30.1090 C.2    81  ASP81       0.3671
    111  OD1       22.5260   42.9110   29.0030 O.co2  81  ASP81      -0.2456
    112  OD2       22.7530   41.5220   30.7350 O.co2  81  ASP81      -0.2456
    113  N         19.1620   44.7890   32.9340 N.am   82  TYR82      -0.1960
    114  CA        17.8880   44.6120   33.6590 C.3    82  TYR82       0.1771
    115  C         16.8760   43.9150   32.7470 C.2    82  TYR82       0.2619
    116  O         16.5650   44.4230   31.6500 O.2    82  TYR82      -0.2715
    117  CB        17.3360   45.9530   34.1440 C.3    82  TYR82       0.0574
    118  CG        15.9460   45.8980   34.7490 C.ar   82  TYR82      -0.0198
    119  CD1       15.6300   44.9860   35.7730 C.ar   82  TYR82      -0.0009
    120  CD2       14.9310   46.7680   34.2940 C.ar   82  TYR82      -0.0009
    121  CE1       14.3490   44.9360   36.3300 C.ar   82  TYR82       0.0417
    122  CE2       13.6470   46.7260   34.8470 C.ar   82  TYR82       0.0417
    123  CZ        13.3720   45.8120   35.8560 C.ar   82  TYR82       0.1957
    124  OH        12.1230   45.7640   36.3980 O.3    82  TYR82      -0.2866
    125  N         16.3780   42.7680   33.2020 N.am   83  MET83      -0.1963
    126  CA        15.3870   41.9860   32.4640 C.3    83  MET83       0.1736
    127  C         13.9880   42.1800   33.0580 C.2    83  MET83       0.2616
    128  O         13.5860   41.4390   33.9690 O.2    83  MET83      -0.2715
    129  CB        15.7760   40.4980   32.4340 C.3    83  MET83       0.0427
    130  CG        17.1920   40.2210   31.9480 C.3    83  MET83       0.0599
    131  SD        17.4730   40.7860   30.2650 S.3    83  MET83      -0.1393
    132  CE        16.7090   39.4560   29.3320 C.3    83  MET83       0.0692
    133  N         13.2720   43.1780   32.5260 N.am   84  GLU84      -0.1977
    134  CA        11.9670   43.6770   33.0100 C.3    84  GLU84       0.1602
    135  C         10.9770   42.6390   33.5200 C.2    84  GLU84       0.2287
    136  O         10.3060   42.8560   34.5220 O.2    84  GLU84      -0.2864
    137  CB        11.2370   44.4090   31.8880 C.3    84  GLU84       0.0415
    138  CG        11.6080   45.8500   31.6650 C.3    84  GLU84       0.1163
    139  CD        10.6000   46.5540   30.7680 C.2    84  GLU84       0.3649
    140  OE1        9.7920   45.8740   30.0880 O.co2  84  GLU84      -0.2457
    141  OE2       10.6150   47.8000   30.7430 O.co2  84  GLU84      -0.2457
    142  N         11.4690   39.5060   34.6110 N.3    86  GLY86      -0.1210
    143  CA        11.9630   38.5720   35.6250 C.3    86  GLY86       0.1956
    144  C         12.1420   37.1760   35.0850 C.2    86  GLY86       0.2611
    145  O         12.4100   37.0050   33.8930 O.2    86  GLY86      -0.2717
    146  N         11.9970   36.1680   35.9460 N.am   87  ASP87      -0.1973
    147  CA        12.3170   34.8000   35.5070 C.3    87  ASP87       0.1709
    148  C         11.2160   34.1740   34.6490 C.2    87  ASP87       0.2293
    149  O         10.0140   34.4660   34.8240 O.2    87  ASP87      -0.2864
    150  CB        12.9020   33.8870   36.6490 C.3    87  ASP87       0.1436
    151  CG        11.8450   33.0170   37.3910 C.2    87  ASP87       0.3671
    152  OD1       10.9460   32.4280   36.7590 O.co2  87  ASP87      -0.2456
    153  OD2       11.9240   32.9190   38.6360 O.co2  87  ASP87      -0.2456
    154  N         27.1740   28.3080   24.3180 N.3   122  LEU122     -0.1245
    155  CA        27.8860   27.6570   25.4450 C.3   122  LEU122      0.1561
    156  C         28.6930   26.4210   25.0090 C.2   122  LEU122      0.2260
    157  O         29.8850   26.2960   25.3450 O.2   122  LEU122     -0.2867
    158  CB        26.9190   27.3440   26.6080 C.3   122  LEU122      0.0270
    159  CG        26.2430   28.5170   27.3720 C.3   122  LEU122      0.0019
    160  CD1       25.3790   28.0260   28.5380 C.3   122  LEU122      0.0001
    161  CD2       27.2430   29.5550   27.8680 C.3   122  LEU122      0.0001
    162  N         31.4540   24.8590   27.5210 N.3   127  PHE127     -0.1241
    163  CA        30.9950   25.2430   28.8310 C.3   127  PHE127      0.1605
    164  C         29.7260   24.4680   29.1370 C.2   127  PHE127      0.2264
    165  O         28.7730   24.5030   28.3650 O.2   127  PHE127     -0.2867
    166  CB        30.7730   26.7550   28.9030 C.3   127  PHE127      0.0534
    167  CG        30.3230   27.2280   30.2590 C.ar  127  PHE127     -0.0203
    168  CD1       31.2600   27.6240   31.2190 C.ar  127  PHE127     -0.0042
    169  CD2       28.9620   27.2790   30.5790 C.ar  127  PHE127     -0.0042
    170  CE1       30.8420   28.0620   32.4760 C.ar  127  PHE127     -0.0003
    171  CE2       28.5420   27.7170   31.8360 C.ar  127  PHE127     -0.0003
    172  CZ        29.4780   28.1090   32.7850 C.ar  127  PHE127     -0.0000
    173  N         26.5570   24.0410   31.4960 N.3   129  HIS129     -0.1241
    174  CA        25.7520   24.8620   32.4090 C.3   129  HIS129      0.1621
    175  C         25.4490   24.0810   33.6920 C.2   129  HIS129      0.2264
    176  O         25.6450   24.6090   34.8060 O.2   129  HIS129     -0.2867
    177  CB        24.4430   25.2640   31.7270 C.3   129  HIS129      0.0745
    178  CG        23.6200   26.2430   32.5170 C.ar  129  HIS129      0.0817
    179  ND1       22.9380   25.8950   33.6640 N.ar  129  HIS129     -0.2268
    180  CD2       23.3740   27.5640   32.3180 C.ar  129  HIS129      0.1154
    181  CE1       22.3080   26.9580   34.1370 C.ar  129  HIS129      0.1986
    182  NE2       22.5560   27.9840   33.3380 N.ar  129  HIS129     -0.2212
    183  N         15.8810   34.5020   32.2360 N.3   138  LEU138     -0.1245
    184  CA        15.2640   35.8020   32.4970 C.3   138  LEU138      0.1561
    185  C         14.6340   36.3440   31.2070 C.2   138  LEU138      0.2260
    186  O         15.0880   36.0220   30.1010 O.2   138  LEU138     -0.2867
    187  CB        16.3100   36.7710   33.0520 C.3   138  LEU138      0.0270
    188  CG        16.8430   36.5870   34.4820 C.3   138  LEU138      0.0019
    189  CD1       18.1230   37.3840   34.6540 C.3   138  LEU138      0.0001
    190  CD2       15.8280   37.0080   35.5420 C.3   138  LEU138      0.0001
    191  N         19.7830   33.2520   29.3120 N.3   147  ILE147     -0.1231
    192  CA        20.1180   32.1670   30.2500 C.3   147  ILE147      0.1692
    193  C         21.0420   32.7010   31.3470 C.2   147  ILE147      0.2592
    194  O         22.0380   33.4020   31.0610 O.2   147  ILE147     -0.2718
    195  CB        20.7380   30.9480   29.5200 C.3   147  ILE147      0.0266
    196  CG1       19.7900   30.4860   28.3880 C.3   147  ILE147      0.0019
    197  CG2       21.0230   29.8060   30.5100 C.3   147  ILE147      0.0020
    198  CD1       20.3500   29.4160   27.4500 C.3   147  ILE147      0.0001
    199  N         20.7020   32.3660   32.5960 N.am  148  ALA148     -0.1966
    200  CA        21.5470   32.6790   33.7460 C.3   148  ALA148      0.1728
    201  C         21.7040   31.4150   34.6140 C.2   148  ALA148      0.2616
    202  O         21.3180   30.3190   34.1990 O.2   148  ALA148     -0.2715
    203  CB        20.9710   33.8570   34.5380 C.3   148  ALA148      0.0334
    204  N         22.2690   31.5870   35.7990 N.am  149  ASP149     -0.1957
    205  CA        22.3960   30.5180   36.7860 C.3   149  ASP149      0.1840
    206  C         22.3210   31.1290   38.1820 C.2   149  ASP149      0.2622
    207  O         23.3050   31.6860   38.6810 O.2   149  ASP149     -0.2715
    208  CB        23.7020   29.7390   36.6110 C.3   149  ASP149      0.1450
    209  CG        23.8000   28.5390   37.5500 C.2   149  ASP149      0.3671
    210  OD1       22.8640   28.2730   38.3450 O.co2 149  ASP149     -0.2456
    211  OD2       24.8280   27.8560   37.4920 O.co2 149  ASP149     -0.2456
    212  N         21.1440   31.0150   38.8000 N.am  150  PHE150     -0.1974
    213  CA        20.8810   31.6240   40.1100 C.3   150  PHE150      0.1639
    214  C         21.3860   30.7740   41.2780 C.2   150  PHE150      0.2290
    215  O         21.2860   31.1790   42.4350 O.2   150  PHE150     -0.2864
    216  CB        19.3750   31.8990   40.2640 C.3   150  PHE150      0.0560
    217  CG        18.8880   33.0520   39.4360 C.ar  150  PHE150     -0.0200
    218  CD1       18.3220   32.8340   38.1790 C.ar  150  PHE150     -0.0042
    219  CD2       18.9960   34.3670   39.9150 C.ar  150  PHE150     -0.0042
    220  CE1       17.8680   33.8990   37.4050 C.ar  150  PHE150     -0.0003
    221  CE2       18.5430   35.4350   39.1430 C.ar  150  PHE150     -0.0003
    222  CZ        17.9780   35.1980   37.8840 C.ar  150  PHE150     -0.0000
@<TRIPOS>BOND
     1   154   155    1
     2   156   157    2
     3   156   155    1
     4   155   158    1
     5    74    75    1
     6   158   159    1
     7    79    81    1
     8    79    78    1
     9   159   161    1
    10   159   160    1
    11   198   196    1
    12   162   163    1
    13    78    75    1
    14    78    80    1
    15    68    69    2
    16    68    67    1
    17    75    76    1
    18    77    76    2
    19   165   164    2
    20   196   195    1
    21    67    66    1
    22    67    70    1
    23    76    82   am
    24   163   166    1
    25   163   164    1
    26   166   167    1
    27   111   110   ar
    28   191   192    1
    29   132   131    1
    30    70    71    1
    31   195   192    1
    32   195   197    1
    33    73    71    1
    34    82    83    1
    35   140   139   ar
    36   186   185    2
    37   110   109    1
    38   110   112   ar
    39   192   193    1
    40   167   169   ar
    41   167   168   ar
    42   131   130    1
    43    85    84    2
    44    71    72    1
    45    84    83    1
    46   169   171   ar
    47   109   106    1
    48   141   139   ar
    49   139   138    1
    50    83    86    1
    51   194   193    2
    52   185   184    1
    53   168   170   ar
    54   193   199   am
    55   173   174    1
    56   116   115    2
    57   138   137    1
    58   177   174    1
    59   177   178    1
    60    61    60    2
    61   171   172   ar
    62   137   134    1
    63   106   105    1
    64   106   107    1
    65   130   129    1
    66   183   184    1
    67   180   178   ar
    68   180   182   ar
    69    86    88    1
    70    86    87    1
    71   174   175    1
    72   129   126    1
    73   126   127    1
    74   126   125    1
    75   170   172   ar
    76   184   187    1
    77   178   179   ar
    78   133   134    1
    79   133   127   am
    80   105   100   am
    81   199   200    1
    82   115   125   am
    83   115   114    1
    84    60    59    1
    85    53    52    2
    86   107   113   am
    87   107   108    2
    88   113   114    1
    89   134   135    1
    90    89    87    1
    91   187   188    1
    92   127   128    2
    93   182   181   ar
    94   135   136    2
    95   114   117    1
    96   179   181   ar
    97   175   176    2
    98   100   101    2
    99   100    99    1
   100   200   203    1
   101   200   201    1
   102   145   144    2
   103    59    58    1
   104    59    62    1
   105    52    58   am
   106    52    51    1
   107   117   118    1
   108   202   201    2
   109   120   118   ar
   110   120   122   ar
   111    99   102    1
   112    99    98    1
   113   188   189    1
   114   188   190    1
   115   102   104    1
   116   102   103    1
   117   142   143    1
   118   201   204   am
   119   148   149    2
   120   148   147    1
   121   118   119   ar
   122    62    63    1
   123   122   123   ar
   124    56    54    1
   125    51    54    1
   126    51    50    1
   127   144   143    1
   128   144   146   am
   129    65    64    1
   130   147   146    1
   131   147   150    1
   132    63    64    1
   133   119   121   ar
   134   204   205    1
   135    54    55    1
   136   123   121   ar
   137   123   124    1
   138    20    21    1
   139   208   205    1
   140   208   209    1
   141   150   151    1
   142    55    57    1
   143   152   151   ar
   144   205   206    1
   145    24    21    1
   146   151   153   ar
   147   220   222   ar
   148   220   218   ar
   149    44    43    2
   150   211   209   ar
   151   209   210   ar
   152    21    22    1
   153    23    22    2
   154   222   221   ar
   155   218   217   ar
   156   206   207    2
   157   206   212   am
   158    22    25   am
   159    43    42    1
   160   212   213    1
   161    92    93    2
   162    92    91    1
   163   221   219   ar
   164   217   219   ar
   165   217   216    1
   166     7     6    1
   167    95    96    1
   168    95    94    1
   169    46    47    1
   170    46    45    1
   171    96    97    1
   172    42    45    1
   173    42    41    1
   174    25    26    1
   175    91    94    1
   176    91    90    1
   177    31    29    1
   178   213   216    1
   179   213   214    1
   180     8     6    1
   181    49    47   ar
   182    47    48   ar
   183    26    29    1
   184    26    27    1
   185     6     5    1
   186    29    30    1
   187    18    17    1
   188   214   215    2
   189     5     2    1
   190    32    27   am
   191    32    33    1
   192    27    28    2
   193    36    33    1
   194    36    37    1
   195    17    19    1
   196    17    14    1
   197    38    37    1
   198    38    39    1
   199    33    34    1
   200    40    39    1
   201     2     3    1
   202     2     1    1
   203     4     3    2
   204    35    34    2
   205     3     9   am
   206    15    14    1
   207    15    16    2
   208    14    13    1
   209     9    10    1
   210    10    11    1
   211    11    12    2
