@<TRIPOS>MOLECULE
tmp/5bvsA00.pdb
 195 180 0 0 0
SMALL
GASTEIGER

@<TRIPOS>ATOM
      1  N         35.6030    3.1990    8.3720 N.3    17  PHE17      -0.1241
      2  CA        34.4340    2.5100    7.7870 C.3    17  PHE17       0.1605
      3  C         34.1300    1.1890    8.5220 C.2    17  PHE17       0.2264
      4  O         32.9430    0.7030    8.5620 O.2    17  PHE17      -0.2867
      5  CB        34.7650    2.1860    6.3540 C.3    17  PHE17       0.0534
      6  CG        33.5800    1.6070    5.5470 C.ar   17  PHE17      -0.0203
      7  CD1       32.3090    2.1760    5.6060 C.ar   17  PHE17      -0.0042
      8  CD2       33.7810    0.5430    4.6780 C.ar   17  PHE17      -0.0042
      9  CE1       31.2510    1.7070    4.7910 C.ar   17  PHE17      -0.0003
     10  CE2       32.7090    0.0530    3.8710 C.ar   17  PHE17      -0.0003
     11  CZ        31.4250    0.6270    3.9400 C.ar   17  PHE17      -0.0000
     12  N         32.1210    2.0860   11.5090 N.3    20  TYR20      -0.1227
     13  CA        30.7680    2.4340   11.1080 C.3    20  TYR20       0.1736
     14  C         29.9880    1.1930   10.8170 C.2    20  TYR20       0.2595
     15  O         28.8420    1.0530   11.2600 O.2    20  TYR20      -0.2718
     16  CB        30.7430    3.3410    9.8290 C.3    20  TYR20       0.0548
     17  CG        29.4240    3.4490    9.2460 C.ar   20  TYR20      -0.0200
     18  CD1       28.4710    4.2420    9.8420 C.ar   20  TYR20      -0.0009
     19  CD2       29.1560    2.8900    8.0710 C.ar   20  TYR20      -0.0009
     20  CE1       27.2100    4.4070    9.2840 C.ar   20  TYR20       0.0417
     21  CE2       27.9430    3.0490    7.4850 C.ar   20  TYR20       0.0417
     22  CZ        27.0150    3.8560    8.0600 C.ar   20  TYR20       0.1957
     23  OH        25.8190    3.9270    7.4630 O.3    20  TYR20      -0.2866
     24  N         30.5400    0.2940   10.0380 N.am   21  MET21      -0.1979
     25  CA        29.8040   -0.9440    9.8190 C.3    21  MET21       0.1605
     26  C         29.5260   -1.7580   11.1160 C.2    21  MET21       0.2287
     27  O         28.5450   -2.4600   11.1810 O.2    21  MET21      -0.2864
     28  CB        30.6040   -1.8260    8.8830 C.3    21  MET21       0.0413
     29  CG        30.5130   -1.3030    7.4340 C.3    21  MET21       0.0598
     30  SD        31.2380   -2.3900    6.2180 S.3    21  MET21      -0.1393
     31  CE        32.9440   -2.4570    6.6500 C.3    21  MET21       0.0692
     32  N         26.4870   -0.3480   12.4670 N.3    24  LEU24      -0.1245
     33  CA        25.3150   -0.8030   11.7560 C.3    24  LEU24       0.1561
     34  C         24.9360   -2.1830   12.1680 C.2    24  LEU24       0.2260
     35  O         23.8200   -2.5360   11.9460 O.2    24  LEU24      -0.2867
     36  CB        25.5270   -0.8680   10.2400 C.3    24  LEU24       0.0270
     37  CG        25.4730    0.4070    9.4710 C.3    24  LEU24       0.0019
     38  CD1       25.7110   -0.0140    8.0070 C.3    24  LEU24       0.0001
     39  CD2       24.0820    1.0050    9.6370 C.3    24  LEU24       0.0001
     40  N         26.8410   -5.0730   10.9810 N.3    26  VAL26      -0.1245
     41  CA        27.1630   -5.8820    9.8660 C.3    26  VAL26       0.1561
     42  C         28.1140   -6.9400   10.4100 C.2    26  VAL26       0.2260
     43  O         28.9180   -6.6080   11.2230 O.2    26  VAL26      -0.2867
     44  CB        27.8890   -5.0740    8.7850 C.3    26  VAL26       0.0252
     45  CG1       28.4820   -5.9770    7.7760 C.3    26  VAL26       0.0019
     46  CG2       26.9730   -4.0330    8.1330 C.3    26  VAL26       0.0019
     47  N         31.0920  -10.0220    6.1620 N.3    30  THR30      -0.1218
     48  CA        30.6460   -8.9800    5.2540 C.3    30  THR30       0.1862
     49  C         31.4530   -7.7440    5.4350 C.2    30  THR30       0.2287
     50  O         31.8330   -7.1640    4.4080 O.2    30  THR30      -0.2866
     51  CB        29.1440   -8.7230    5.2820 C.3    30  THR30       0.1770
     52  OG1       28.5030   -9.9370    4.8500 O.3    30  THR30      -0.2211
     53  CG2       28.8100   -7.5230    4.2860 C.3    30  THR30       0.0375
     54  N         33.5520   -5.7560    2.4350 N.3    34  ALA34      -0.1245
     55  CA        33.3270   -4.2900    2.2300 C.3    34  ALA34       0.1562
     56  C         34.6010   -3.5380    2.3720 C.2    34  ALA34       0.2260
     57  O         34.8690   -2.6690    1.5730 O.2    34  ALA34      -0.2867
     58  CB        32.2230   -3.8330    3.1530 C.3    34  ALA34       0.0290
     59  N         36.7840   -4.0630   -1.0030 N.3    37  ALA37      -0.1301
     60  CA        36.1390   -3.5980   -2.2240 C.3    37  ALA37       0.1247
     61  C         36.5240   -2.0910   -2.5000 C.3    37  ALA37       0.2009
     62  O         37.0060   -1.2870   -1.6100 O.3    37  ALA37      -0.2188
     63  CB        34.6250   -3.8810   -2.1770 C.3    37  ALA37       0.0233
     64  N         34.5640    0.0290   -4.6980 N.3    39  PRO39      -0.2168
     65  CA        33.3750    0.2930   -5.5090 C.3    39  PRO39       0.1057
     66  C         33.4930    1.5100   -6.5240 C.3    39  PRO39       0.1993
     67  O         34.2420    2.5620   -6.2850 O.3    39  PRO39      -0.2189
     68  CB        32.2500    0.5220   -4.4810 C.3    39  PRO39       0.0215
     69  CG        32.8390    0.1650   -3.1480 C.3    39  PRO39       0.0203
     70  CD        34.3250    0.3330   -3.2770 C.3    39  PRO39       0.0888
     71  N         30.5250    3.9970   -8.1960 N.3    41  VAL41      -0.1245
     72  CA        29.1520    4.4010   -7.9840 C.3    41  VAL41       0.1561
     73  C         28.7620    5.2450   -9.1790 C.2    41  VAL41       0.2260
     74  O         29.4870    6.1950   -9.5440 O.2    41  VAL41      -0.2867
     75  CB        29.1380    5.3170   -6.7250 C.3    41  VAL41       0.0252
     76  CG1       27.7570    5.9600   -6.5510 C.3    41  VAL41       0.0019
     77  CG2       29.4340    4.5030   -5.5190 C.3    41  VAL41       0.0019
     78  N         25.6720    0.9770   -7.5320 N.3    54  THR54      -0.1218
     79  CA        26.9680    0.7360   -6.8900 C.3    54  THR54       0.1862
     80  C         27.5280   -0.5940   -7.4130 C.2    54  THR54       0.2287
     81  O         26.8600   -1.6550   -7.2600 O.2    54  THR54      -0.2866
     82  CB        26.8390    0.5380   -5.4060 C.3    54  THR54       0.1770
     83  OG1       26.3290    1.7230   -4.7630 O.3    54  THR54      -0.2211
     84  CG2       28.1580    0.1780   -4.8690 C.3    54  THR54       0.0375
     85  N         31.7710   -4.2750   -6.4690 N.3    57  THR57      -0.1203
     86  CA        31.8800   -4.5480   -5.0820 C.3    57  THR57       0.1994
     87  C         31.3250   -6.0250   -4.8880 C.2    57  THR57       0.2617
     88  O         31.0870   -6.7970   -5.8600 O.2    57  THR57      -0.2717
     89  CB        31.1920   -3.4290   -4.2510 C.3    57  THR57       0.1784
     90  OG1       31.4070   -3.5910   -2.8330 O.3    57  THR57      -0.2211
     91  CG2       29.7750   -3.4220   -4.4330 C.3    57  THR57       0.0376
     92  N         31.0450   -6.3930   -3.6430 N.am   58  PHE58      -0.1975
     93  CA        30.8870   -7.8220   -3.3460 C.3    58  PHE58       0.1639
     94  C         29.4940   -8.1720   -3.6780 C.2    58  PHE58       0.2290
     95  O         29.1310   -9.3410   -3.9360 O.2    58  PHE58      -0.2864
     96  CB        31.3320   -8.1210   -1.8940 C.3    58  PHE58       0.0560
     97  CG        30.4380   -7.5420   -0.8520 C.ar   58  PHE58      -0.0200
     98  CD1       30.6200   -6.2670   -0.4140 C.ar   58  PHE58      -0.0042
     99  CD2       29.3460   -8.2470   -0.4020 C.ar   58  PHE58      -0.0042
    100  CE1       29.7520   -5.7020    0.4890 C.ar   58  PHE58      -0.0003
    101  CE2       28.5140   -7.7120    0.5670 C.ar   58  PHE58      -0.0003
    102  CZ        28.7060   -6.4140    0.9770 C.ar   58  PHE58      -0.0000
    103  N         24.4560   -3.1470   -6.1960 N.3    61  THR61      -0.1218
    104  CA        23.0990   -2.6470   -5.9740 C.3    61  THR61       0.1862
    105  C         22.6400   -1.5400   -6.9350 C.2    61  THR61       0.2287
    106  O         23.4110   -0.8490   -7.6610 O.2    61  THR61      -0.2866
    107  CB        22.9330   -2.1080   -4.5260 C.3    61  THR61       0.1770
    108  OG1       23.8910   -1.0780   -4.2920 O.3    61  THR61      -0.2211
    109  CG2       23.1410   -3.1950   -3.5060 C.3    61  THR61       0.0375
    110  N         19.3540   -3.6630    1.7470 N.3    75  THR75      -0.1203
    111  CA        20.7220   -3.2510    1.5160 C.3    75  THR75       0.1994
    112  C         21.6590   -4.4260    1.1280 C.2    75  THR75       0.2618
    113  O         21.2720   -5.5740    1.1770 O.2    75  THR75      -0.2717
    114  CB        21.2760   -2.5920    2.7940 C.3    75  THR75       0.1784
    115  OG1       21.1690   -3.5390    3.8540 O.3    75  THR75      -0.2211
    116  CG2       20.5090   -1.3290    3.1560 C.3    75  THR75       0.0376
    117  N         22.9210   -4.1180    0.8690 N.am   76  ALA76      -0.1965
    118  CA        23.9310   -5.1110    0.4520 C.3    76  ALA76       0.1728
    119  C         24.2350   -6.0860    1.6150 C.2    76  ALA76       0.2616
    120  O         24.4930   -7.2800    1.3750 O.2    76  ALA76      -0.2715
    121  CB        25.2030   -4.4160   -0.0570 C.3    76  ALA76       0.0334
    122  N         24.0920   -5.5990    2.8490 N.am   77  ASP77      -0.1971
    123  CA        24.2670   -6.4090    4.0430 C.3    77  ASP77       0.1709
    124  C         22.9310   -6.9780    4.5720 C.2    77  ASP77       0.2293
    125  O         22.8580   -7.4400    5.7160 O.2    77  ASP77      -0.2864
    126  CB        24.9260   -5.5500    5.1140 C.3    77  ASP77       0.1436
    127  CG        24.0040   -4.4120    5.5960 C.2    77  ASP77       0.3671
    128  OD1       23.3250   -3.8040    4.7210 O.co2  77  ASP77      -0.2456
    129  OD2       23.9620   -4.0800    6.8260 O.co2  77  ASP77      -0.2456
    130  N         19.7240   -5.6820    5.2570 N.3    79  ARG79      -0.1245
    131  CA        18.6870   -5.0050    6.0530 C.3    79  ARG79       0.1563
    132  C         17.4820   -4.5240    5.2220 C.2    79  ARG79       0.2260
    133  O         17.5940   -4.2410    4.0210 O.2    79  ARG79      -0.2867
    134  CB        19.3220   -3.8390    6.7830 C.3    79  ARG79       0.0307
    135  CG        20.4120   -4.2690    7.7250 C.3    79  ARG79       0.0489
    136  CD        21.1000   -3.0440    8.3510 C.3    79  ARG79       0.2205
    137  NE        22.0250   -2.4950    7.3980 N.pl3  79  ARG79      -0.0865
    138  CZ        22.0270   -1.2750    6.8480 C.cat  79  ARG79       0.5346
    139  NH1       21.2410   -0.3550    7.2730 N.pl3  79  ARG79       0.1354
    140  NH2       22.9390   -0.9730    5.8930 N.pl3  79  ARG79       0.1354
    141  N         23.2810    8.9540    5.6050 N.3   105  ILE105     -0.1245
    142  CA        24.3870    8.9020    4.5780 C.3   105  ILE105      0.1561
    143  C         24.2570   10.2190    3.7670 C.2   105  ILE105      0.2260
    144  O         23.1870   10.5460    3.2080 O.2   105  ILE105     -0.2867
    145  CB        24.0720    7.7040    3.6520 C.3   105  ILE105      0.0252
    146  CG1       23.9610    6.4210    4.4390 C.3   105  ILE105      0.0019
    147  CG2       25.0430    7.5710    2.5110 C.3   105  ILE105      0.0019
    148  CD1       23.0610    5.4170    3.8290 C.3   105  ILE105      0.0001
    149  N         25.9260   12.6260    0.7690 N.3   107  ARG107     -0.1245
    150  CA        26.8240   12.6450   -0.4050 C.3   107  ARG107      0.1563
    151  C         26.9480   14.1400   -0.9880 C.2   107  ARG107      0.2260
    152  O         25.9520   14.7980   -1.2190 O.2   107  ARG107     -0.2867
    153  CB        26.1740   11.8030   -1.4020 C.3   107  ARG107      0.0307
    154  CG        26.1770   10.3280   -1.1130 C.3   107  ARG107      0.0489
    155  CD        25.3510    9.5590   -2.0480 C.3   107  ARG107      0.2205
    156  NE        25.3840    8.1630   -1.7110 N.pl3 107  ARG107     -0.0865
    157  CZ        24.4300    7.4880   -1.0560 C.cat 107  ARG107      0.5346
    158  NH1       23.3150    8.0750   -0.5930 N.pl3 107  ARG107      0.1354
    159  NH2       24.5970    6.1960   -0.8540 N.pl3 107  ARG107      0.1354
    160  N         31.2170   10.9210    0.6190 N.3   116  VAL116     -0.1245
    161  CA        30.0470   10.2350    1.2150 C.3   116  VAL116      0.1561
    162  C         30.3930   10.0630    2.6900 C.2   116  VAL116      0.2260
    163  O         31.4020    9.4150    3.0520 O.2   116  VAL116     -0.2867
    164  CB        29.8790    8.8480    0.6260 C.3   116  VAL116      0.0252
    165  CG1       28.6710    8.1230    1.1820 C.3   116  VAL116      0.0019
    166  CG2       29.7820    8.9580   -0.9360 C.3   116  VAL116      0.0019
    167  N         28.9100    8.8370    6.3520 N.3   118  CYS118     -0.1235
    168  CA        27.8700    8.0100    6.9390 C.3   118  CYS118      0.1677
    169  C         28.0400    8.1250    8.4410 C.2   118  CYS118      0.2270
    170  O         29.1420    7.9730    9.0060 O.2   118  CYS118     -0.2867
    171  CB        28.0540    6.5800    6.5680 C.3   118  CYS118      0.0956
    172  SG        28.1000    6.2870    4.7730 S.3   118  CYS118     -0.0801
    173  N         34.0650    8.3290    2.9430 N.3   127  ARG127     -0.1245
    174  CA        34.6060    7.6870    1.7970 C.3   127  ARG127      0.1563
    175  C         34.6780    8.6860    0.7220 C.2   127  ARG127      0.2260
    176  O         33.7240    9.5000    0.5880 O.2   127  ARG127     -0.2867
    177  CB        33.7040    6.5770    1.3510 C.3   127  ARG127      0.0307
    178  CG        33.9500    5.4170    2.2930 C.3   127  ARG127      0.0489
    179  CD        32.8390    4.3850    2.4060 C.3   127  ARG127      0.2205
    180  NE        32.7440    3.5310    1.2360 N.pl3 127  ARG127     -0.0865
    181  CZ        33.5730    2.5300    0.9260 C.cat 127  ARG127      0.5346
    182  NH1       34.6620    2.2880    1.6350 N.pl3 127  ARG127      0.1354
    183  NH2       33.3090    1.7730   -0.1490 N.pl3 127  ARG127      0.1354
    184  N         35.4510    9.0770   -3.4040 N.3   129  TYR129     -0.1241
    185  CA        35.6170    8.6230   -4.7590 C.3   129  TYR129      0.1605
    186  C         36.1160    9.7670   -5.6990 C.2   129  TYR129      0.2264
    187  O         36.0020   10.8860   -5.3880 O.2   129  TYR129     -0.2867
    188  CB        34.2630    8.2050   -5.3030 C.3   129  TYR129      0.0534
    189  CG        33.5440    7.2090   -4.4280 C.ar  129  TYR129     -0.0201
    190  CD1       33.1160    7.5170   -3.1090 C.ar  129  TYR129     -0.0009
    191  CD2       33.3950    5.9280   -4.8740 C.ar  129  TYR129     -0.0009
    192  CE1       32.4860    6.5640   -2.3380 C.ar  129  TYR129      0.0417
    193  CE2       32.8640    4.9590   -4.1070 C.ar  129  TYR129      0.0417
    194  CZ        32.4050    5.2720   -2.8120 C.ar  129  TYR129      0.1957
    195  OH        31.7750    4.3050   -2.1110 O.3   129  TYR129     -0.2866
@<TRIPOS>BOND
     1    74    73    2
     2    73    72    1
     3    71    72    1
     4    72    75    1
     5   106   105    2
     6    78    79    1
     7    80    81    2
     8    80    79    1
     9   105   104    1
    10    79    82    1
    11    75    76    1
    12    75    77    1
    13    66    67    1
    14    66    65    1
    15    85    86    1
    16   103   104    1
    17   104   107    1
    18    88    87    2
    19   186   187    2
    20   186   185    1
    21    65    64    1
    22    65    68    1
    23    82    84    1
    24    82    83    1
    25   188   185    1
    26   188   189    1
    27    86    87    1
    28    86    89    1
    29    87    92   am
    30   191   189   ar
    31   191   193   ar
    32   185   184    1
    33    64    70    1
    34   107   108    1
    35   107   109    1
    36    68    69    1
    37    91    89    1
    38   189   190   ar
    39    89    90    1
    40   193   194   ar
    41    95    94    2
    42    94    93    1
    43    92    93    1
    44    93    96    1
    45    70    69    1
    46   190   192   ar
    47   194   192   ar
    48   194   195    1
    49    61    60    1
    50    61    62    1
    51    60    63    1
    52    60    59    1
    53   155   156    1
    54   155   154    1
    55    96    97    1
    56   156   157    2
    57   153   154    1
    58   153   150    1
    59   152   151    2
    60   157   159    1
    61   157   158    1
    62   151   150    1
    63   166   164    1
    64    97    98   ar
    65    97    99   ar
    66    98   100   ar
    67   150   149    1
    68    99   101   ar
    69   183   181    1
    70   121   118    1
    71   118   117    1
    72   118   119    1
    73   100   102   ar
    74   101   102   ar
    75   176   175    2
    76   160   161    1
    77   164   165    1
    78   164   161    1
    79   175   174    1
    80   117   112   am
    81   181   180    2
    82   181   182    1
    83   112   113    2
    84   112   111    1
    85   161   162    1
    86   180   179    1
    87   177   174    1
    88   177   178    1
    89   120   119    2
    90   111   110    1
    91   111   114    1
    92    57    56    2
    93   119   122   am
    94   174   173    1
    95    55    56    1
    96    55    54    1
    97    55    58    1
    98   178   179    1
    99   147   145    1
   100   162   163    2
   101   114   116    1
   102   114   115    1
   103   122   123    1
   104   144   143    2
   105   145   146    1
   106   145   142    1
   107   143   142    1
   108   148   146    1
   109    10    11   ar
   110    10     8   ar
   111    11     9   ar
   112   133   132    2
   113   123   124    1
   114   123   126    1
   115    53    51    1
   116    50    49    2
   117   124   125    2
   118   142   141    1
   119     8     6   ar
   120   128   127   ar
   121   172   171    1
   122     9     7   ar
   123    52    51    1
   124   126   127    1
   125   132   131    1
   126    48    51    1
   127    48    49    1
   128    48    47    1
   129   130   131    1
   130     6     7   ar
   131     6     5    1
   132   127   129   ar
   133   140   138    1
   134   131   134    1
   135    30    31    1
   136    30    29    1
   137   167   168    1
   138     5     2    1
   139   171   168    1
   140   134   135    1
   141   138   139    1
   142   138   137    2
   143   168   169    1
   144   137   136    1
   145    29    28    1
   146    23    22    1
   147    21    22   ar
   148    21    19   ar
   149   135   136    1
   150    45    44    1
   151     2     1    1
   152     2     3    1
   153    38    37    1
   154    22    20   ar
   155    19    17   ar
   156    46    44    1
   157   169   170    2
   158     3     4    2
   159    44    41    1
   160    28    25    1
   161    17    16    1
   162    17    18   ar
   163    20    18   ar
   164    37    39    1
   165    37    36    1
   166    25    24    1
   167    25    26    1
   168    16    13    1
   169    41    42    1
   170    41    40    1
   171    24    14   am
   172    36    33    1
   173    42    43    2
   174    14    13    1
   175    14    15    2
   176    13    12    1
   177    26    27    2
   178    33    34    1
   179    33    32    1
   180    35    34    2
