@<TRIPOS>MOLECULE
tmp/5bvtA00.pdb
 209 194 0 0 0
SMALL
GASTEIGER

@<TRIPOS>ATOM
      1  N        -18.6970    1.7220    0.9070 N.3    18  PHE18      -0.1241
      2  CA       -17.3770    2.2410    0.5680 C.3    18  PHE18       0.1605
      3  C        -17.4690    3.4530   -0.3430 C.2    18  PHE18       0.2264
      4  O        -16.6800    4.3920   -0.2410 O.2    18  PHE18      -0.2867
      5  CB       -16.6030    1.1540   -0.1820 C.3    18  PHE18       0.0534
      6  CG       -15.1150    1.4470   -0.3750 C.ar   18  PHE18      -0.0203
      7  CD1      -14.3210    1.8590    0.6810 C.ar   18  PHE18      -0.0042
      8  CD2      -14.5060    1.2200   -1.6020 C.ar   18  PHE18      -0.0042
      9  CE1      -12.9620    2.0810    0.5100 C.ar   18  PHE18      -0.0003
     10  CE2      -13.1330    1.4290   -1.7810 C.ar   18  PHE18      -0.0003
     11  CZ       -12.3690    1.8850   -0.7340 C.ar   18  PHE18      -0.0000
     12  N        -18.3090    6.3160    1.8590 N.3    21  TYR21      -0.1227
     13  CA       -17.1150    6.6740    2.6440 C.3    21  TYR21       0.1736
     14  C        -16.1120    7.4340    1.7600 C.2    21  TYR21       0.2595
     15  O        -15.5930    8.4530    2.1710 O.2    21  TYR21      -0.2718
     16  CB       -16.5000    5.4090    3.2640 C.3    21  TYR21       0.0548
     17  CG       -15.1620    5.6220    3.9560 C.ar   21  TYR21      -0.0200
     18  CD1      -15.0880    6.1950    5.2200 C.ar   21  TYR21      -0.0009
     19  CD2      -13.9780    5.2020    3.3690 C.ar   21  TYR21      -0.0009
     20  CE1      -13.8670    6.3880    5.8500 C.ar   21  TYR21       0.0417
     21  CE2      -12.7620    5.3970    4.0000 C.ar   21  TYR21       0.0417
     22  CZ       -12.7130    5.9960    5.2410 C.ar   21  TYR21       0.1957
     23  OH       -11.5060    6.2080    5.8660 O.3    21  TYR21      -0.2866
     24  N        -15.8720    6.9450    0.5360 N.am   22  MET22      -0.1979
     25  CA       -14.9840    7.6170   -0.4240 C.3    22  MET22       0.1605
     26  C        -15.5010    8.9910   -0.8270 C.2    22  MET22       0.2287
     27  O        -14.7160    9.8950   -1.1120 O.2    22  MET22      -0.2864
     28  CB       -14.8420    6.7850   -1.6910 C.3    22  MET22       0.0413
     29  CG       -13.9540    5.5660   -1.5800 C.3    22  MET22       0.0598
     30  SD       -13.6910    4.8650   -3.2120 S.3    22  MET22      -0.1393
     31  CE       -15.2790    4.2200   -3.6950 C.3    22  MET22       0.0692
     32  N        -14.5670   11.3150    1.9400 N.3    25  LEU25      -0.1245
     33  CA       -13.1500   11.6570    1.8220 C.3    25  LEU25       0.1561
     34  C        -12.8650   12.6550    0.6760 C.2    25  LEU25       0.2260
     35  O        -11.7720   13.1800    0.6060 O.2    25  LEU25      -0.2867
     36  CB       -12.3040   10.3920    1.5820 C.3    25  LEU25       0.0270
     37  CG       -12.1970    9.2720    2.6130 C.3    25  LEU25       0.0019
     38  CD1      -11.3440    8.1800    1.9930 C.3    25  LEU25       0.0001
     39  CD2      -11.5960    9.7210    3.9350 C.3    25  LEU25       0.0001
     40  N        -13.2420   11.9120   -2.7820 N.3    27  VAL27      -0.1245
     41  CA       -12.7820   11.1950   -3.9520 C.3    27  VAL27       0.1561
     42  C        -13.6470   11.5130   -5.1680 C.2    27  VAL27       0.2260
     43  O        -14.8660   11.4790   -5.0880 O.2    27  VAL27      -0.2867
     44  CB       -12.7940    9.6680   -3.7250 C.3    27  VAL27       0.0252
     45  CG1      -12.2790    8.9280   -4.9580 C.3    27  VAL27       0.0019
     46  CG2      -11.9220    9.3010   -2.5330 C.3    27  VAL27       0.0019
     47  N        -12.3380    7.7570   -9.8200 N.3    31  MET31      -0.1245
     48  CA       -11.5870    7.0640   -8.8060 C.3    31  MET31       0.1570
     49  C        -12.5250    6.2650   -7.9020 C.2    31  MET31       0.2261
     50  O        -12.1780    5.1850   -7.4260 O.2    31  MET31      -0.2867
     51  CB       -10.7980    8.0700   -7.9990 C.3    31  MET31       0.0387
     52  CG        -9.7680    7.4270   -7.1110 C.3    31  MET31       0.0595
     53  SD        -8.5240    8.5140   -6.4060 S.3    31  MET31      -0.1393
     54  CE        -7.0430    7.6240   -6.8860 C.3    31  MET31       0.0692
     55  N        -13.2440    3.1390   -9.6440 N.3    34  MET34      -0.1230
     56  CA       -12.1320    2.2350   -9.4980 C.3    34  MET34       0.1702
     57  C        -12.1800    1.5340   -8.1540 C.2    34  MET34       0.2592
     58  O        -11.9300    0.3450   -8.0790 O.2    34  MET34      -0.2718
     59  CB       -10.8210    2.9790   -9.5910 C.3    34  MET34       0.0401
     60  CG       -10.5850    3.6650  -10.9180 C.3    34  MET34       0.0596
     61  SD        -8.9130    4.2360  -10.9050 S.3    34  MET34      -0.1393
     62  CE        -8.9920    5.2840  -12.3130 C.3    34  MET34       0.0692
     63  N        -12.4930    2.2850   -7.1040 N.am   35  GLY35      -0.1957
     64  CA       -12.6190    1.7490   -5.7650 C.3    35  GLY35       0.1869
     65  C        -13.7490    0.7560   -5.5990 C.2    35  GLY35       0.2309
     66  O        -13.5950   -0.2130   -4.8670 O.2    35  GLY35      -0.2863
     67  N        -12.6050   -2.4110   -7.5880 N.3    38  ALA38      -0.1245
     68  CA       -11.3870   -3.0930   -7.1460 C.3    38  ALA38       0.1562
     69  C        -11.6930   -4.2460   -6.1780 C.2    38  ALA38       0.2260
     70  O        -12.5700   -4.1380   -5.3080 O.2    38  ALA38      -0.2867
     71  CB       -10.4310   -2.1130   -6.5020 C.3    38  ALA38       0.0290
     72  N         -8.9560   -5.8300   -4.1450 N.3    40  PRO40      -0.2116
     73  CA        -7.5160   -5.8070   -3.9030 C.3    40  PRO40       0.1372
     74  C         -6.9870   -6.8790   -2.9680 C.2    40  PRO40       0.2244
     75  O         -7.7330   -7.4630   -2.1550 O.2    40  PRO40      -0.2868
     76  CB        -7.2960   -4.4130   -3.2710 C.3    40  PRO40       0.0268
     77  CG        -8.5850   -4.0920   -2.6100 C.3    40  PRO40       0.0207
     78  CD        -9.6380   -4.6870   -3.5030 C.3    40  PRO40       0.0892
     79  N         -1.2990   -2.5030   -0.3620 N.3    55  THR55      -0.1218
     80  CA        -2.5620   -2.7040   -1.0670 C.3    55  THR55       0.1862
     81  C         -2.3310   -2.7590   -2.5690 C.2    55  THR55       0.2287
     82  O         -1.9590   -1.7460   -3.1680 O.2    55  THR55      -0.2866
     83  CB        -3.5720   -1.5630   -0.8080 C.3    55  THR55       0.1770
     84  OG1       -3.7930   -1.3940    0.6010 O.3    55  THR55      -0.2211
     85  CG2       -4.9340   -1.8610   -1.5070 C.3    55  THR55       0.0375
     86  N         -3.8220   -3.8020   -6.5890 N.3    57  SER57      -0.1217
     87  CA        -4.9330   -4.0300   -7.5000 C.3    57  SER57       0.1889
     88  C         -4.5430   -3.5510   -8.8790 C.2    57  SER57       0.2288
     89  O         -3.5240   -2.8980   -9.0110 O.2    57  SER57      -0.2866
     90  CB        -6.1970   -3.2960   -7.0220 C.3    57  SER57       0.2089
     91  OG        -6.2140   -1.8990   -7.3080 O.3    57  SER57      -0.2183
     92  N         -6.0210   -1.2840  -10.6460 N.3    59  PHE59      -0.1227
     93  CA        -6.2070    0.1560  -10.6910 C.3    59  PHE59       0.1736
     94  C         -5.0750    0.8990  -10.0180 C.2    59  PHE59       0.2595
     95  O         -4.3940    1.7000  -10.6610 O.2    59  PHE59      -0.2718
     96  CB        -7.5410    0.5090  -10.0450 C.3    59  PHE59       0.0547
     97  CG        -8.7010   -0.2040  -10.6750 C.ar   59  PHE59      -0.0202
     98  CD1       -9.1670    0.1790  -11.9290 C.ar   59  PHE59      -0.0042
     99  CD2       -9.3020   -1.2770  -10.0400 C.ar   59  PHE59      -0.0042
    100  CE1      -10.2300   -0.4790  -12.5230 C.ar   59  PHE59      -0.0003
    101  CE2      -10.3610   -1.9490  -10.6320 C.ar   59  PHE59      -0.0003
    102  CZ       -10.8370   -1.5380  -11.8780 C.ar   59  PHE59      -0.0000
    103  N         -4.8560    0.6140   -8.7410 N.am   60  LYS60      -0.1980
    104  CA        -3.8880    1.3580   -7.9400 C.3    60  LYS60       0.1596
    105  C         -3.1340    0.5010   -6.9210 C.2    60  LYS60       0.2287
    106  O         -3.6900   -0.4310   -6.3500 O.2    60  LYS60      -0.2864
    107  CB        -4.6000    2.4870   -7.1900 C.3    60  LYS60       0.0298
    108  CG        -5.2280    3.5450   -8.0890 C.3    60  LYS60       0.0038
    109  CD        -5.1370    4.9480   -7.4920 C.3    60  LYS60       0.0206
    110  CE        -3.6970    5.4670   -7.4030 C.3    60  LYS60       0.1093
    111  NZ        -3.0090    5.1940   -6.0980 N.3    60  LYS60      -0.1314
    112  N         -2.0740    8.1630    1.0300 N.3    76  THR76      -0.1203
    113  CA        -3.1880    7.2170    1.0190 C.3    76  THR76       0.1994
    114  C         -3.5580    6.7940   -0.4130 C.2    76  THR76       0.2618
    115  O         -3.1760    7.4750   -1.3780 O.2    76  THR76      -0.2717
    116  CB        -4.4320    7.8380    1.6550 C.3    76  THR76       0.1784
    117  OG1       -4.9650    8.8310    0.7640 O.3    76  THR76      -0.2211
    118  CG2       -4.0930    8.4560    3.0540 C.3    76  THR76       0.0376
    119  N         -4.3260    5.6990   -0.5370 N.am   77  LEU77      -0.1965
    120  CA        -4.8220    5.2120   -1.8390 C.3    77  LEU77       0.1728
    121  C         -5.4240    6.2940   -2.7240 C.2    77  LEU77       0.2616
    122  O         -5.2320    6.2790   -3.9390 O.2    77  LEU77      -0.2715
    123  CB        -5.8760    4.1160   -1.6500 C.3    77  LEU77       0.0311
    124  CG        -5.3980    2.6660   -1.5630 C.3    77  LEU77       0.0022
    125  CD1       -6.5530    1.8260   -1.0620 C.3    77  LEU77       0.0001
    126  CD2       -4.9130    2.1660   -2.9170 C.3    77  LEU77       0.0001
    127  N         -6.1570    7.2280   -2.1210 N.am   78  ASP78      -0.1971
    128  CA        -6.7630    8.3170   -2.9010 C.3    78  ASP78       0.1709
    129  C         -5.8900    9.5810   -3.0280 C.2    78  ASP78       0.2293
    130  O         -6.3720   10.6380   -3.4810 O.2    78  ASP78      -0.2864
    131  CB        -8.1660    8.6530   -2.3920 C.3    78  ASP78       0.1436
    132  CG        -8.1960    9.0300   -0.9240 C.2    78  ASP78       0.3671
    133  OD1       -7.5650    8.3120   -0.1080 O.co2  78  ASP78      -0.2456
    134  OD2       -8.8730   10.0430   -0.6080 O.co2  78  ASP78      -0.2456
    135  N         -4.2530   11.2450   -0.4780 N.3    80  ARG80      -0.1245
    136  CA        -4.1440   12.1300    0.6650 C.3    80  ARG80       0.1563
    137  C         -2.7470   11.9430    1.2630 C.2    80  ARG80       0.2260
    138  O         -2.1120   10.9070    1.0660 O.2    80  ARG80      -0.2867
    139  CB        -5.2180   11.8570    1.6970 C.3    80  ARG80       0.0307
    140  CG        -6.5730   12.4470    1.3550 C.3    80  ARG80       0.0489
    141  CD        -7.6580   11.9150    2.2880 C.3    80  ARG80       0.2205
    142  NE        -7.8050   10.4510    2.2010 N.pl3  80  ARG80      -0.0865
    143  CZ        -7.7390    9.5860    3.2130 C.cat  80  ARG80       0.5346
    144  NH1       -7.5940    9.9910    4.4670 N.pl3  80  ARG80       0.1354
    145  NH2       -7.8750    8.2880    2.9620 N.pl3  80  ARG80       0.1354
    146  N         -6.0320    8.7420   11.0600 N.3    98  GLN98      -0.1245
    147  CA        -5.5040    9.6080    9.9970 C.3    98  GLN98       0.1566
    148  C         -6.0470   11.0240   10.1410 C.2    98  GLN98       0.2260
    149  O         -7.2440   11.1970   10.3590 O.2    98  GLN98      -0.2867
    150  CB        -5.9590    9.1310    8.6240 C.3    98  GLN98       0.0367
    151  CG        -5.2260    7.9520    8.0020 C.3    98  GLN98       0.0905
    152  CD        -5.7910    7.5970    6.6160 C.2    98  GLN98       0.2608
    153  OE1       -6.8560    8.0880    6.2030 O.2    98  GLN98      -0.2717
    154  NE2       -5.0820    6.7420    5.8980 N.am   98  GLN98      -0.0878
    155  N         -9.9130    4.0270   10.8840 N.3   107  ILE107     -0.1245
    156  CA       -10.0260    2.7240   10.2450 C.3   107  ILE107      0.1561
    157  C         -9.6370    1.6870   11.2930 C.2   107  ILE107      0.2260
    158  O         -8.5150    1.7170   11.7800 O.2   107  ILE107     -0.2867
    159  CB        -9.0280    2.6400    9.0700 C.3   107  ILE107      0.0252
    160  CG1       -9.3200    3.7500    8.0580 C.3   107  ILE107      0.0019
    161  CG2       -9.0450    1.2710    8.4040 C.3   107  ILE107      0.0019
    162  CD1       -8.1340    4.0700    7.1700 C.3   107  ILE107      0.0001
    163  N         -9.1990   -2.5120   12.1980 N.3   109  ARG109     -0.1245
    164  CA        -9.0720   -3.8240   11.5650 C.3   109  ARG109      0.1563
    165  C         -9.0890   -4.8540   12.6570 C.2   109  ARG109      0.2260
    166  O         -8.3350   -4.7340   13.5930 O.2   109  ARG109     -0.2867
    167  CB        -7.7800   -3.9390   10.7750 C.3   109  ARG109      0.0307
    168  CG        -7.6790   -2.9260    9.6550 C.3   109  ARG109      0.0489
    169  CD        -6.4450   -3.1520    8.7980 C.3   109  ARG109      0.2205
    170  NE        -6.5370   -2.3930    7.5540 N.pl3 109  ARG109     -0.0865
    171  CZ        -6.1360   -1.1300    7.3960 C.cat 109  ARG109      0.5346
    172  NH1       -5.5860   -0.4580    8.4100 N.pl3 109  ARG109      0.1354
    173  NH2       -6.2840   -0.5290    6.2090 N.pl3 109  ARG109      0.1354
    174  N        -12.4350   -4.7890    8.2600 N.3   118  VAL118     -0.1245
    175  CA       -11.9880   -3.4060    8.2610 C.3   118  VAL118      0.1561
    176  C        -13.1930   -2.4720    8.2550 C.2   118  VAL118      0.2260
    177  O        -14.0350   -2.5220    7.3640 O.2   118  VAL118     -0.2867
    178  CB       -11.0990   -3.1100    7.0380 C.3   118  VAL118      0.0252
    179  CG1      -10.4530   -1.7330    7.1490 C.3   118  VAL118      0.0019
    180  CG2      -10.0260   -4.1790    6.8930 C.3   118  VAL118      0.0019
    181  N        -14.3180    1.5570    8.5930 N.3   120  CYS120     -0.1235
    182  CA       -13.8320    2.9180    8.4730 C.3   120  CYS120      0.1677
    183  C        -14.9590    3.8850    8.8190 C.2   120  CYS120      0.2270
    184  O        -16.1270    3.6650    8.4370 O.2   120  CYS120     -0.2867
    185  CB       -13.3650    3.1610    7.0580 C.3   120  CYS120      0.0956
    186  SG       -12.4070    1.8160    6.3270 S.3   120  CYS120     -0.0801
    187  N        -15.3190   -3.4940    5.1350 N.3   129  ARG129     -0.1245
    188  CA       -14.7680   -4.3730    4.1060 C.3   129  ARG129      0.1563
    189  C        -14.1710   -5.6000    4.7900 C.2   129  ARG129      0.2260
    190  O        -13.5780   -5.4720    5.8680 O.2   129  ARG129     -0.2867
    191  CB       -13.6880   -3.6250    3.3150 C.3   129  ARG129      0.0307
    192  CG       -14.2600   -2.6070    2.3290 C.3   129  ARG129      0.0489
    193  CD       -13.3090   -1.4680    2.0350 C.3   129  ARG129      0.2205
    194  NE       -12.2610   -1.8110    1.0740 N.pl3 129  ARG129     -0.0865
    195  CZ       -12.4370   -2.0960   -0.2290 C.cat 129  ARG129      0.5346
    196  NH1      -13.6550   -2.1120   -0.7930 N.pl3 129  ARG129      0.1354
    197  NH2      -11.3570   -2.3790   -0.9780 N.pl3 129  ARG129      0.1354
    198  N        -11.8480   -9.1890    4.2980 N.3   131  TYR131     -0.1241
    199  CA       -10.8950   -9.9230    3.5110 C.3   131  TYR131      0.1605
    200  C        -10.7280  -11.3460    4.0370 C.2   131  TYR131      0.2264
    201  O        -10.8790  -11.6270    5.2250 O.2   131  TYR131     -0.2867
    202  CB        -9.5330   -9.2520    3.5280 C.3   131  TYR131      0.0534
    203  CG        -9.4950   -7.8260    3.0210 C.ar  131  TYR131     -0.0201
    204  CD1      -10.0740   -6.7890    3.7500 C.ar  131  TYR131     -0.0009
    205  CD2       -8.8200   -7.5070    1.8280 C.ar  131  TYR131     -0.0009
    206  CE1      -10.0090   -5.4700    3.3070 C.ar  131  TYR131      0.0417
    207  CE2       -8.7650   -6.2170    1.3700 C.ar  131  TYR131      0.0417
    208  CZ        -9.3700   -5.1920    2.1020 C.ar  131  TYR131      0.1957
    209  OH        -9.3010   -3.8780    1.6350 O.3   131  TYR131     -0.2866
@<TRIPOS>BOND
     1   100    98   ar
     2   100   102   ar
     3    62    61    1
     4    98    97   ar
     5   102   101   ar
     6    60    61    1
     7    60    59    1
     8    93    92    1
     9    93    96    1
    10    93    94    1
    11    97    96    1
    12    97    99   ar
    13    95    94    2
    14   101    99   ar
    15    94   103   am
    16    47    48    1
    17    55    56    1
    18    59    56    1
    19    56    57    1
    20    89    88    2
    21    88    87    1
    22    48    51    1
    23    48    49    1
    24   103   104    1
    25    57    58    2
    26    57    63   am
    27   108   109    1
    28   108   107    1
    29    51    52    1
    30   104   107    1
    31   104   105    1
    32    49    50    2
    33    67    68    1
    34    87    90    1
    35    87    86    1
    36   109   110    1
    37   110   111    1
    38    91    90    1
    39    68    71    1
    40    68    69    1
    41    52    53    1
    42    63    64    1
    43   105   106    2
    44    54    53    1
    45    69    70    2
    46    64    65    1
    47    65    66    2
    48    42    43    2
    49    42    41    1
    50    45    44    1
    51    72    73    1
    52    72    78    1
    53    41    44    1
    54    41    40    1
    55   122   121    2
    56    73    76    1
    57    73    74    1
    58    44    46    1
    59    31    30    1
    60    78    77    1
    61   130   129    2
    62    76    77    1
    63    30    29    1
    64    82    81    2
    65   129   128    1
    66    74    75    2
    67   126   124    1
    68   128   131    1
    69   128   127    1
    70   121   127   am
    71   121   120    1
    72    81    80    1
    73   131   132    1
    74   120   123    1
    75   120   119    1
    76    10     8   ar
    77    10    11   ar
    78    28    29    1
    79    28    25    1
    80   123   124    1
    81     8     6   ar
    82   124   125    1
    83    85    83    1
    84   115   114    2
    85    27    26    2
    86    80    83    1
    87    80    79    1
    88   197   195    1
    89   132   134   ar
    90   132   133   ar
    91    26    25    1
    92    83    84    1
    93   196   195    1
    94    11     9   ar
    95   119   114   am
    96   135   136    1
    97    25    24    1
    98   114   113    1
    99     6     5    1
   100     6     7   ar
   101     3     4    2
   102     3     2    1
   103   195   194    2
   104     5     2    1
   105     9     7   ar
   106    24    14   am
   107     2     1    1
   108    35    34    2
   109   136   137    1
   110   136   139    1
   111    34    33    1
   112   117   116    1
   113   113   112    1
   114   113   116    1
   115   138   137    2
   116   194   193    1
   117   140   139    1
   118   140   141    1
   119   207   205   ar
   120   207   208   ar
   121    36    33    1
   122    36    37    1
   123   209   208    1
   124   116   118    1
   125    14    15    2
   126    14    13    1
   127    33    32    1
   128   205   203   ar
   129    12    13    1
   130    38    37    1
   131   193   192    1
   132   208   206   ar
   133   142   141    1
   134   142   143    2
   135   192   191    1
   136    37    39    1
   137    13    16    1
   138   145   143    1
   139   203   202    1
   140   203   204   ar
   141   143   144    1
   142    16    17    1
   143   206   204   ar
   144   191   188    1
   145    19    17   ar
   146    19    21   ar
   147   199   202    1
   148   199   200    1
   149   199   198    1
   150    17    18   ar
   151    21    22   ar
   152   200   201    2
   153   188   189    1
   154   188   187    1
   155   189   190    2
   156    18    20   ar
   157    22    20   ar
   158    22    23    1
   159   154   152   am
   160   153   152    2
   161   173   171    1
   162   186   185    1
   163   152   151    1
   164   180   178    1
   165   178   179    1
   166   178   175    1
   167   185   182    1
   168   162   160    1
   169   177   176    2
   170   171   170    2
   171   171   172    1
   172   170   169    1
   173   151   150    1
   174   160   159    1
   175   176   175    1
   176   174   175    1
   177   161   159    1
   178   184   183    2
   179   182   181    1
   180   182   183    1
   181   150   147    1
   182   169   168    1
   183   159   156    1
   184   168   167    1
   185   147   148    1
   186   147   146    1
   187   148   149    2
   188   156   155    1
   189   156   157    1
   190   167   164    1
   191   157   158    2
   192   164   163    1
   193   164   165    1
   194   165   166    2
