@<TRIPOS>MOLECULE
tmp/5bvwA00.pdb
 187 177 0 0 0
SMALL
GASTEIGER

@<TRIPOS>ATOM
      1  N         15.1470   46.8950   43.6070 N.3    11  GLU11      -0.1196
      2  CA        14.4890   45.7440   44.2530 C.3    11  GLU11       0.1783
      3  C         15.3610   44.5200   44.2850 C.2    11  GLU11       0.2306
      4  O         16.1840   44.3310   43.3860 O.2    11  GLU11      -0.2863
      5  CB        13.1010   45.4150   43.6590 C.2    11  GLU11       0.0071
      6  CG        13.0570   45.0420   42.1930 C.2    11  GLU11       0.0834
      7  CD        11.7070   45.1810   41.5120 C.2    11  GLU11       0.3877
      8  OE1       10.9200   46.0660   41.9210 O.co2  11  GLU11      -0.2406
      9  OE2       11.4620   44.4450   40.5270 O.co2  11  GLU11      -0.2406
     10  N         15.8760   40.7880   43.6160 N.3    13  LEU13      -0.1231
     11  CA        15.2470   39.8510   42.6760 C.3    13  LEU13       0.1693
     12  C         15.2740   38.4310   43.1940 C.2    13  LEU13       0.2592
     13  O         14.3420   37.6740   42.9610 O.2    13  LEU13      -0.2718
     14  CB        15.8660   39.9500   41.2690 C.3    13  LEU13       0.0284
     15  CG        15.6940   41.3010   40.5460 C.3    13  LEU13       0.0019
     16  CD1       16.6000   41.3750   39.2890 C.3    13  LEU13       0.0001
     17  CD2       14.2530   41.5570   40.1500 C.3    13  LEU13       0.0001
     18  N         16.3370   38.0890   43.9000 N.am   14  GLY14      -0.1957
     19  CA        16.5560   36.7400   44.3880 C.3    14  GLY14       0.1869
     20  C         17.8740   36.5980   45.1070 C.2    14  GLY14       0.2309
     21  O         18.6140   37.5710   45.3090 O.2    14  GLY14      -0.2863
     22  N         20.7910   38.8590   44.1070 N.3    21  VAL21      -0.1245
     23  CA        20.6500   39.6870   42.9010 C.3    21  VAL21       0.1561
     24  C         19.6720   40.8100   43.1280 C.2    21  VAL21       0.2260
     25  O         18.6220   40.5910   43.7270 O.2    21  VAL21      -0.2867
     26  CB        20.3280   38.8790   41.5980 C.3    21  VAL21       0.0252
     27  CG1       20.2260   39.8140   40.3770 C.3    21  VAL21       0.0019
     28  CG2       21.3870   37.8280   41.3520 C.3    21  VAL21       0.0019
     29  N         20.8190   43.8680   36.0780 N.3    34  ALA34      -0.1231
     30  CA        20.7980   43.0050   37.2590 C.3    34  ALA34       0.1694
     31  C         22.1770   42.9910   37.9070 C.2    34  ALA34       0.2592
     32  O         23.1980   42.8900   37.2070 O.2    34  ALA34      -0.2718
     33  CB        20.3840   41.5800   36.8700 C.3    34  ALA34       0.0304
     34  N         22.2180   43.1010   39.2580 N.am   35  VAL35      -0.1966
     35  CA        23.4890   43.1910   39.9550 C.3    35  VAL35       0.1727
     36  C         23.5650   42.1360   41.0330 C.2    35  VAL35       0.2616
     37  O         22.7410   42.1380   41.9440 O.2    35  VAL35      -0.2715
     38  CB        23.7790   44.6300   40.5070 C.3    35  VAL35       0.0290
     39  CG1       25.0530   44.6710   41.3530 C.3    35  VAL35       0.0023
     40  CG2       23.8690   45.6590   39.3820 C.3    35  VAL35       0.0023
     41  N         24.5520   41.2590   40.9560 N.am   36  LYS36      -0.1977
     42  CA        24.7500   40.2790   42.0170 C.3    36  LYS36       0.1596
     43  C         25.8500   40.7500   42.9520 C.2    36  LYS36       0.2287
     44  O         26.9200   41.1360   42.4920 O.2    36  LYS36      -0.2864
     45  CB        25.0700   38.9020   41.4320 C.3    36  LYS36       0.0298
     46  CG        25.0220   37.7610   42.4320 C.3    36  LYS36       0.0038
     47  CD        25.3460   36.5330   41.6160 C.3    36  LYS36       0.0206
     48  CE        25.3870   35.2600   42.3660 C.3    36  LYS36       0.1093
     49  NZ        25.3820   34.1240   41.4120 N.3    36  LYS36      -0.1314
     50  N         32.9390   32.4600   39.9380 N.3    53  GLU53      -0.1245
     51  CA        31.8210   32.6130   39.0380 C.3    53  GLU53       0.1567
     52  C         32.0810   33.7830   38.0880 C.2    53  GLU53       0.2260
     53  O         31.7200   33.6860   36.9290 O.2    53  GLU53      -0.2867
     54  CB        30.5150   32.7970   39.8410 C.3    53  GLU53       0.0388
     55  CG        29.2880   33.1080   38.9940 C.3    53  GLU53       0.1160
     56  CD        28.0110   33.3440   39.7780 C.2    53  GLU53       0.3649
     57  OE1       28.0910   33.7160   40.9700 O.co2  53  GLU53      -0.2457
     58  OE2       26.9200   33.2020   39.1850 O.co2  53  GLU53      -0.2457
     59  N         32.0010   33.2070   34.1750 N.3    57  MET57      -0.1245
     60  CA        31.0650   33.9810   33.3560 C.3    57  MET57       0.1570
     61  C         31.6710   34.8690   32.3080 C.2    57  MET57       0.2261
     62  O         31.0710   35.0230   31.2410 O.2    57  MET57      -0.2867
     63  CB        30.1310   34.7790   34.2210 C.3    57  MET57       0.0387
     64  CG        28.9850   33.9020   34.5620 C.3    57  MET57       0.0595
     65  SD        27.7090   34.7420   35.3920 S.3    57  MET57      -0.1393
     66  CE        27.2890   36.0970   34.1650 C.3    57  MET57       0.0692
     67  N         23.4500   34.1690   29.3970 N.3    66  ILE66      -0.1245
     68  CA        23.6170   35.4080   30.1610 C.3    66  ILE66       0.1561
     69  C         25.0430   36.0220   29.9620 C.2    66  ILE66       0.2260
     70  O         26.0240   35.3110   29.9850 O.2    66  ILE66      -0.2867
     71  CB        23.2210   35.2260   31.6570 C.3    66  ILE66       0.0252
     72  CG1       22.9370   36.5860   32.3370 C.3    66  ILE66       0.0019
     73  CG2       24.2010   34.3860   32.4480 C.3    66  ILE66       0.0019
     74  CD1       21.4940   37.1490   31.9850 C.3    66  ILE66       0.0001
     75  N         28.7790   41.7670   40.2480 N.3    80  MET80      -0.1245
     76  CA        28.6670   41.2950   38.8710 C.3    80  MET80       0.1570
     77  C         27.4480   41.9480   38.3010 C.2    80  MET80       0.2261
     78  O         26.4250   41.9990   38.9660 O.2    80  MET80      -0.2867
     79  CB        28.4180   39.7920   38.8270 C.3    80  MET80       0.0387
     80  CG        29.6520   38.9700   38.8620 C.3    80  MET80       0.0595
     81  SD        29.1970   37.2130   38.7240 S.3    80  MET80      -0.1393
     82  CE        29.1410   36.8100   40.3870 C.3    80  MET80       0.0692
     83  N         24.7960   42.0420   34.9260 N.3    82  THR82      -0.1203
     84  CA        24.3170   41.4800   33.6480 C.3    82  THR82       0.1994
     85  C         23.1720   42.3100   33.0980 C.2    82  THR82       0.2618
     86  O         22.7140   43.2480   33.7540 O.2    82  THR82      -0.2717
     87  CB        23.8380   40.0230   33.8080 C.3    82  THR82       0.1784
     88  OG1       22.5420   39.9790   34.4710 O.3    82  THR82      -0.2211
     89  CG2       24.8730   39.1210   34.4920 C.3    82  THR82       0.0376
     90  N         22.6970   41.9630   31.8900 N.am   83  ASP83      -0.1959
     91  CA        21.4130   42.4710   31.3740 C.3    83  ASP83       0.1840
     92  C         20.3390   42.1750   32.4060 C.2    83  ASP83       0.2622
     93  O         20.3740   41.1260   33.0530 O.2    83  ASP83      -0.2715
     94  CB        21.0350   41.7290   30.0550 C.3    83  ASP83       0.1450
     95  CG        21.9750   41.9980   28.8940 C.2    83  ASP83       0.3671
     96  OD1       22.2460   43.1860   28.6120 O.co2  83  ASP83      -0.2456
     97  OD2       22.4660   41.0190   28.2890 O.co2  83  ASP83      -0.2456
     98  N         19.3880   43.0830   32.5620 N.am   84  TYR84      -0.1960
     99  CA        18.2180   42.7810   33.3360 C.3    84  TYR84       0.1771
    100  C         17.2060   42.1250   32.4260 C.2    84  TYR84       0.2619
    101  O         16.7330   42.7470   31.4690 O.2    84  TYR84      -0.2715
    102  CB        17.6300   44.0140   34.0430 C.3    84  TYR84       0.0574
    103  CG        16.2790   43.7460   34.6680 C.ar   84  TYR84      -0.0198
    104  CD1       16.1230   42.7680   35.6490 C.ar   84  TYR84      -0.0009
    105  CD2       15.1450   44.4450   34.2530 C.ar   84  TYR84      -0.0009
    106  CE1       14.8730   42.4960   36.2080 C.ar   84  TYR84       0.0417
    107  CE2       13.8980   44.2070   34.8290 C.ar   84  TYR84       0.0417
    108  CZ        13.7710   43.2330   35.8070 C.ar   84  TYR84       0.1957
    109  OH        12.5520   42.9650   36.3460 O.3    84  TYR84      -0.2866
    110  N         16.8730   40.8650   32.7360 N.am   85  MET85      -0.1963
    111  CA        15.9330   40.0770   31.9380 C.3    85  MET85       0.1737
    112  C         14.5480   40.2690   32.5360 C.2    85  MET85       0.2619
    113  O         14.2280   39.6790   33.5630 O.2    85  MET85      -0.2715
    114  CB        16.3600   38.6040   31.9230 C.3    85  MET85       0.0427
    115  CG        17.7710   38.3720   31.3060 C.3    85  MET85       0.0599
    116  SD        17.8400   38.8360   29.5700 S.3    85  MET85      -0.1393
    117  CE        17.0870   37.4320   28.8070 C.3    85  MET85       0.0692
    118  N         13.7140   41.1080   31.8970 N.am   86  GLU86      -0.1918
    119  CA        12.5550   41.6920   32.5790 C.3    86  GLU86       0.1949
    120  C         11.4090   40.7200   32.8790 C.2    86  GLU86       0.2659
    121  O         10.5180   41.0760   33.6580 O.2    86  GLU86      -0.2711
    122  CB        12.0250   42.9310   31.8090 C.2    86  GLU86       0.0111
    123  CG        11.4200   42.6350   30.4340 C.2    86  GLU86       0.0838
    124  CD        10.6630   43.7950   29.7960 C.2    86  GLU86       0.3877
    125  OE1       10.1540   43.6270   28.6630 O.co2  86  GLU86      -0.2406
    126  OE2       10.5520   44.8630   30.4410 O.co2  86  GLU86      -0.2406
    127  N         11.4140   39.5210   32.2770 N.am   87  ASN87      -0.1955
    128  CA        10.3310   38.5500   32.4550 C.3    87  ASN87       0.1819
    129  C         10.6580   37.3880   33.4350 C.2    87  ASN87       0.2622
    130  O          9.8380   36.4870   33.5950 O.2    87  ASN87      -0.2715
    131  CB         9.8540   38.0420   31.0980 C.3    87  ASN87       0.1195
    132  CG         9.0500   39.0910   30.3530 C.2    87  ASN87       0.2630
    133  OD1        8.0660   39.5980   30.8520 O.2    87  ASN87      -0.2716
    134  ND2        9.4540   39.4750   29.1610 N.am   87  ASN87      -0.0877
    135  N         11.8320   37.4300   34.0900 N.am   88  GLY88      -0.1940
    136  CA        12.1740   36.4820   35.1490 C.3    88  GLY88       0.2014
    137  C         12.5270   35.1390   34.5800 C.2    88  GLY88       0.2638
    138  O         12.8590   35.0610   33.4090 O.2    88  GLY88      -0.2714
    139  N         12.4490   34.0890   35.3780 N.am   89  ASP89      -0.1971
    140  CA        12.8450   32.7520   34.9070 C.3    89  ASP89       0.1709
    141  C         11.7400   32.1470   34.0520 C.2    89  ASP89       0.2293
    142  O         10.5370   32.4890   34.1580 O.2    89  ASP89      -0.2864
    143  CB        13.3190   31.8160   36.0580 C.3    89  ASP89       0.1436
    144  CG        12.2040   31.1480   36.8630 C.2    89  ASP89       0.3671
    145  OD1       11.3590   30.4490   36.2550 O.co2  89  ASP89      -0.2456
    146  OD2       12.1940   31.2950   38.0840 O.co2  89  ASP89      -0.2456
    147  N          8.5540   30.2630   35.8460 N.3    92  GLN92      -0.1245
    148  CA         7.4890   31.1890   36.2690 C.3    92  GLN92       0.1566
    149  C          6.7350   31.8000   35.0530 C.2    92  GLN92       0.2260
    150  O          5.4990   31.8400   35.0380 O.2    92  GLN92      -0.2867
    151  CB         8.0570   32.3080   37.1600 C.3    92  GLN92       0.0367
    152  CG         8.5730   31.8340   38.5130 C.3    92  GLN92       0.0905
    153  CD         9.1180   32.9450   39.3930 C.2    92  GLN92       0.2608
    154  OE1        8.6160   34.0800   39.4120 O.2    92  GLN92      -0.2717
    155  NE2       10.1330   32.6220   40.1900 N.am   92  GLN92      -0.0878
    156  N         16.3810   32.5140   31.6630 N.3   140  LEU140     -0.1245
    157  CA        15.8230   33.8410   31.8930 C.3   140  LEU140      0.1561
    158  C         15.1540   34.3260   30.6220 C.2   140  LEU140      0.2260
    159  O         15.5710   33.9310   29.5350 O.2   140  LEU140     -0.2867
    160  CB        16.8880   34.8190   32.3880 C.3   140  LEU140      0.0270
    161  CG        17.3500   34.5960   33.8500 C.3   140  LEU140      0.0019
    162  CD1       18.6790   35.3360   34.1420 C.3   140  LEU140      0.0001
    163  CD2       16.2390   35.0220   34.8490 C.3   140  LEU140      0.0001
    164  N         21.1790   30.7960   32.2410 N.3   150  ALA150     -0.1231
    165  CA        21.9950   31.2610   33.3680 C.3   150  ALA150      0.1694
    166  C         22.6040   30.0140   34.0320 C.2   150  ALA150      0.2592
    167  O         22.2720   28.9190   33.6090 O.2   150  ALA150     -0.2718
    168  CB        21.1050   32.0020   34.3540 C.3   150  ALA150      0.0304
    169  N         23.4680   30.1450   35.0380 N.am  151  ASP151     -0.1960
    170  CA        23.8760   28.9600   35.8420 C.3   151  ASP151      0.1840
    171  C         23.1570   28.9070   37.2070 C.2   151  ASP151      0.2622
    172  O         23.0800   27.8350   37.8310 O.2   151  ASP151     -0.2715
    173  CB        25.3910   28.8420   35.9830 C.3   151  ASP151      0.1450
    174  CG        26.1350   29.2460   34.7260 C.2   151  ASP151      0.3671
    175  OD1       26.3510   28.3700   33.8530 O.co2 151  ASP151     -0.2456
    176  OD2       26.4830   30.4420   34.6020 O.co2 151  ASP151     -0.2456
    177  N         22.6700   30.0980   37.6470 N.am  152  PHE152     -0.1974
    178  CA        21.5310   30.4120   38.5140 C.3   152  PHE152      0.1639
    179  C         21.3090   29.4910   39.7300 C.2   152  PHE152      0.2290
    180  O         21.0630   28.2940   39.5790 O.2   152  PHE152     -0.2864
    181  CB        20.2360   30.4920   37.6760 C.3   152  PHE152      0.0560
    182  CG        19.2950   31.6180   38.0370 C.ar  152  PHE152     -0.0200
    183  CD1       19.4650   32.8890   37.5010 C.ar  152  PHE152     -0.0042
    184  CD2       18.2350   31.4060   38.9090 C.ar  152  PHE152     -0.0042
    185  CE1       18.5970   33.9330   37.8380 C.ar  152  PHE152     -0.0003
    186  CE2       17.3630   32.4500   39.2440 C.ar  152  PHE152     -0.0003
    187  CZ        17.5500   33.7060   38.7060 C.ar  152  PHE152     -0.0000
@<TRIPOS>BOND
     1    97    95   ar
     2    96    95   ar
     3   125   124   ar
     4   117   116    1
     5    95    94    1
     6   134   132   am
     7    67    68    1
     8   159   158    2
     9   116   115    1
    10   124   123    1
    11   124   126   ar
    12    69    70    2
    13    69    68    1
    14    94    91    1
    15    68    71    1
    16   132   133    2
    17   132   131    1
    18   123   122    2
    19   158   157    1
    20   131   128    1
    21    62    61    2
    22   115   114    1
    23    91    90    1
    24    91    92    1
    25   101   100    2
    26    71    72    1
    27    71    73    1
    28   156   157    1
    29   122   119    1
    30    90    85   am
    31   157   160    1
    32   118   112   am
    33   118   119    1
    34   114   111    1
    35   111   112    1
    36   111   110    1
    37    74    72    1
    38   164   165    1
    39   127   128    1
    40   127   120   am
    41    61    60    1
    42   160   161    1
    43    92    98   am
    44    92    93    2
    45   100   110   am
    46   100    99    1
    47   128   129    1
    48   112   113    2
    49    98    99    1
    50   119   120    1
    51   120   121    2
    52    85    84    1
    53    85    86    2
    54    99   102    1
    55    60    59    1
    56    60    63    1
    57   165   166    1
    58   165   168    1
    59   138   137    2
    60   129   130    2
    61   129   135   am
    62   167   166    2
    63    84    87    1
    64    84    83    1
    65    87    88    1
    66    87    89    1
    67   161   162    1
    68   161   163    1
    69   175   174   ar
    70   166   169   am
    71   102   103    1
    72   141   142    2
    73   141   140    1
    74   135   136    1
    75    66    65    1
    76    63    64    1
    77   105   103   ar
    78   105   107   ar
    79    64    65    1
    80   137   136    1
    81   137   139   am
    82   176   174   ar
    83   103   104   ar
    84   174   173    1
    85   107   108   ar
    86   140   139    1
    87   140   143    1
    88   150   149    2
    89   169   170    1
    90   149   148    1
    91   104   106   ar
    92   108   106   ar
    93   108   109    1
    94   170   173    1
    95   170   171    1
    96   147   148    1
    97   143   144    1
    98    29    30    1
    99   145   144   ar
   100   148   151    1
   101   144   146   ar
   102    33    30    1
   103    53    52    2
   104   151   152    1
   105    32    31    2
   106   171   177   am
   107   171   172    2
   108    30    31    1
   109   183   185   ar
   110   183   182   ar
   111   177   178    1
   112   181   182    1
   113   181   178    1
   114   185   187   ar
   115    31    34   am
   116   182   184   ar
   117    52    51    1
   118    77    76    1
   119    77    78    2
   120   152   153    1
   121   178   179    1
   122   187   186   ar
   123    81    80    1
   124    81    82    1
   125    79    80    1
   126    79    76    1
   127    76    75    1
   128   184   186   ar
   129    55    56    1
   130    55    54    1
   131    51    54    1
   132    51    50    1
   133    58    56   ar
   134    34    35    1
   135    16    15    1
   136    40    38    1
   137   153   154    2
   138   153   155   am
   139   180   179    2
   140    56    57   ar
   141    35    38    1
   142    35    36    1
   143    17    15    1
   144    27    26    1
   145    38    39    1
   146     9     7   ar
   147    15    14    1
   148    41    36   am
   149    41    42    1
   150    36    37    2
   151    14    11    1
   152    28    26    1
   153    49    48    1
   154    45    42    1
   155    45    46    1
   156     7     8   ar
   157     7     6    1
   158    26    23    1
   159    47    48    1
   160    47    46    1
   161    42    43    1
   162     6     5    2
   163    44    43    2
   164    11    12    1
   165    11    10    1
   166    23    24    1
   167    23    22    1
   168    13    12    2
   169    24    25    2
   170    12    18   am
   171     4     3    2
   172     1     2    1
   173     5     2    1
   174    18    19    1
   175     2     3    1
   176    19    20    1
   177    20    21    2
