@<TRIPOS>MOLECULE
tmp/5bw4B00.pdb
 200 194 0 0 0
SMALL
GASTEIGER

@<TRIPOS>ATOM
      1  N        -16.2440  -23.0370   43.9740 N.3    31  ASP31      -0.1225
      2  CA       -15.6600  -21.8120   44.5510 C.3    31  ASP31       0.1805
      3  C        -14.1080  -21.9220   44.6500 C.2    31  ASP31       0.2598
      4  O        -13.5340  -22.6890   45.4380 O.2    31  ASP31      -0.2718
      5  CB       -16.2540  -21.5890   45.9500 C.3    31  ASP31       0.1424
      6  CG       -15.9130  -20.1580   46.5160 C.2    31  ASP31       0.3668
      7  OD1      -15.8380  -19.2370   45.6640 O.co2  31  ASP31      -0.2456
      8  OD2      -15.6420  -19.9650   47.7740 O.co2  31  ASP31      -0.2456
      9  N        -13.4100  -21.2590   43.7780 N.am   32  VAL32      -0.1966
     10  CA       -11.9460  -21.4370   43.6600 C.3    32  VAL32       0.1727
     11  C        -11.2630  -20.3940   44.4640 C.2    32  VAL32       0.2617
     12  O        -11.5630  -19.2110   44.3180 O.2    32  VAL32      -0.2715
     13  CB       -11.4870  -21.2860   42.2020 C.3    32  VAL32       0.0290
     14  CG1      -10.0700  -21.6670   42.0690 C.3    32  VAL32       0.0023
     15  CG2      -12.3530  -22.2070   41.3520 C.3    32  VAL32       0.0023
     16  N        -10.3550  -20.8020   45.3010 N.am   33  GLY33      -0.1940
     17  CA        -9.6310  -19.8560   46.1630 C.3    33  GLY33       0.2014
     18  C        -10.4950  -19.5430   47.3880 C.2    33  GLY33       0.2640
     19  O        -10.8280  -18.4110   47.6310 O.2    33  GLY33      -0.2714
     20  N        -10.8650  -20.5600   48.1520 N.am   34  THR34      -0.1936
     21  CA       -11.9810  -20.4110   49.0930 C.3    34  THR34       0.2028
     22  C        -11.4860  -19.9080   50.4280 C.2    34  THR34       0.2643
     23  O        -12.2570  -19.5110   51.2680 O.2    34  THR34      -0.2714
     24  CB       -12.8380  -21.7160   49.1680 C.3    34  THR34       0.1808
     25  OG1      -14.1060  -21.4330   49.7850 O.3    34  THR34      -0.2208
     26  CG2      -12.0980  -22.8160   49.9410 C.3    34  THR34       0.0379
     27  N        -10.1790  -19.9720   50.6480 N.am   35  GLY35      -0.1939
     28  CA        -9.5810  -19.3240   51.8300 C.3    35  GLY35       0.2014
     29  C        -10.0790  -20.0340   53.0750 C.2    35  GLY35       0.2638
     30  O         -9.8750  -21.2580   53.2010 O.2    35  GLY35      -0.2714
     31  N        -10.7040  -19.2880   53.9960 N.am   36  ASP36      -0.1971
     32  CA       -11.1750  -19.8940   55.2430 C.3    36  ASP36       0.1709
     33  C        -12.5050  -20.6320   55.0650 C.2    36  ASP36       0.2293
     34  O        -12.9960  -21.2590   56.0390 O.2    36  ASP36      -0.2864
     35  CB       -11.2850  -18.8750   56.4130 C.3    36  ASP36       0.1436
     36  CG       -12.2070  -17.6610   56.0890 C.2    36  ASP36       0.3671
     37  OD1      -13.0700  -17.7390   55.2150 O.co2  36  ASP36      -0.2456
     38  OD2      -12.0460  -16.6180   56.7650 O.co2  36  ASP36      -0.2456
     39  N        -17.2800  -18.1350   53.4020 N.3    39  THR39      -0.1218
     40  CA       -18.2730  -17.7120   52.4790 C.3    39  THR39       0.1862
     41  C        -18.8970  -18.9180   51.7980 C.2    39  THR39       0.2287
     42  O        -20.1360  -19.0100   51.6100 O.2    39  THR39      -0.2866
     43  CB       -17.6610  -16.7050   51.4830 C.3    39  THR39       0.1770
     44  OG1      -17.3900  -15.5080   52.2130 O.3    39  THR39      -0.2211
     45  CG2      -18.6180  -16.3350   50.3870 C.3    39  THR39       0.0375
     46  N        -12.3100  -25.1060   46.6410 N.3    55  VAL55      -0.1231
     47  CA       -11.0460  -25.5960   46.1680 C.3    55  VAL55       0.1692
     48  C         -9.9360  -24.6420   46.6050 C.2    55  VAL55       0.2592
     49  O         -9.9200  -23.4920   46.2230 O.2    55  VAL55      -0.2718
     50  CB       -11.0280  -25.6800   44.6400 C.3    55  VAL55       0.0266
     51  CG1       -9.7120  -26.2590   44.1470 C.3    55  VAL55       0.0020
     52  CG2      -12.1700  -26.5320   44.1420 C.3    55  VAL55       0.0020
     53  N         -8.9600  -25.1390   47.3430 N.am   56  ASP56      -0.1960
     54  CA        -7.8370  -24.3160   47.7990 C.3    56  ASP56       0.1825
     55  C         -6.6750  -25.2420   48.2260 C.2    56  ASP56       0.2464
     56  O         -6.9040  -26.2130   48.9050 O.2    56  ASP56      -0.2730
     57  CB        -8.2640  -23.4590   49.0020 C.3    56  ASP56       0.1450
     58  CG        -7.4250  -22.2070   49.1780 C.2    56  ASP56       0.3671
     59  OD1       -6.2290  -22.3170   49.4610 O.co2  56  ASP56      -0.2456
     60  OD2       -8.0070  -21.1030   49.0600 O.co2  56  ASP56      -0.2456
     61  N         -5.4370  -24.9080   47.8240 N.am   57  PRO57      -0.2715
     62  CA        -4.2730  -25.6810   48.2110 C.3    57  PRO57       0.1536
     63  C         -3.8850  -25.4420   49.6420 C.2    57  PRO57       0.2598
     64  O         -3.1900  -26.2570   50.2430 O.2    57  PRO57      -0.2715
     65  CB        -3.1770  -25.1710   47.2700 C.3    57  PRO57       0.0310
     66  CG        -3.6220  -23.8070   46.8920 C.3    57  PRO57       0.0237
     67  CD        -5.1230  -23.8630   46.8310 C.3    57  PRO57       0.0939
     68  N         -4.3090  -24.3310   50.2140 N.am   58  ALA58      -0.1978
     69  CA        -3.9570  -24.0740   51.6160 C.3    58  ALA58       0.1597
     70  C         -5.0300  -24.7200   52.4710 C.2    58  ALA58       0.2287
     71  O         -5.8380  -24.0380   53.0620 O.2    58  ALA58      -0.2864
     72  CB        -3.8670  -22.5790   51.8680 C.3    58  ALA58       0.0319
     73  N         -6.0430  -23.8100   56.3510 N.3    61  ARG61      -0.1245
     74  CA        -6.9300  -22.6490   56.5680 C.3    61  ARG61       0.1563
     75  C         -8.4570  -22.9540   56.5630 C.2    61  ARG61       0.2260
     76  O         -9.2650  -22.0990   56.8820 O.2    61  ARG61      -0.2867
     77  CB        -6.6960  -21.6050   55.4500 C.3    61  ARG61       0.0307
     78  CG        -5.4440  -20.7530   55.6100 C.3    61  ARG61       0.0489
     79  CD        -5.5030  -19.5290   54.6820 C.3    61  ARG61       0.2205
     80  NE        -6.2910  -18.4450   55.2980 N.pl3  61  ARG61      -0.0865
     81  CZ        -7.0160  -17.5310   54.6420 C.cat  61  ARG61       0.5346
     82  NH1       -7.1050  -17.5310   53.3160 N.pl3  61  ARG61       0.1354
     83  NH2       -7.6760  -16.6010   55.3270 N.pl3  61  ARG61       0.1354
     84  N         -6.5180  -28.6970   46.6270 N.3    86  SER86      -0.1202
     85  CA        -5.8950  -28.6870   45.2630 C.3    86  SER86       0.2020
     86  C         -5.7240  -27.2470   44.7920 C.2    86  SER86       0.2619
     87  O         -6.4890  -26.3590   45.1540 O.2    86  SER86      -0.2717
     88  CB        -6.7390  -29.4660   44.2260 C.3    86  SER86       0.2103
     89  OG        -6.2000  -29.4080   42.9130 O.3    86  SER86      -0.2182
     90  N         -4.6940  -27.0220   43.9990 N.am   87  ALA87      -0.1965
     91  CA        -4.5710  -25.7910   43.2150 C.3    87  ALA87       0.1728
     92  C         -5.4050  -25.9650   41.9460 C.2    87  ALA87       0.2616
     93  O         -5.6480  -27.0740   41.5050 O.2    87  ALA87      -0.2715
     94  CB        -3.1170  -25.5060   42.9210 C.3    87  ALA87       0.0334
     95  N         -5.9470  -24.8700   41.4190 N.am   88  ILE88      -0.1963
     96  CA        -6.8900  -24.9960   40.2850 C.3    88  ILE88       0.1727
     97  C         -6.1190  -25.4890   39.0160 C.2    88  ILE88       0.2616
     98  O         -6.6610  -26.1930   38.2020 O.2    88  ILE88      -0.2715
     99  CB        -7.6270  -23.6860   39.9980 C.3    88  ILE88       0.0290
    100  CG1       -8.7630  -23.9150   38.9740 C.3    88  ILE88       0.0022
    101  CG2       -6.6300  -22.6380   39.5860 C.3    88  ILE88       0.0023
    102  CD1       -9.8640  -24.8190   39.5270 C.3    88  ILE88       0.0001
    103  N         -4.8640  -25.1420   38.8980 N.am   89  GLU89      -0.1977
    104  CA        -4.1320  -25.4900   37.7020 C.3    89  GLU89       0.1602
    105  C         -3.8520  -27.0010   37.6060 C.2    89  GLU89       0.2287
    106  O         -3.6240  -27.5100   36.5320 O.2    89  GLU89      -0.2864
    107  CB        -2.8840  -24.5850   37.4950 C.3    89  GLU89       0.0415
    108  CG        -1.7960  -24.5930   38.5390 C.3    89  GLU89       0.1163
    109  CD        -2.1070  -23.7810   39.8010 C.2    89  GLU89       0.3649
    110  OE1       -3.2660  -23.4010   39.9850 O.co2  89  GLU89      -0.2457
    111  OE2       -1.1820  -23.5510   40.6360 O.co2  89  GLU89      -0.2457
    112  N        -13.6840  -15.2930   43.9930 N.3   105  LEU105     -0.1231
    113  CA       -14.0880  -14.1760   44.7540 C.3   105  LEU105      0.1693
    114  C        -12.9030  -13.6890   45.5460 C.2   105  LEU105      0.2592
    115  O        -12.3760  -14.4370   46.3360 O.2   105  LEU105     -0.2718
    116  CB       -15.2360  -14.6500   45.6720 C.3   105  LEU105      0.0284
    117  CG       -15.8740  -13.6350   46.6160 C.3   105  LEU105      0.0019
    118  CD1      -16.4870  -12.4880   45.7950 C.3   105  LEU105      0.0001
    119  CD2      -16.9610  -14.2860   47.5010 C.3   105  LEU105      0.0001
    120  N        -12.4890  -12.4380   45.3370 N.am  106  MET106     -0.1966
    121  CA       -11.3550  -11.8440   46.0710 C.3   106  MET106      0.1721
    122  C        -10.1420  -12.7570   46.0400 C.2   106  MET106      0.2458
    123  O         -9.6360  -13.1550   47.0620 O.2   106  MET106     -0.2730
    124  CB       -11.7510  -11.5450   47.5200 C.3   106  MET106      0.0427
    125  CG       -13.0530  -10.7250   47.5670 C.3   106  MET106      0.0599
    126  SD       -13.0070   -9.1080   46.7330 S.3   106  MET106     -0.1393
    127  CE       -14.6870   -9.0420   46.1180 C.3   106  MET106      0.0692
    128  N         -9.6730  -13.1160   44.8450 N.am  107  PRO107     -0.2716
    129  CA        -8.5260  -14.0450   44.9020 C.3   107  PRO107      0.1536
    130  C         -7.2280  -13.3930   45.3960 C.2   107  PRO107      0.2599
    131  O         -7.0780  -12.1740   45.3880 O.2   107  PRO107     -0.2715
    132  CB        -8.3710  -14.4800   43.4570 C.3   107  PRO107      0.0310
    133  CG        -8.8370  -13.2190   42.6840 C.3   107  PRO107      0.0237
    134  CD       -10.0580  -12.7810   43.4600 C.3   107  PRO107      0.0939
    135  N         -6.2620  -14.1890   45.8120 N.am  108  TRP108     -0.1960
    136  CA        -4.9260  -13.6200   45.9310 C.3   108  TRP108      0.1771
    137  C         -3.8900  -14.6250   45.4370 C.2   108  TRP108      0.2620
    138  O         -4.2750  -15.6960   44.9300 O.2   108  TRP108     -0.2715
    139  CB        -4.6500  -12.9190   47.2870 C.3   108  TRP108      0.0590
    140  CG        -4.8570  -13.5430   48.6050 C.ar  108  TRP108      0.0006
    141  CD1       -4.3720  -14.7400   49.0590 C.ar  108  TRP108      0.0946
    142  CD2       -5.4310  -12.8910   49.7490 C.ar  108  TRP108      0.0152
    143  NE1       -4.6890  -14.9190   50.4070 N.ar  108  TRP108     -0.2442
    144  CE2       -5.3210  -13.7860   50.8550 C.ar  108  TRP108      0.0810
    145  CE3       -6.0250  -11.6240   49.9550 C.ar  108  TRP108      0.0012
    146  CZ2       -5.8100  -13.4590   52.1520 C.ar  108  TRP108      0.0191
    147  CZ3       -6.5060  -11.2970   51.2550 C.ar  108  TRP108      0.0001
    148  CH2       -6.4000  -12.2190   52.3230 C.ar  108  TRP108      0.0015
    149  N         -2.6140  -14.2630   45.5030 N.am  109  GLY109     -0.1940
    150  CA        -1.5890  -15.1430   45.0550 C.3   109  GLY109      0.2014
    151  C         -1.6730  -15.4540   43.5600 C.2   109  GLY109      0.2639
    152  O         -2.0300  -14.5920   42.7500 O.2   109  GLY109     -0.2714
    153  N         -1.4490  -16.7170   43.2570 N.am  110  LYS110     -0.1963
    154  CA        -1.3350  -17.2450   41.9280 C.3   110  LYS110      0.1728
    155  C         -2.6550  -17.1450   41.1850 C.2   110  LYS110      0.2616
    156  O         -2.7160  -16.8430   40.0070 O.2   110  LYS110     -0.2715
    157  CB        -0.9230  -18.6890   42.1400 C.3   110  LYS110      0.0311
    158  CG        -0.8900  -19.5640   40.9210 C.3   110  LYS110      0.0038
    159  CD         0.0490  -19.1260   39.8900 C.3   110  LYS110      0.0206
    160  CE         0.6570  -20.3370   39.1720 C.3   110  LYS110      0.1093
    161  NZ         1.6840  -19.6840   38.2890 N.3   110  LYS110     -0.1314
    162  N         -3.7340  -17.3990   41.9140 N.am  111  LEU111     -0.1977
    163  CA        -5.0570  -17.2960   41.3730 C.3   111  LEU111      0.1596
    164  C         -5.3480  -15.8770   40.8970 C.2   111  LEU111      0.2287
    165  O         -5.8320  -15.6820   39.7590 O.2   111  LEU111     -0.2864
    166  CB        -6.0930  -17.7890   42.3840 C.3   111  LEU111      0.0297
    167  CG        -7.5380  -17.7660   41.9580 C.3   111  LEU111      0.0022
    168  CD1       -7.7620  -18.7030   40.7920 C.3   111  LEU111      0.0001
    169  CD2       -8.4950  -18.1930   43.0950 C.3   111  LEU111      0.0001
    170  N         -3.9900  -21.4400   34.8320 N.3   122  VAL122     -0.1245
    171  CA        -5.0610  -21.0790   35.7370 C.3   122  VAL122      0.1561
    172  C         -6.3740  -21.0550   34.9780 C.2   122  VAL122      0.2260
    173  O         -7.3360  -21.6990   35.3600 O.2   122  VAL122     -0.2867
    174  CB        -4.7620  -19.7300   36.3760 C.3   122  VAL122      0.0252
    175  CG1       -5.9950  -19.1680   36.9850 C.3   122  VAL122      0.0019
    176  CG2       -3.6380  -19.8580   37.3990 C.3   122  VAL122      0.0019
    177  N        -20.3620   -9.8500   50.9470 N.3   194  ILE194     -0.1245
    178  CA       -19.6420  -11.0770   50.4170 C.3   194  ILE194      0.1561
    179  C        -18.0690  -11.0960   50.5730 C.2   194  ILE194      0.2260
    180  O        -17.4190  -12.1680   50.6920 O.2   194  ILE194     -0.2867
    181  CB       -20.1440  -11.3970   48.9420 C.3   194  ILE194      0.0252
    182  CG1      -20.3250  -12.9190   48.7070 C.3   194  ILE194      0.0019
    183  CG2      -19.2950  -10.7040   47.8650 C.3   194  ILE194      0.0019
    184  CD1      -20.9750  -13.2730   47.3770 C.3   194  ILE194      0.0001
    185  N        -15.5230  -11.4520   52.7490 N.3   196  SER196     -0.1217
    186  CA       -15.3740  -12.0970   54.0680 C.3   196  SER196      0.1889
    187  C        -14.4700  -11.2740   55.0020 C.2   196  SER196      0.2288
    188  O        -13.6950  -10.4150   54.5430 O.2   196  SER196     -0.2866
    189  CB       -14.7960  -13.5240   53.9340 C.3   196  SER196      0.2089
    190  OG       -13.4340  -13.5070   53.5130 O.3   196  SER196     -0.2183
    191  N        -11.7040  -12.3900   56.3890 N.3   198  ALA198     -0.1231
    192  CA       -10.3680  -12.6550   55.8000 C.3   198  ALA198      0.1694
    193  C         -9.9910  -11.7090   54.6530 C.2   198  ALA198      0.2591
    194  O         -8.9830  -10.9830   54.7480 O.2   198  ALA198     -0.2718
    195  CB       -10.2990  -14.1070   55.3010 C.3   198  ALA198      0.0304
    196  N        -10.8010  -11.7490   53.5800 N.am  199  ALA199     -0.1980
    197  CA       -10.5760  -10.9650   52.3390 C.3   199  ALA199      0.1597
    198  C        -10.4600   -9.4300   52.5530 C.2   199  ALA199      0.2287
    199  O         -9.5240   -8.7990   52.0220 O.2   199  ALA199     -0.2864
    200  CB       -11.6610  -11.2830   51.2990 C.3   199  ALA199      0.0319
@<TRIPOS>BOND
     1   170   171    1
     2   172   173    2
     3   172   171    1
     4   171   174    1
     5   174   175    1
     6   174   176    1
     7   106   105    2
     8   107   104    1
     9   107   108    1
    10   105   104    1
    11   104   103    1
    12    98    97    2
    13   161   160    1
    14   108   109    1
    15   103    97   am
    16   100   102    1
    17   100    99    1
    18    97    96    1
    19   160   159    1
    20   101    99    1
    21   165   164    2
    22   109   110   ar
    23   109   111   ar
    24   159   158    1
    25    99    96    1
    26   156   155    2
    27    96    95    1
    28   168   167    1
    29   164   163    1
    30   158   157    1
    31   155   162   am
    32   155   154    1
    33    15    13    1
    34   163   162    1
    35   163   166    1
    36    95    92   am
    37    93    92    2
    38   154   157    1
    39   154   153    1
    40    92    91    1
    41   167   166    1
    42   167   169    1
    43    14    13    1
    44    13    10    1
    45   133   132    1
    46   133   134    1
    47   152   151    2
    48    89    88    1
    49    94    91    1
    50    91    90    1
    51   153   151   am
    52   132   129    1
    53   134   128    1
    54   151   150    1
    55    10     9    1
    56    10    11    1
    57     9     3   am
    58     1     2    1
    59   112   113    1
    60    90    86   am
    61    52    50    1
    62    51    50    1
    63    88    85    1
    64    12    11    2
    65    11    16   am
    66     2     3    1
    67     2     5    1
    68    50    47    1
    69     3     4    2
    70   113   114    1
    71   113   116    1
    72    86    87    2
    73    86    85    1
    74   128   129    1
    75   128   122   am
    76   129   130    1
    77   138   137    2
    78   150   149    1
    79    85    84    1
    80    16    17    1
    81   120   114   am
    82   120   121    1
    83   131   130    2
    84   130   135   am
    85   137   149   am
    86   137   136    1
    87   114   115    2
    88     7     6   ar
    89   116   117    1
    90   118   117    1
    91   135   136    1
    92   136   139    1
    93     5     6    1
    94   122   121    1
    95   122   123    2
    96   121   124    1
    97   127   126    1
    98    17    18    1
    99    47    48    1
   100    47    46    1
   101    49    48    2
   102     6     8   ar
   103    48    53   am
   104   117   119    1
   105   126   125    1
   106    67    66    1
   107    67    61    1
   108    66    65    1
   109    65    62    1
   110   139   140    1
   111    53    54    1
   112   184   182    1
   113    18    19    2
   114    18    20   am
   115   124   125    1
   116    54    55    1
   117    54    57    1
   118    61    62    1
   119    61    55   am
   120   183   181    1
   121    20    21    1
   122    62    63    1
   123    55    56    2
   124   140   141   ar
   125   140   142   ar
   126   182   181    1
   127   181   178    1
   128    57    58    1
   129   141   143   ar
   130    60    58   ar
   131    21    24    1
   132    21    22    1
   133    24    25    1
   134    24    26    1
   135    58    59   ar
   136    63    68   am
   137    63    64    2
   138   142   145   ar
   139   142   144   ar
   140   145   147   ar
   141    68    69    1
   142    45    43    1
   143   143   144   ar
   144   178   179    1
   145   178   177    1
   146    22    27   am
   147    22    23    2
   148   179   180    2
   149    27    28    1
   150   144   146   ar
   151   147   148   ar
   152   200   197    1
   153    43    44    1
   154    43    40    1
   155    42    41    2
   156    69    72    1
   157    69    70    1
   158    41    40    1
   159    28    29    1
   160   199   198    2
   161   146   148   ar
   162   197   198    1
   163   197   196    1
   164    70    71    2
   165    40    39    1
   166   185   186    1
   167    29    30    2
   168    29    31   am
   169    82    81    1
   170   190   189    1
   171   196   193   am
   172   189   186    1
   173    31    32    1
   174   186   187    1
   175   188   187    2
   176    81    80    2
   177    81    83    1
   178   193   194    2
   179   193   192    1
   180    79    80    1
   181    79    78    1
   182    33    32    1
   183    33    34    2
   184    37    36   ar
   185    32    35    1
   186   195   192    1
   187    77    78    1
   188    77    74    1
   189   192   191    1
   190    36    35    1
   191    36    38   ar
   192    73    74    1
   193    75    74    1
   194    75    76    2
