@<TRIPOS>MOLECULE
tmp/5bwbA01.pdb
 165 165 0 0 0
SMALL
GASTEIGER

@<TRIPOS>ATOM
      1  N        -63.4610   32.7070   25.1120 N.3    67  TYR67      -0.1241
      2  CA       -63.0490   32.4080   23.7480 C.3    67  TYR67       0.1605
      3  C        -62.5620   30.9680   23.6770 C.2    67  TYR67       0.2264
      4  O        -61.9230   30.4770   24.6140 O.2    67  TYR67      -0.2867
      5  CB       -61.9370   33.3600   23.3240 C.3    67  TYR67       0.0534
      6  CG       -61.3300   33.0960   21.9600 C.ar   67  TYR67      -0.0201
      7  CD1      -61.9170   33.6000   20.8020 C.ar   67  TYR67      -0.0009
      8  CD2      -60.1460   32.3860   21.8360 C.ar   67  TYR67      -0.0009
      9  CE1      -61.3550   33.3800   19.5560 C.ar   67  TYR67       0.0417
     10  CE2      -59.5690   32.1590   20.5970 C.ar   67  TYR67       0.0417
     11  CZ       -60.1730   32.6580   19.4590 C.ar   67  TYR67       0.1957
     12  OH       -59.5890   32.4260   18.2300 O.3    67  TYR67      -0.2866
     13  N        -60.3510   28.2670   21.3550 N.3    69  ASP69      -0.1239
     14  CA       -59.3420   28.0970   20.3090 C.3    69  ASP69       0.1674
     15  C        -59.8070   27.0690   19.2730 C.2    69  ASP69       0.2266
     16  O        -60.1070   25.9280   19.6070 O.2    69  ASP69      -0.2867
     17  CB       -58.0170   27.6530   20.9310 C.3    69  ASP69       0.1410
     18  CG       -56.8300   27.7500   19.9690 C.2    69  ASP69       0.3668
     19  OD1      -57.0130   27.8010   18.7410 O.co2  69  ASP69      -0.2456
     20  OD2      -55.6870   27.7620   20.4560 O.co2  69  ASP69      -0.2456
     21  N        -53.3470   22.4680   21.3140 N.3    78  SER78      -0.1217
     22  CA       -54.1650   23.6650   21.5030 C.3    78  SER78       0.1889
     23  C        -55.4400   23.3750   22.2810 C.2    78  SER78       0.2288
     24  O        -55.8890   24.2240   23.0460 O.2    78  SER78      -0.2866
     25  CB       -54.5080   24.3200   20.1580 C.3    78  SER78       0.2089
     26  OG       -55.2030   23.4400   19.2990 O.3    78  SER78      -0.2183
     27  N        -55.9340   23.1790   26.3350 N.3    81  TRP81      -0.1227
     28  CA       -56.1740   24.4350   27.0600 C.3    81  TRP81       0.1737
     29  C        -57.6230   24.9210   26.9740 C.2    81  TRP81       0.2595
     30  O        -58.0610   25.7220   27.7880 O.2    81  TRP81      -0.2718
     31  CB       -55.2200   25.5310   26.5580 C.3    81  TRP81       0.0564
     32  CG       -53.7790   25.1100   26.5950 C.ar   81  TRP81       0.0003
     33  CD1      -52.9950   24.7860   25.5310 C.ar   81  TRP81       0.0946
     34  CD2      -52.9600   24.9440   27.7640 C.ar   81  TRP81       0.0152
     35  NE1      -51.7330   24.4330   25.9610 N.ar   81  TRP81      -0.2442
     36  CE2      -51.6880   24.5230   27.3270 C.ar   81  TRP81       0.0810
     37  CE3      -53.1810   25.1120   29.1380 C.ar   81  TRP81       0.0012
     38  CZ2      -50.6410   24.2670   28.2130 C.ar   81  TRP81       0.0191
     39  CZ3      -52.1360   24.8600   30.0210 C.ar   81  TRP81       0.0001
     40  CH2      -50.8850   24.4380   29.5520 C.ar   81  TRP81       0.0015
     41  N        -58.3590   24.4410   25.9790 N.am   82  ASN82      -0.1974
     42  CA       -59.7740   24.7900   25.8160 C.3    82  ASN82       0.1688
     43  C        -60.6370   24.2350   26.9430 C.2    82  ASN82       0.2292
     44  O        -60.2940   23.2130   27.5380 O.2    82  ASN82      -0.2864
     45  CB       -60.3130   24.2630   24.4730 C.3    82  ASN82       0.1181
     46  CG       -60.0520   25.2120   23.3060 C.2    82  ASN82       0.2629
     47  OD1      -59.9630   26.4320   23.4720 O.2    82  ASN82      -0.2716
     48  ND2      -59.9520   24.6470   22.1150 N.am   82  ASN82      -0.0877
     49  N        -58.3880   36.1190   29.7780 N.3   118  TYR118     -0.1241
     50  CA       -59.4810   36.0130   28.7930 C.3   118  TYR118      0.1605
     51  C        -60.0290   34.5870   28.6670 C.2   118  TYR118      0.2264
     52  O        -61.0460   34.3770   28.0070 O.2   118  TYR118     -0.2867
     53  CB       -59.0200   36.4950   27.4070 C.3   118  TYR118      0.0534
     54  CG       -58.0630   35.5560   26.6970 C.ar  118  TYR118     -0.0201
     55  CD1      -58.5370   34.4950   25.9300 C.ar  118  TYR118     -0.0009
     56  CD2      -56.6880   35.7310   26.7910 C.ar  118  TYR118     -0.0009
     57  CE1      -57.6700   33.6340   25.2740 C.ar  118  TYR118      0.0417
     58  CE2      -55.8090   34.8730   26.1460 C.ar  118  TYR118      0.0417
     59  CZ       -56.3050   33.8250   25.3880 C.ar  118  TYR118      0.1957
     60  OH       -55.4250   32.9590   24.7500 O.3   118  TYR118     -0.2866
     61  N        -67.8590   37.9080   23.5880 N.3   272  ILE272     -0.1231
     62  CA       -66.6470   37.1750   23.2190 C.3   272  ILE272      0.1692
     63  C        -66.2550   37.4190   21.7500 C.2   272  ILE272      0.2592
     64  O        -65.0800   37.6310   21.4380 O.2   272  ILE272     -0.2718
     65  CB       -66.8130   35.6670   23.5200 C.3   272  ILE272      0.0266
     66  CG1      -66.8760   35.4490   25.0400 C.3   272  ILE272      0.0019
     67  CG2      -65.6800   34.8410   22.9150 C.3   272  ILE272      0.0020
     68  CD1      -67.4990   34.1280   25.4540 C.3   272  ILE272      0.0001
     69  N        -67.2520   37.4320   20.8700 N.am  273  ASP273     -0.1974
     70  CA       -67.0350   37.6180   19.4370 C.3   273  ASP273      0.1709
     71  C        -66.3220   38.9160   19.0700 C.2   273  ASP273      0.2293
     72  O        -65.5440   38.9250   18.1280 O.2   273  ASP273     -0.2864
     73  CB       -68.3750   37.5320   18.6760 C.3   273  ASP273      0.1436
     74  CG       -68.8310   36.0960   18.4360 C.2   273  ASP273      0.3671
     75  OD1      -68.0170   35.1630   18.5730 O.co2 273  ASP273     -0.2456
     76  OD2      -70.0130   35.8970   18.1110 O.co2 273  ASP273     -0.2456
     77  N        -64.5920   40.9060   21.4170 N.3   275  GLU275     -0.1231
     78  CA       -63.6960   41.2000   22.5340 C.3   275  GLU275      0.1699
     79  C        -62.3350   41.7790   22.1150 C.2   275  GLU275      0.2592
     80  O        -61.8160   42.7200   22.7140 O.2   275  GLU275     -0.2718
     81  CB       -63.4780   39.8880   23.2920 C.3   275  GLU275      0.0402
     82  CG       -62.8450   40.0070   24.6610 C.3   275  GLU275      0.1161
     83  CD       -62.9270   38.7120   25.4740 C.2   275  GLU275      0.3649
     84  OE1      -63.3580   37.6530   24.9480 O.co2 275  GLU275     -0.2457
     85  OE2      -62.5510   38.7580   26.6590 O.co2 275  GLU275     -0.2457
     86  N        -61.7680   41.1960   21.0730 N.am  276  TRP276     -0.1976
     87  CA       -60.4200   41.4970   20.6560 C.3   276  TRP276      0.1640
     88  C        -60.3680   42.7540   19.7940 C.2   276  TRP276      0.2290
     89  O        -59.2830   43.2710   19.5230 O.2   276  TRP276     -0.2864
     90  CB       -59.8560   40.2770   19.9220 C.3   276  TRP276      0.0576
     91  CG       -58.6060   39.7390   20.5260 C.ar  276  TRP276      0.0006
     92  CD1      -57.4290   39.5250   19.8850 C.ar  276  TRP276      0.0946
     93  CD2      -58.3940   39.3580   21.8960 C.ar  276  TRP276      0.0152
     94  NE1      -56.4940   39.0350   20.7590 N.ar  276  TRP276     -0.2442
     95  CE2      -57.0560   38.9270   22.0030 C.ar  276  TRP276      0.0810
     96  CE3      -59.1970   39.3530   23.0380 C.ar  276  TRP276      0.0012
     97  CZ2      -56.5040   38.4770   23.2040 C.ar  276  TRP276      0.0191
     98  CZ3      -58.6450   38.9140   24.2420 C.ar  276  TRP276      0.0001
     99  CH2      -57.3120   38.4800   24.3120 C.ar  276  TRP276      0.0015
    100  N        -49.3000   39.2230   22.5750 N.3   285  PHE285     -0.1241
    101  CA       -49.2000   39.1200   24.0270 C.3   285  PHE285      0.1605
    102  C        -49.9110   40.2580   24.7830 C.2   285  PHE285      0.2264
    103  O        -49.4440   40.7520   25.8230 O.2   285  PHE285     -0.2867
    104  CB       -47.7390   38.9830   24.4570 C.3   285  PHE285      0.0534
    105  CG       -47.5410   38.0400   25.6010 C.ar  285  PHE285     -0.0203
    106  CD1      -48.4120   38.0380   26.6800 C.ar  285  PHE285     -0.0042
    107  CD2      -46.4880   37.1510   25.6010 C.ar  285  PHE285     -0.0042
    108  CE1      -48.2330   37.1710   27.7360 C.ar  285  PHE285     -0.0003
    109  CE2      -46.3080   36.2850   26.6520 C.ar  285  PHE285     -0.0003
    110  CZ       -47.1760   36.2940   27.7220 C.ar  285  PHE285     -0.0000
    111  N        -53.9930   41.4960   25.9590 N.3   287  PHE287     -0.1241
    112  CA       -55.3200   40.9740   26.1990 C.3   287  PHE287      0.1605
    113  C        -56.2300   42.1160   26.6090 C.2   287  PHE287      0.2264
    114  O        -55.8260   43.0340   27.3250 O.2   287  PHE287     -0.2867
    115  CB       -55.2740   39.8750   27.2750 C.3   287  PHE287      0.0534
    116  CG       -54.0980   38.9270   27.1320 C.ar  287  PHE287     -0.0203
    117  CD1      -54.0310   38.0310   26.0710 C.ar  287  PHE287     -0.0042
    118  CD2      -53.0490   38.9460   28.0490 C.ar  287  PHE287     -0.0042
    119  CE1      -52.9500   37.1670   25.9290 C.ar  287  PHE287     -0.0003
    120  CE2      -51.9680   38.0840   27.9130 C.ar  287  PHE287     -0.0003
    121  CZ       -51.9180   37.1920   26.8520 C.ar  287  PHE287     -0.0000
    122  N        -45.3460   30.5000   21.6350 N.3   327  PHE327     -0.1227
    123  CA       -46.7790   30.2230   21.5330 C.3   327  PHE327      0.1736
    124  C        -47.5100   31.4020   20.8950 C.2   327  PHE327      0.2595
    125  O        -48.4200   31.2260   20.0780 O.2   327  PHE327     -0.2718
    126  CB       -47.3700   29.9560   22.9210 C.3   327  PHE327      0.0547
    127  CG       -48.4310   28.8860   22.9550 C.ar  327  PHE327     -0.0202
    128  CD1      -49.2540   28.6400   21.8600 C.ar  327  PHE327     -0.0042
    129  CD2      -48.6270   28.1350   24.1130 C.ar  327  PHE327     -0.0042
    130  CE1      -50.2220   27.6510   21.9060 C.ar  327  PHE327     -0.0003
    131  CE2      -49.5980   27.1470   24.1700 C.ar  327  PHE327     -0.0003
    132  CZ       -50.3960   26.9020   23.0640 C.ar  327  PHE327     -0.0000
    133  N        -47.0770   32.6030   21.2650 N.am  328  PHE328     -0.1976
    134  CA       -47.7080   33.8480   20.8390 C.3   328  PHE328      0.1639
    135  C        -47.2850   34.2770   19.4270 C.2   328  PHE328      0.2290
    136  O        -48.0840   34.8470   18.6810 O.2   328  PHE328     -0.2864
    137  CB       -47.4070   34.9520   21.8620 C.3   328  PHE328      0.0560
    138  CG       -47.9010   34.6350   23.2480 C.ar  328  PHE328     -0.0200
    139  CD1      -47.1300   33.8680   24.1180 C.ar  328  PHE328     -0.0042
    140  CD2      -49.1410   35.0670   23.6670 C.ar  328  PHE328     -0.0042
    141  CE1      -47.5870   33.5530   25.3840 C.ar  328  PHE328     -0.0003
    142  CE2      -49.6030   34.7540   24.9300 C.ar  328  PHE328     -0.0003
    143  CZ       -48.8260   34.0070   25.7960 C.ar  328  PHE328     -0.0000
    144  N        -49.2320   32.1320   16.8460 N.3   331  TYR331     -0.1241
    145  CA       -50.6240   32.5330   16.6740 C.3   331  TYR331      0.1605
    146  C        -50.7970   33.9090   16.0290 C.2   331  TYR331      0.2264
    147  O        -51.7730   34.1210   15.3290 O.2   331  TYR331     -0.2867
    148  CB       -51.3750   32.4600   18.0030 C.3   331  TYR331      0.0534
    149  CG       -51.9260   31.0770   18.3030 C.ar  331  TYR331     -0.0201
    150  CD1      -51.0770   29.9970   18.4920 C.ar  331  TYR331     -0.0009
    151  CD2      -53.2960   30.8550   18.3910 C.ar  331  TYR331     -0.0009
    152  CE1      -51.5720   28.7250   18.7520 C.ar  331  TYR331      0.0417
    153  CE2      -53.8070   29.5930   18.6570 C.ar  331  TYR331      0.0417
    154  CZ       -52.9400   28.5250   18.8410 C.ar  331  TYR331      0.1957
    155  OH       -53.4200   27.2690   19.1180 O.3   331  TYR331     -0.2866
    156  N        -44.3900   28.0910   26.7500 N.3   437  HIS437     -0.1241
    157  CA       -45.2260   28.6950   27.7750 C.3   437  HIS437      0.1621
    158  C        -46.2890   27.7020   28.2460 C.2   437  HIS437      0.2264
    159  O        -47.0810   27.2120   27.4440 O.2   437  HIS437     -0.2867
    160  CB       -45.8780   29.9430   27.1860 C.3   437  HIS437      0.0745
    161  CG       -46.4920   30.8600   28.1920 C.ar  437  HIS437      0.0817
    162  ND1      -45.7570   31.5170   29.1550 N.ar  437  HIS437     -0.2268
    163  CD2      -47.7720   31.2740   28.3480 C.ar  437  HIS437      0.1154
    164  CE1      -46.5590   32.2740   29.8810 C.ar  437  HIS437      0.1986
    165  NE2      -47.7890   32.1460   29.4090 N.ar  437  HIS437     -0.2212
@<TRIPOS>BOND
     1   147   146    2
     2   146   145    1
     3   145   144    1
     4   145   148    1
     5   148   149    1
     6    76    74   ar
     7    72    71    2
     8    12    11    1
     9   149   151   ar
    10   149   150   ar
    11   151   153   ar
    12    74    75   ar
    13    74    73    1
    14   150   152   ar
    15   153   154   ar
    16    73    70    1
    17   136   135    2
    18    19    18   ar
    19   152   154   ar
    20   154   155    1
    21    71    70    1
    22    15    16    2
    23    15    14    1
    24    26    25    1
    25   135   134    1
    26    70    69    1
    27    11     9   ar
    28    11    10   ar
    29    89    88    2
    30     9     7   ar
    31    88    87    1
    32    92    91   ar
    33    92    94   ar
    34    90    91    1
    35    90    87    1
    36    18    20   ar
    37    18    17    1
    38   125   124    2
    39    25    22    1
    40    14    17    1
    41    14    13    1
    42    91    93   ar
    43    10     8   ar
    44    87    86    1
    45    94    95   ar
    46     7     6   ar
    47   134   133    1
    48   134   137    1
    49    69    63   am
    50   124   133   am
    51   124   123    1
    52    86    79   am
    53    21    22    1
    54    77    78    1
    55    64    63    2
    56    22    23    1
    57   123   122    1
    58   123   126    1
    59    63    62    1
    60     8     6   ar
    61   128   130   ar
    62   128   127   ar
    63   137   138    1
    64    93    95   ar
    65    93    96   ar
    66   130   132   ar
    67     6     5    1
    68    95    97   ar
    69    48    46   am
    70    79    78    1
    71    79    80    2
    72    23    24    2
    73    78    81    1
    74   100   101    1
    75    67    65    1
    76   126   127    1
    77   127   129   ar
    78    96    98   ar
    79   132   131   ar
    80    97    99   ar
    81    62    65    1
    82    62    61    1
    83   138   140   ar
    84   138   139   ar
    85    81    82    1
    86    46    47    2
    87    46    45    1
    88     5     2    1
    89    65    66    1
    90   140   142   ar
    91     3     2    1
    92     3     4    2
    93     2     1    1
    94   101   104    1
    95   101   102    1
    96   129   131   ar
    97   139   141   ar
    98    98    99   ar
    99   104   105    1
   100    45    42    1
   101    82    83    1
   102    60    59    1
   103   102   103    2
   104   142   143   ar
   105    84    83   ar
   106    66    68    1
   107    57    59   ar
   108    57    55   ar
   109   141   143   ar
   110    59    58   ar
   111    83    85   ar
   112    33    35   ar
   113    33    32   ar
   114   105   107   ar
   115   105   106   ar
   116   107   109   ar
   117    42    41    1
   118    42    43    1
   119   119   117   ar
   120   119   121   ar
   121    55    54   ar
   122   111   112    1
   123    35    36   ar
   124    41    29   am
   125   117   116   ar
   126    58    56   ar
   127   112   113    1
   128   112   115    1
   129    27    28    1
   130    31    32    1
   131    31    28    1
   132    32    34   ar
   133   113   114    2
   134   109   110   ar
   135   106   108   ar
   136    54    56   ar
   137    54    53    1
   138   156   157    1
   139   121   120   ar
   140    43    44    2
   141    29    28    1
   142    29    30    2
   143   116   115    1
   144   116   118   ar
   145   160   157    1
   146   160   161    1
   147    36    34   ar
   148    36    38   ar
   149    53    50    1
   150   159   158    2
   151   110   108   ar
   152    34    37   ar
   153   157   158    1
   154   120   118   ar
   155    52    51    2
   156   161   163   ar
   157   161   162   ar
   158    38    40   ar
   159   163   165   ar
   160    51    50    1
   161    50    49    1
   162    37    39   ar
   163   162   164   ar
   164   165   164   ar
   165    40    39   ar
