@<TRIPOS>MOLECULE
tmp/5bwcA00.pdb
 193 193 0 0 0
SMALL
GASTEIGER

@<TRIPOS>ATOM
      1  N         52.7630  -25.7370    2.2530 N.3    67  TYR67      -0.1241
      2  CA        52.7440  -26.3070    0.9020 C.3    67  TYR67       0.1605
      3  C         51.7480  -27.4660    0.8120 C.2    67  TYR67       0.2264
      4  O         51.6230  -28.2580    1.7460 O.2    67  TYR67      -0.2867
      5  CB        54.1420  -26.8080    0.5290 C.3    67  TYR67       0.0534
      6  CG        54.2340  -27.5100   -0.8110 C.ar   67  TYR67      -0.0201
      7  CD1       54.4700  -26.7900   -1.9920 C.ar   67  TYR67      -0.0009
      8  CD2       54.0910  -28.8990   -0.9030 C.ar   67  TYR67      -0.0009
      9  CE1       54.5540  -27.4340   -3.2190 C.ar   67  TYR67       0.0417
     10  CE2       54.1690  -29.5530   -2.1250 C.ar   67  TYR67       0.0417
     11  CZ        54.3990  -28.8240   -3.2800 C.ar   67  TYR67       0.1957
     12  OH        54.4840  -29.4920   -4.4900 O.3    67  TYR67      -0.2866
     13  N         50.5630  -30.7150   -1.5080 N.3    69  ASP69      -0.1239
     14  CA        50.8960  -31.6820   -2.5510 C.3    69  ASP69       0.1674
     15  C         49.7700  -31.7640   -3.5870 C.2    69  ASP69       0.2266
     16  O         48.6280  -32.0150   -3.2450 O.2    69  ASP69      -0.2867
     17  CB        51.1270  -33.0590   -1.9220 C.3    69  ASP69       0.1410
     18  CG        51.6610  -34.0880   -2.9120 C.2    69  ASP69       0.3668
     19  OD1       51.5820  -33.8710   -4.1360 O.co2  69  ASP69      -0.2456
     20  OD2       52.1700  -35.1270   -2.4560 O.co2  69  ASP69      -0.2456
     21  N         47.9970  -37.0160    3.3970 N.3    81  TRP81      -0.1241
     22  CA        48.9690  -36.1770    4.1020 C.3    81  TRP81       0.1605
     23  C         48.6740  -34.6820    4.0220 C.2    81  TRP81       0.2264
     24  O         49.2610  -33.9060    4.7610 O.2    81  TRP81      -0.2867
     25  CB        50.3770  -36.4380    3.5590 C.3    81  TRP81       0.0550
     26  CG        50.7070  -37.8740    3.5870 C.ar   81  TRP81       0.0003
     27  CD1       50.7980  -38.7190    2.5200 C.ar   81  TRP81       0.0946
     28  CD2       50.9400  -38.6700    4.7510 C.ar   81  TRP81       0.0152
     29  NE1       51.0950  -39.9900    2.9500 N.ar   81  TRP81      -0.2442
     30  CE2       51.1920  -39.9850    4.3160 C.ar   81  TRP81       0.0810
     31  CE3       50.9790  -38.3930    6.1240 C.ar   81  TRP81       0.0012
     32  CZ2       51.4780  -41.0260    5.2040 C.ar   81  TRP81       0.0191
     33  CZ3       51.2670  -39.4250    7.0050 C.ar   81  TRP81       0.0001
     34  CH2       51.5070  -40.7290    6.5410 C.ar   81  TRP81       0.0015
     35  N         54.8930  -35.3570   11.5850 N.3   114  GLY114     -0.1210
     36  CA        56.0050  -35.1600   10.6590 C.3   114  GLY114      0.1956
     37  C         55.6140  -34.2600    9.5000 C.2   114  GLY114      0.2612
     38  O         54.6090  -33.5250    9.5610 O.2   114  GLY114     -0.2717
     39  N         56.4060  -34.3350    8.4340 N.am  115  GLY115     -0.1942
     40  CA        56.1980  -33.5120    7.2380 C.3   115  GLY115      0.2014
     41  C         57.3900  -32.6370    6.8820 C.2   115  GLY115      0.2639
     42  O         57.2030  -31.5580    6.3080 O.2   115  GLY115     -0.2714
     43  N         58.6040  -33.1010    7.2160 N.am  116  GLY116     -0.1954
     44  CA        59.8580  -32.4160    6.8760 C.3   116  GLY116      0.1869
     45  C         60.0080  -30.9970    7.4110 C.2   116  GLY116      0.2309
     46  O         60.7540  -30.2030    6.8550 O.2   116  GLY116     -0.2863
     47  N         58.2230  -28.7470    6.8900 N.3   118  TYR118     -0.1227
     48  CA        57.5730  -27.8560    5.9180 C.3   118  TYR118      0.1736
     49  C         56.0600  -28.0840    5.8060 C.2   118  TYR118      0.2596
     50  O         55.3880  -27.3520    5.0830 O.2   118  TYR118     -0.2718
     51  CB        58.2160  -27.9810    4.5200 C.3   118  TYR118      0.0548
     52  CG        57.9010  -29.2730    3.7670 C.ar  118  TYR118     -0.0200
     53  CD1       56.7420  -29.3970    2.9990 C.ar  118  TYR118     -0.0009
     54  CD2       58.7800  -30.3610    3.8110 C.ar  118  TYR118     -0.0009
     55  CE1       56.4540  -30.5650    2.3070 C.ar  118  TYR118      0.0417
     56  CE2       58.5030  -31.5370    3.1220 C.ar  118  TYR118      0.0417
     57  CZ        57.3360  -31.6410    2.3710 C.ar  118  TYR118      0.1957
     58  OH        57.0640  -32.8140    1.6910 O.3   118  TYR118     -0.2866
     59  N         55.5350  -29.0900    6.5020 N.am  119  SER119     -0.1952
     60  CA        54.1420  -29.4820    6.3500 C.3   119  SER119      0.1924
     61  C         53.6700  -30.3230    7.5320 C.2   119  SER119      0.2314
     62  O         54.4610  -30.6680    8.4060 O.2   119  SER119     -0.2863
     63  CB        53.9670  -30.2740    5.0510 C.3   119  SER119      0.2116
     64  OG        54.8060  -31.4190    5.0150 O.3   119  SER119     -0.2180
     65  N         45.8930  -39.8190   11.8680 N.3   127  TYR127     -0.1241
     66  CA        46.2680  -39.4570   13.2470 C.3   127  TYR127      0.1605
     67  C         45.0990  -39.4590   14.2610 C.2   127  TYR127      0.2264
     68  O         45.2730  -39.0210   15.3900 O.2   127  TYR127     -0.2867
     69  CB        46.9670  -38.0870   13.3010 C.3   127  TYR127      0.0534
     70  CG        48.1900  -37.8920   12.4190 C.ar  127  TYR127     -0.0201
     71  CD1       49.0040  -38.9530   12.0310 C.ar  127  TYR127     -0.0009
     72  CD2       48.5500  -36.6210   12.0130 C.ar  127  TYR127     -0.0009
     73  CE1       50.1120  -38.7430   11.2230 C.ar  127  TYR127      0.0417
     74  CE2       49.6600  -36.3980   11.2290 C.ar  127  TYR127      0.0417
     75  CZ        50.4360  -37.4540   10.8290 C.ar  127  TYR127      0.1957
     76  OH        51.5310  -37.1950   10.0440 O.3   127  TYR127     -0.2866
     77  N         56.7200  -39.0780   14.1860 N.3   196  GLU196     -0.1231
     78  CA        57.3070  -39.7110   13.0110 C.3   196  GLU196      0.1699
     79  C         57.9810  -38.6760   12.1300 C.2   196  GLU196      0.2592
     80  O         57.5000  -37.5610   12.0230 O.2   196  GLU196     -0.2718
     81  CB        56.2400  -40.4730   12.2250 C.3   196  GLU196      0.0402
     82  CG        56.7520  -41.2820   11.0410 C.3   196  GLU196      0.1161
     83  CD        56.7360  -40.5230    9.7270 C.2   196  GLU196      0.3649
     84  OE1       56.0940  -39.4520    9.6500 O.co2 196  GLU196     -0.2457
     85  OE2       57.3680  -41.0070    8.7600 O.co2 196  GLU196     -0.2457
     86  N         59.1040  -39.0600   11.5180 N.am  197  SER197     -0.1952
     87  CA        59.7940  -38.2130   10.5420 C.3   197  SER197      0.1924
     88  C         60.2990  -36.9450   11.2720 C.2   197  SER197      0.2314
     89  O         60.9920  -37.0780   12.2860 O.2   197  SER197     -0.2863
     90  CB        58.8770  -37.9390    9.3420 C.3   197  SER197      0.2116
     91  OG        59.5600  -37.3100    8.2680 O.3   197  SER197     -0.2180
     92  N         60.8980  -23.1360   -1.9350 N.3   276  TRP276     -0.1241
     93  CA        61.8520  -24.1320   -2.4060 C.3   276  TRP276      0.1605
     94  C         63.0030  -23.5330   -3.1840 C.2   276  TRP276      0.2264
     95  O         63.9930  -24.2130   -3.4160 O.2   276  TRP276     -0.2867
     96  CB        61.1310  -25.1980   -3.2290 C.3   276  TRP276      0.0550
     97  CG        60.1270  -25.8770   -2.3860 C.ar  276  TRP276      0.0003
     98  CD1       58.8110  -25.5400   -2.2410 C.ar  276  TRP276      0.0946
     99  CD2       60.3680  -26.9620   -1.4940 C.ar  276  TRP276      0.0152
    100  NE1       58.2080  -26.3720   -1.3340 N.ar  276  TRP276     -0.2442
    101  CE2       59.1410  -27.2560   -0.8580 C.ar  276  TRP276      0.0810
    102  CE3       61.4990  -27.7310   -1.1820 C.ar  276  TRP276      0.0012
    103  CZ2       59.0100  -28.2880    0.0730 C.ar  276  TRP276      0.0191
    104  CZ3       61.3730  -28.7600   -0.2560 C.ar  276  TRP276      0.0001
    105  CH2       60.1330  -29.0310    0.3600 C.ar  276  TRP276      0.0015
    106  N         68.7840  -31.2780   -4.8690 N.3   283  SER283     -0.1202
    107  CA        68.7400  -32.3050   -3.8480 C.3   283  SER283      0.2020
    108  C         67.3730  -32.9500   -3.6780 C.2   283  SER283      0.2619
    109  O         66.3540  -32.4230   -4.1170 O.2   283  SER283     -0.2717
    110  CB        69.1430  -31.6960   -2.5090 C.3   283  SER283      0.2103
    111  OG        68.2660  -30.6380   -2.1590 O.3   283  SER283     -0.2182
    112  N         67.3660  -34.0980   -3.0150 N.am  284  ILE284     -0.1965
    113  CA        66.1300  -34.6490   -2.4770 C.3   284  ILE284      0.1727
    114  C         66.3140  -34.9030   -0.9890 C.2   284  ILE284      0.2616
    115  O         67.4410  -34.9460   -0.4950 O.2   284  ILE284     -0.2715
    116  CB        65.6640  -35.9100   -3.2230 C.3   284  ILE284      0.0290
    117  CG1       66.7640  -36.9700   -3.2610 C.3   284  ILE284      0.0022
    118  CG2       65.2470  -35.5510   -4.6360 C.3   284  ILE284      0.0023
    119  CD1       66.2450  -38.3550   -3.5810 C.3   284  ILE284      0.0001
    120  N         65.1930  -35.0210   -0.2860 N.am  285  PHE285     -0.1974
    121  CA        65.1700  -35.1560    1.1670 C.3   285  PHE285      0.1639
    122  C         65.8820  -33.9580    1.8410 C.2   285  PHE285      0.2290
    123  O         66.6680  -34.1130    2.7800 O.2   285  PHE285     -0.2864
    124  CB        65.7930  -36.5020    1.5790 C.3   285  PHE285      0.0560
    125  CG        65.0680  -37.1910    2.7020 C.ar  285  PHE285     -0.0200
    126  CD1       64.6680  -36.4910    3.8370 C.ar  285  PHE285     -0.0042
    127  CD2       64.7810  -38.5530    2.6240 C.ar  285  PHE285     -0.0042
    128  CE1       63.9920  -37.1320    4.8650 C.ar  285  PHE285     -0.0003
    129  CE2       64.1130  -39.1920    3.6460 C.ar  285  PHE285     -0.0003
    130  CZ        63.7150  -38.4840    4.7680 C.ar  285  PHE285     -0.0000
    131  N         64.9770  -29.7370    3.0080 N.3   287  PHE287     -0.1241
    132  CA        63.8880  -28.8040    3.2380 C.3   287  PHE287      0.1605
    133  C         64.4600  -27.4540    3.6440 C.2   287  PHE287      0.2264
    134  O         65.5160  -27.3620    4.2630 O.2   287  PHE287     -0.2867
    135  CB        62.9440  -29.3740    4.3000 C.3   287  PHE287      0.0534
    136  CG        62.6460  -30.8490    4.1160 C.ar  287  PHE287     -0.0203
    137  CD1       61.9980  -31.3030    2.9760 C.ar  287  PHE287     -0.0042
    138  CD2       63.0410  -31.7870    5.0630 C.ar  287  PHE287     -0.0042
    139  CE1       61.7390  -32.6570    2.7860 C.ar  287  PHE287     -0.0003
    140  CE2       62.7680  -33.1450    4.8890 C.ar  287  PHE287     -0.0003
    141  CZ        62.1180  -33.5820    3.7500 C.ar  287  PHE287     -0.0000
    142  N         59.5810  -42.7510   -1.2740 N.3   327  PHE327     -0.1227
    143  CA        58.6800  -41.5950   -1.3690 C.3   327  PHE327      0.1736
    144  C         59.3890  -40.4010   -2.0210 C.2   327  PHE327      0.2595
    145  O         58.8090  -39.6690   -2.8340 O.2   327  PHE327     -0.2718
    146  CB        58.2030  -41.1920    0.0350 C.3   327  PHE327      0.0547
    147  CG        56.7480  -40.7550    0.1160 C.ar  327  PHE327     -0.0202
    148  CD1       56.0910  -40.1740   -0.9610 C.ar  327  PHE327     -0.0042
    149  CD2       56.0540  -40.8850    1.3150 C.ar  327  PHE327     -0.0042
    150  CE1       54.7680  -39.7710   -0.8570 C.ar  327  PHE327     -0.0003
    151  CE2       54.7310  -40.4720    1.4260 C.ar  327  PHE327     -0.0003
    152  CZ        54.0870  -39.9160    0.3370 C.ar  327  PHE327     -0.0000
    153  N         60.6650  -40.2370   -1.6780 N.am  328  PHE328     -0.1976
    154  CA        61.4400  -39.0790   -2.0740 C.3   328  PHE328      0.1639
    155  C         61.9740  -39.1880   -3.4860 C.2   328  PHE328      0.2290
    156  O         61.9530  -38.2040   -4.2250 O.2   328  PHE328     -0.2864
    157  CB        62.5490  -38.8370   -1.0430 C.3   328  PHE328      0.0560
    158  CG        61.9980  -38.5030    0.3030 C.ar  328  PHE328     -0.0200
    159  CD1       61.7160  -39.5080    1.2240 C.ar  328  PHE328     -0.0042
    160  CD2       61.6460  -37.1980    0.6040 C.ar  328  PHE328     -0.0042
    161  CE1       61.1440  -39.2010    2.4430 C.ar  328  PHE328     -0.0003
    162  CE2       61.0720  -36.8880    1.8150 C.ar  328  PHE328     -0.0003
    163  CZ        60.8240  -37.8850    2.7370 C.ar  328  PHE328     -0.0000
    164  N         59.2240  -38.5050   -6.1500 N.3   331  TYR331     -0.1227
    165  CA        58.8570  -37.1160   -6.3640 C.3   331  TYR331      0.1736
    166  C         59.9340  -36.3460   -7.1020 C.2   331  TYR331      0.2596
    167  O         59.6000  -35.4720   -7.8840 O.2   331  TYR331     -0.2718
    168  CB        58.4970  -36.4250   -5.0430 C.3   331  TYR331      0.0548
    169  CG        57.0370  -36.5880   -4.6660 C.ar  331  TYR331     -0.0200
    170  CD1       56.5180  -37.8410   -4.3420 C.ar  331  TYR331     -0.0009
    171  CD2       56.1690  -35.4990   -4.6600 C.ar  331  TYR331     -0.0009
    172  CE1       55.1760  -38.0070   -4.0200 C.ar  331  TYR331      0.0417
    173  CE2       54.8290  -35.6520   -4.3310 C.ar  331  TYR331      0.0417
    174  CZ        54.3340  -36.9070   -4.0060 C.ar  331  TYR331      0.1957
    175  OH        53.0120  -37.0720   -3.6720 O.3   331  TYR331     -0.2866
    176  N         61.2040  -36.6900   -6.8940 N.am  332  GLY332     -0.1957
    177  CA        62.3150  -35.8560   -7.3640 C.3   332  GLY332      0.1869
    178  C         63.3890  -36.4420   -8.2680 C.2   332  GLY332      0.2309
    179  O         64.1580  -35.6850   -8.8710 O.2   332  GLY332     -0.2863
    180  N         58.0570  -44.6670    3.9160 N.3   437  HIS437     -0.1226
    181  CA        58.0630  -43.5990    4.9200 C.3   437  HIS437      0.1752
    182  C         56.6360  -43.2140    5.3150 C.2   437  HIS437      0.2596
    183  O         55.8800  -42.7170    4.4910 O.2   437  HIS437     -0.2718
    184  CB        58.7710  -42.3680    4.3290 C.3   437  HIS437      0.0759
    185  CG        59.3280  -41.4200    5.3440 C.ar  437  HIS437      0.0818
    186  ND1       60.1450  -41.8290    6.3750 N.ar  437  HIS437     -0.2268
    187  CD2       59.2430  -40.0680    5.4460 C.ar  437  HIS437      0.1154
    188  CE1       60.5160  -40.7760    7.0850 C.ar  437  HIS437      0.1986
    189  NE2       59.9850  -39.6940    6.5410 N.ar  437  HIS437     -0.2212
    190  N         56.2740  -43.4490    6.5710 N.am  438  GLY438     -0.1957
    191  CA        55.0140  -42.9550    7.1290 C.3   438  GLY438      0.1869
    192  C         53.9000  -43.9910    7.2080 C.2   438  GLY438      0.2309
    193  O         52.8100  -43.6890    7.7180 O.2   438  GLY438     -0.2863
@<TRIPOS>BOND
     1   179   178    2
     2   178   177    1
     3   167   166    2
     4   177   176    1
     5   166   176   am
     6   166   165    1
     7   165   164    1
     8   165   168    1
     9   168   169    1
    10   106   107    1
    11   169   171   ar
    12   169   170   ar
    13   171   173   ar
    14   118   116    1
    15    12    11    1
    16   170   172   ar
    17   173   174   ar
    18   156   155    2
    19    19    18   ar
    20   109   108    2
    21   172   174   ar
    22   174   175    1
    23   107   108    1
    24   107   110    1
    25   108   112   am
    26    15    16    2
    27    15    14    1
    28   119   117    1
    29   155   154    1
    30    95    94    2
    31    11     9   ar
    32    11    10   ar
    33   117   116    1
    34    96    93    1
    35    96    97    1
    36   116   113    1
    37     9     7   ar
    38    94    93    1
    39   112   113    1
    40    18    20   ar
    41    18    17    1
    42   145   144    2
    43    14    17    1
    44    14    13    1
    45   110   111    1
    46   113   114    1
    47    93    92    1
    48    97    98   ar
    49    97    99   ar
    50    98   100   ar
    51    10     8   ar
    52   154   153    1
    53   154   157    1
    54   144   153   am
    55   144   143    1
    56     7     6   ar
    57    99   102   ar
    58    99   101   ar
    59   143   142    1
    60   143   146    1
    61   100   101   ar
    62   102   104   ar
    63   157   158    1
    64   114   115    2
    65   114   120   am
    66   148   150   ar
    67   148   147   ar
    68     8     6   ar
    69   101   103   ar
    70   150   152   ar
    71     6     5    1
    72   120   121    1
    73   104   105   ar
    74   146   147    1
    75   103   105   ar
    76   147   149   ar
    77   158   160   ar
    78   158   159   ar
    79   152   151   ar
    80     5     2    1
    81   160   162   ar
    82     3     2    1
    83     3     4    2
    84     2     1    1
    85   121   124    1
    86   121   122    1
    87   159   161   ar
    88   149   151   ar
    89   124   125    1
    90    58    57    1
    91   162   163   ar
    92   122   123    2
    93    55    57   ar
    94    55    53   ar
    95    57    56   ar
    96   161   163   ar
    97    27    29   ar
    98    27    26   ar
    99   127   125   ar
   100   127   129   ar
   101   125   126   ar
   102   139   137   ar
   103   139   141   ar
   104    29    30   ar
   105   137   136   ar
   106    53    52   ar
   107   131   132    1
   108    56    54   ar
   109   132   133    1
   110   132   135    1
   111    21    22    1
   112    25    26    1
   113    25    22    1
   114    26    28   ar
   115   133   134    2
   116   129   130   ar
   117   141   140   ar
   118    52    54   ar
   119    52    51    1
   120   126   128   ar
   121   180   181    1
   122    23    22    1
   123    23    24    2
   124   136   135    1
   125   136   138   ar
   126    30    28   ar
   127    30    32   ar
   128   184   181    1
   129   184   185    1
   130   183   182    2
   131    51    48    1
   132    28    31   ar
   133   130   128   ar
   134   140   138   ar
   135   181   182    1
   136    64    63    1
   137    63    60    1
   138    50    49    2
   139    32    34   ar
   140   182   190   am
   141   185   187   ar
   142   185   186   ar
   143   187   189   ar
   144    49    48    1
   145    49    59   am
   146    48    47    1
   147    31    33   ar
   148    42    41    2
   149    60    59    1
   150    60    61    1
   151   186   188   ar
   152   189   188   ar
   153    34    33   ar
   154   190   191    1
   155    46    45    2
   156    44    43    1
   157    44    45    1
   158    41    43   am
   159    41    40    1
   160   191   192    1
   161   192   193    2
   162    40    39    1
   163    61    62    2
   164    91    90    1
   165    39    37   am
   166    85    83   ar
   167    90    87    1
   168    37    38    2
   169    37    36    1
   170    84    83   ar
   171    83    82    1
   172    76    75    1
   173    87    88    1
   174    87    86    1
   175    36    35    1
   176    75    73   ar
   177    75    74   ar
   178    82    81    1
   179    73    71   ar
   180    74    72   ar
   181    88    89    2
   182    86    79   am
   183    65    66    1
   184    72    70   ar
   185    80    79    2
   186    71    70   ar
   187    79    78    1
   188    81    78    1
   189    70    69    1
   190    78    77    1
   191    66    69    1
   192    66    67    1
   193    67    68    2
