@<TRIPOS>MOLECULE
tmp/5bwdA01.pdb
 90 82 0 0 0
SMALL
GASTEIGER

@<TRIPOS>ATOM
      1  N          6.0450  -66.2060    3.8180 N.3    41  ARG41      -0.1245
      2  CA         4.8150  -65.4350    3.9420 C.3    41  ARG41       0.1563
      3  C          4.5770  -64.5500    2.7240 C.2    41  ARG41       0.2260
      4  O          3.4900  -64.5640    2.1430 O.2    41  ARG41      -0.2867
      5  CB         4.8430  -64.5720    5.2050 C.3    41  ARG41       0.0307
      6  CG         3.5600  -63.7740    5.4210 C.3    41  ARG41       0.0489
      7  CD         3.8480  -62.3450    5.8500 C.3    41  ARG41       0.2205
      8  NE         4.5300  -62.2730    7.1390 N.pl3  41  ARG41      -0.0865
      9  CZ         3.9050  -62.2710    8.3120 C.cat  41  ARG41       0.5346
     10  NH1        4.6040  -62.2000    9.4360 N.pl3  41  ARG41       0.1354
     11  NH2        2.5790  -62.3430    8.3630 N.pl3  41  ARG41       0.1354
     12  N          0.2280  -58.3920    7.2340 N.3   110  PHE110     -0.1241
     13  CA         0.6040  -57.7280    8.4820 C.3   110  PHE110      0.1605
     14  C          0.1640  -56.2650    8.4700 C.2   110  PHE110      0.2264
     15  O         -0.3770  -55.7640    9.4550 O.2   110  PHE110     -0.2867
     16  CB         2.1130  -57.8130    8.7290 C.3   110  PHE110      0.0534
     17  CG         2.5180  -57.3590   10.1030 C.ar  110  PHE110     -0.0203
     18  CD1        2.5400  -58.2520   11.1610 C.ar  110  PHE110     -0.0042
     19  CD2        2.8540  -56.0360   10.3410 C.ar  110  PHE110     -0.0042
     20  CE1        2.8980  -57.8360   12.4270 C.ar  110  PHE110     -0.0003
     21  CE2        3.2130  -55.6130   11.6050 C.ar  110  PHE110     -0.0003
     22  CZ         3.2340  -56.5130   12.6500 C.ar  110  PHE110     -0.0000
     23  N          0.4820  -62.7300   16.2130 N.3   282  GLU282     -0.1245
     24  CA         0.7550  -61.6940   15.2290 C.3   282  GLU282      0.1567
     25  C         -0.4350  -60.7480   15.0930 C.2   282  GLU282      0.2260
     26  O         -0.2690  -59.5300   15.0210 O.2   282  GLU282     -0.2867
     27  CB         1.0960  -62.3330   13.8830 C.3   282  GLU282      0.0388
     28  CG         1.6640  -61.3780   12.8600 C.3   282  GLU282      0.1160
     29  CD         2.3080  -62.1020   11.6930 C.2   282  GLU282      0.3649
     30  OE1        1.5870  -62.8020   10.9530 O.co2 282  GLU282     -0.2457
     31  OE2        3.5380  -61.9740   11.5190 O.co2 282  GLU282     -0.2457
     32  N         -0.5020  -58.4070   17.9360 N.3   285  GLU285     -0.1245
     33  CA         0.4680  -57.3330   17.7530 C.3   285  GLU285      0.1567
     34  C         -0.1260  -56.2620   16.8490 C.2   285  GLU285      0.2260
     35  O         -0.0330  -55.0700   17.1410 O.2   285  GLU285     -0.2867
     36  CB         1.7790  -57.8570   17.1580 C.3   285  GLU285      0.0388
     37  CG         2.8210  -56.7650   16.9530 C.3   285  GLU285      0.1160
     38  CD         4.0940  -57.2620   16.2860 C.2   285  GLU285      0.3649
     39  OE1        5.0090  -56.4410   16.0820 O.co2 285  GLU285     -0.2457
     40  OE2        4.1790  -58.4630   15.9590 O.co2 285  GLU285     -0.2457
     41  N          6.9630  -50.5590   12.2360 N.3   302  LYS302     -0.1245
     42  CA         5.6660  -51.2020   12.0480 C.3   302  LYS302      0.1561
     43  C          4.5380  -50.1910   12.2550 C.2   302  LYS302      0.2260
     44  O          3.5940  -50.1430   11.4670 O.2   302  LYS302     -0.2867
     45  CB         5.5030  -52.3930   12.9960 C.3   302  LYS302      0.0271
     46  CG         6.5090  -53.5120   12.7630 C.3   302  LYS302      0.0035
     47  CD         6.2630  -54.6780   13.7060 C.3   302  LYS302      0.0206
     48  CE         7.3320  -55.7440   13.5560 C.3   302  LYS302      0.1093
     49  NZ         7.1270  -56.8670   14.5090 N.3   302  LYS302     -0.1314
     50  N         13.6990  -54.7640   15.0440 N.3   349  MET349     -0.1245
     51  CA        13.6170  -55.4950   13.7880 C.3   349  MET349      0.1570
     52  C         14.9960  -55.6520   13.1710 C.2   349  MET349      0.2261
     53  O         15.9030  -54.8680   13.4440 O.2   349  MET349     -0.2867
     54  CB        12.6990  -54.7780   12.7890 C.3   349  MET349      0.0387
     55  CG        11.2350  -54.6800   13.1900 C.3   349  MET349      0.0595
     56  SD        10.3320  -53.5550   12.1020 S.3   349  MET349     -0.1393
     57  CE        10.4630  -54.4140   10.5370 C.3   349  MET349      0.0692
     58  N         13.6840  -57.8640    8.1400 N.3   353  ASP353     -0.1239
     59  CA        12.3130  -57.6580    8.5990 C.3   353  ASP353      0.1674
     60  C         11.7280  -56.4190    7.9310 C.2   353  ASP353      0.2266
     61  O         10.5530  -56.3930    7.5680 O.2   353  ASP353     -0.2867
     62  CB        12.2460  -57.5050   10.1210 C.3   353  ASP353      0.1410
     63  CG        12.5440  -58.7940   10.8560 C.2   353  ASP353      0.3668
     64  OD1       12.2900  -59.8790   10.2910 O.co2 353  ASP353     -0.2456
     65  OD2       13.0330  -58.7190   12.0030 O.co2 353  ASP353     -0.2456
     66  N         10.9430  -57.2680    4.3480 N.3   356  GLU356     -0.1231
     67  CA         9.6960  -58.0220    4.2560 C.3   356  GLU356      0.1699
     68  C          8.4880  -57.0990    4.4000 C.2   356  GLU356      0.2592
     69  O          7.4800  -57.2660    3.7130 O.2   356  GLU356     -0.2718
     70  CB         9.6350  -59.1200    5.3210 C.3   356  GLU356      0.0402
     71  CG         8.4750  -60.0930    5.1110 C.3   356  GLU356      0.1161
     72  CD         8.0560  -60.8120    6.3800 C.2   356  GLU356      0.3649
     73  OE1        8.3940  -60.3330    7.4810 O.co2 356  GLU356     -0.2457
     74  OE2        7.3800  -61.8580    6.2780 O.co2 356  GLU356     -0.2457
     75  N          8.5990  -56.1250    5.2960 N.am  357  LEU357     -0.1980
     76  CA         7.5140  -55.1840    5.5340 C.3   357  LEU357      0.1596
     77  C          7.2150  -54.3640    4.2830 C.2   357  LEU357      0.2287
     78  O          6.0540  -54.1110    3.9620 O.2   357  LEU357     -0.2864
     79  CB         7.8520  -54.2630    6.7060 C.3   357  LEU357      0.0297
     80  CG         6.7040  -53.4040    7.2340 C.3   357  LEU357      0.0022
     81  CD1        5.5240  -54.2740    7.6350 C.3   357  LEU357      0.0001
     82  CD2        7.1730  -52.5530    8.4080 C.3   357  LEU357      0.0001
     83  N          5.4290  -56.5020    1.8150 N.3   360  MET360     -0.1245
     84  CA         4.0180  -56.5800    2.1610 C.3   360  MET360      0.1570
     85  C          3.2860  -55.2990    1.7700 C.2   360  MET360      0.2261
     86  O          2.1150  -55.3400    1.3950 O.2   360  MET360     -0.2867
     87  CB         3.8510  -56.8710    3.6530 C.3   360  MET360      0.0387
     88  CG         4.0790  -58.3400    3.9990 C.3   360  MET360      0.0595
     89  SD         3.6750  -58.7490    5.7050 S.3   360  MET360     -0.1393
     90  CE         5.1110  -58.1270    6.5700 C.3   360  MET360      0.0692
@<TRIPOS>BOND
     1    86    85    2
     2    85    84    1
     3    83    84    1
     4     4     3    2
     5    84    87    1
     6     3     2    1
     7    87    88    1
     8    69    68    2
     9     1     2    1
    10     2     5    1
    11    78    77    2
    12    88    89    1
    13    67    66    1
    14    67    68    1
    15    67    70    1
    16    77    76    1
    17    68    75   am
    18    71    70    1
    19    71    72    1
    20     5     6    1
    21    75    76    1
    22     6     7    1
    23    76    79    1
    24    89    90    1
    25     7     8    1
    26    74    72   ar
    27    72    73   ar
    28    79    80    1
    29     8     9    2
    30    12    13    1
    31    80    81    1
    32    80    82    1
    33    61    60    2
    34    60    59    1
    35    58    59    1
    36     9    11    1
    37     9    10    1
    38    14    13    1
    39    14    15    2
    40    13    16    1
    41    59    62    1
    42    16    17    1
    43    17    19   ar
    44    17    18   ar
    45    62    63    1
    46    64    63   ar
    47    19    21   ar
    48    57    56    1
    49    63    65   ar
    50    30    29   ar
    51    18    20   ar
    52    44    43    2
    53    31    29   ar
    54    21    22   ar
    55    29    28    1
    56    42    41    1
    57    42    43    1
    58    42    45    1
    59    56    55    1
    60    20    22   ar
    61    46    45    1
    62    46    47    1
    63    54    55    1
    64    54    51    1
    65    28    27    1
    66    52    53    2
    67    52    51    1
    68    48    47    1
    69    48    49    1
    70    51    50    1
    71    27    24    1
    72    26    25    2
    73    25    24    1
    74    24    23    1
    75    40    38   ar
    76    39    38   ar
    77    38    37    1
    78    34    35    2
    79    34    33    1
    80    37    36    1
    81    36    33    1
    82    33    32    1
