@<TRIPOS>MOLECULE
tmp/5bweA01.pdb
 131 121 0 0 0
SMALL
GASTEIGER

@<TRIPOS>ATOM
      1  N        -29.4290  -20.8640   23.7330 N.3   181  GLU181     -0.1245
      2  CA       -28.6710  -21.8600   22.9960 C.3   181  GLU181      0.1567
      3  C        -27.5830  -22.3760   23.9210 C.2   181  GLU181      0.2260
      4  O        -27.0300  -21.6170   24.7180 O.2   181  GLU181     -0.2867
      5  CB       -28.0650  -21.2740   21.7170 C.3   181  GLU181      0.0388
      6  CG       -27.5530  -22.3320   20.7470 C.3   181  GLU181      0.1160
      7  CD       -26.9800  -21.7470   19.4650 C.2   181  GLU181      0.3649
      8  OE1      -27.3350  -20.6040   19.1120 O.co2 181  GLU181     -0.2457
      9  OE2      -26.1760  -22.4380   18.8040 O.co2 181  GLU181     -0.2457
     10  N        -19.9820  -26.9120   18.4670 N.3   189  TYR189     -0.1241
     11  CA       -20.3540  -26.1740   17.2650 C.3   189  TYR189      0.1605
     12  C        -19.5140  -24.9100   17.2120 C.2   189  TYR189      0.2264
     13  O        -19.0870  -24.4040   18.2490 O.2   189  TYR189     -0.2867
     14  CB       -21.8470  -25.8450   17.2690 C.3   189  TYR189      0.0534
     15  CG       -22.3590  -25.1920   16.0060 C.ar  189  TYR189     -0.0201
     16  CD1      -22.6360  -25.9460   14.8750 C.ar  189  TYR189     -0.0009
     17  CD2      -22.5740  -23.8240   15.9470 C.ar  189  TYR189     -0.0009
     18  CE1      -23.1340  -25.3590   13.7270 C.ar  189  TYR189      0.0417
     19  CE2      -23.0540  -23.2240   14.7980 C.ar  189  TYR189      0.0417
     20  CZ       -23.3360  -23.9960   13.6900 C.ar  189  TYR189      0.1957
     21  OH       -23.7930  -23.3980   12.5360 O.3   189  TYR189     -0.2866
     22  N        -27.4290  -29.5800   16.3980 N.3   373  TYR373     -0.1241
     23  CA       -27.0950  -28.9490   15.1290 C.3   373  TYR373      0.1605
     24  C        -27.3630  -29.8720   13.9460 C.2   373  TYR373      0.2264
     25  O        -27.1280  -29.5120   12.7920 O.2   373  TYR373     -0.2867
     26  CB       -25.6570  -28.4500   15.1800 C.3   373  TYR373      0.0534
     27  CG       -25.5330  -27.4290   16.2850 C.ar  373  TYR373     -0.0201
     28  CD1      -25.9720  -26.1240   16.0990 C.ar  373  TYR373     -0.0009
     29  CD2      -25.0530  -27.7870   17.5380 C.ar  373  TYR373     -0.0009
     30  CE1      -25.8850  -25.1920   17.1140 C.ar  373  TYR373      0.0417
     31  CE2      -24.9710  -26.8640   18.5610 C.ar  373  TYR373      0.0417
     32  CZ       -25.3840  -25.5670   18.3450 C.ar  373  TYR373      0.1957
     33  OH       -25.3090  -24.6490   19.3690 O.3   373  TYR373     -0.2866
     34  N        -31.3290  -28.2840   13.7370 N.3   376  ILE376     -0.1231
     35  CA       -31.7520  -26.9220   13.4230 C.3   376  ILE376      0.1692
     36  C        -31.3310  -26.4260   12.0460 C.2   376  ILE376      0.2592
     37  O        -31.4890  -25.2480   11.7340 O.2   376  ILE376     -0.2718
     38  CB       -31.2170  -25.9230   14.4700 C.3   376  ILE376      0.0266
     39  CG1      -29.6910  -25.8350   14.4030 C.3   376  ILE376      0.0019
     40  CG2      -31.6730  -26.3220   15.8640 C.3   376  ILE376      0.0020
     41  CD1      -29.1150  -24.7040   15.2210 C.3   376  ILE376      0.0001
     42  N        -30.8000  -27.3160   11.2150 N.am  377  PHE377     -0.1976
     43  CA       -30.6050  -26.9670    9.8110 C.3   377  PHE377      0.1639
     44  C        -31.2780  -27.9820    8.8830 C.2   377  PHE377      0.2290
     45  O        -30.6080  -28.5500    8.0190 O.2   377  PHE377     -0.2864
     46  CB       -29.1180  -26.8580    9.4470 C.3   377  PHE377      0.0560
     47  CG       -28.2960  -26.0750   10.4290 C.ar  377  PHE377     -0.0200
     48  CD1      -28.6010  -24.7550   10.7130 C.ar  377  PHE377     -0.0042
     49  CD2      -27.1830  -26.6450   11.0240 C.ar  377  PHE377     -0.0042
     50  CE1      -27.8410  -24.0310   11.6100 C.ar  377  PHE377     -0.0003
     51  CE2      -26.4120  -25.9230   11.9130 C.ar  377  PHE377     -0.0003
     52  CZ       -26.7410  -24.6130   12.2060 C.ar  377  PHE377     -0.0000
     53  N        -24.4580  -25.3330    7.5290 N.3   383  LEU383     -0.1245
     54  CA       -24.4690  -23.9870    6.9840 C.3   383  LEU383      0.1561
     55  C        -23.2330  -23.7400    6.1310 C.2   383  LEU383      0.2260
     56  O        -22.1070  -23.9350    6.5840 O.2   383  LEU383     -0.2867
     57  CB       -24.5450  -22.9520    8.0970 C.3   383  LEU383      0.0270
     58  CG       -25.8450  -22.9210    8.8900 C.3   383  LEU383      0.0019
     59  CD1      -25.7140  -21.8900    9.9890 C.3   383  LEU383      0.0001
     60  CD2      -27.0250  -22.6120    7.9860 C.3   383  LEU383      0.0001
     61  N        -21.6130  -16.6560    9.3170 N.3   484  LEU484     -0.1231
     62  CA       -22.5510  -17.6920    8.9270 C.3   484  LEU484      0.1693
     63  C        -23.6880  -17.0250    8.1650 C.2   484  LEU484      0.2592
     64  O        -23.4470  -16.3290    7.1820 O.2   484  LEU484     -0.2718
     65  CB       -23.0700  -18.4690   10.1330 C.3   484  LEU484      0.0284
     66  CG       -22.0530  -19.3400   10.8750 C.3   484  LEU484      0.0019
     67  CD1      -22.6840  -20.0010   12.0930 C.3   484  LEU484      0.0001
     68  CD2      -21.4530  -20.3760    9.9600 C.3   484  LEU484      0.0001
     69  N        -24.9220  -17.2350    8.6110 N.am  485  CYS485     -0.1970
     70  CA       -26.0750  -16.7420    7.8700 C.3   485  CYS485      0.1712
     71  C        -26.1580  -15.2180    7.7250 C.2   485  CYS485      0.2296
     72  O        -26.5550  -14.7300    6.6690 O.2   485  CYS485     -0.2864
     73  CB       -27.3580  -17.2370    8.5390 C.3   485  CYS485      0.0983
     74  SG       -27.5350  -19.0320    8.6070 S.3   485  CYS485     -0.0798
     75  N        -16.3450  -18.9950   16.7400 N.3   500  ARG500     -0.1245
     76  CA       -17.7070  -18.5930   17.0730 C.3   500  ARG500      0.1563
     77  C        -17.8020  -17.9870   18.4750 C.2   500  ARG500      0.2260
     78  O        -18.7960  -17.3430   18.8190 O.2   500  ARG500     -0.2867
     79  CB       -18.6470  -19.7970   16.9570 C.3   500  ARG500      0.0307
     80  CG       -20.1280  -19.4510   16.8920 C.3   500  ARG500      0.0489
     81  CD       -20.9750  -20.6260   17.3580 C.3   500  ARG500      0.2205
     82  NE       -22.3770  -20.4880   16.9800 N.pl3 500  ARG500     -0.0865
     83  CZ       -23.3820  -21.0390   17.6490 C.cat 500  ARG500      0.5346
     84  NH1      -23.1380  -21.7620   18.7350 N.pl3 500  ARG500      0.1354
     85  NH2      -24.6280  -20.8860   17.2240 N.pl3 500  ARG500      0.1354
     86  N        -27.2110  -18.1650   20.2000 N.3   506  SER506     -0.1217
     87  CA       -28.5440  -17.5850   20.1700 C.3   506  SER506      0.1889
     88  C        -29.1810  -17.4640   21.5540 C.2   506  SER506      0.2288
     89  O        -28.7240  -18.0640   22.5280 O.2   506  SER506     -0.2866
     90  CB       -29.4550  -18.4070   19.2580 C.3   506  SER506      0.2089
     91  OG       -28.8710  -18.5720   17.9770 O.3   506  SER506     -0.2183
     92  N        -27.5040  -14.0300   18.7890 N.3   607  ASN607     -0.1240
     93  CA       -28.6810  -14.1210   17.9180 C.3   607  ASN607      0.1653
     94  C        -30.0040  -14.1990   18.6700 C.2   607  ASN607      0.2266
     95  O        -30.3240  -15.2320   19.2490 O.2   607  ASN607     -0.2867
     96  CB       -28.5810  -15.3410   16.9970 C.3   607  ASN607      0.1155
     97  CG       -27.3170  -15.3480   16.1620 C.2   607  ASN607      0.2627
     98  OD1      -26.9120  -14.3220   15.6120 O.2   607  ASN607     -0.2716
     99  ND2      -26.6900  -16.5150   16.0540 N.am  607  ASN607     -0.0877
    100  N        -33.5600  -15.1870   18.6080 N.3   609  ILE609     -0.1245
    101  CA       -34.4230  -16.0170   17.7830 C.3   609  ILE609      0.1561
    102  C        -35.7310  -16.2330   18.5220 C.2   609  ILE609      0.2260
    103  O        -35.7110  -16.4610   19.7270 O.2   609  ILE609     -0.2867
    104  CB       -33.7580  -17.3720   17.4580 C.3   609  ILE609      0.0252
    105  CG1      -32.4440  -17.1480   16.7030 C.3   609  ILE609      0.0019
    106  CG2      -34.6960  -18.2620   16.6590 C.3   609  ILE609      0.0019
    107  CD1      -31.8230  -18.4100   16.1590 C.3   609  ILE609      0.0001
    108  N        -32.1550  -13.6410   13.7530 N.3   699  GLN699     -0.1245
    109  CA       -32.3440  -14.6520   12.7160 C.3   699  GLN699      0.1566
    110  C        -33.1680  -15.8040   13.2920 C.2   699  GLN699      0.2260
    111  O        -33.9430  -15.5990   14.2290 O.2   699  GLN699     -0.2867
    112  CB       -31.0000  -15.1250   12.1450 C.3   699  GLN699      0.0367
    113  CG       -29.9820  -15.6090   13.1540 C.3   699  GLN699      0.0905
    114  CD       -28.6600  -15.9640   12.4970 C.2   699  GLN699      0.2608
    115  OE1      -28.6160  -16.7380   11.5400 O.2   699  GLN699     -0.2717
    116  NE2      -27.5750  -15.3950   13.0060 N.am  699  GLN699     -0.0878
    117  N        -32.6350  -19.6380   11.7200 N.3   701  VAL701     -0.1245
    118  CA       -32.3560  -20.9350   11.0840 C.3   701  VAL701      0.1561
    119  C        -33.5010  -21.9320   11.3240 C.2   701  VAL701      0.2260
    120  O        -34.6450  -21.6340   10.9870 O.2   701  VAL701     -0.2867
    121  CB       -30.9780  -21.5250   11.5420 C.3   701  VAL701      0.0252
    122  CG1      -29.8300  -20.7270   10.9390 C.3   701  VAL701      0.0019
    123  CG2      -30.8470  -21.6120   13.0680 C.3   701  VAL701      0.0019
    124  N        -34.0130  -23.1010   14.4240 N.3   703  LEU703     -0.1245
    125  CA       -34.3040  -22.9820   15.8450 C.3   703  LEU703      0.1561
    126  C        -35.7200  -22.4760   16.1130 C.2   703  LEU703      0.2260
    127  O        -36.2820  -22.7530   17.1720 O.2   703  LEU703     -0.2867
    128  CB       -33.2860  -22.0630   16.5240 C.3   703  LEU703      0.0270
    129  CG       -32.0020  -22.7630   16.9750 C.3   703  LEU703      0.0019
    130  CD1      -30.8760  -21.7690   17.2050 C.3   703  LEU703      0.0001
    131  CD2      -32.2650  -23.5850   18.2300 C.3   703  LEU703      0.0001
@<TRIPOS>BOND
     1    55    56    2
     2    55    54    1
     3    72    71    2
     4    54    53    1
     5    54    57    1
     6    64    63    2
     7    71    70    1
     8    70    73    1
     9    70    69    1
    10    60    58    1
    11    45    44    2
    12    57    58    1
    13    63    69   am
    14    63    62    1
    15    73    74    1
    16    44    43    1
    17    58    59    1
    18    62    61    1
    19    62    65    1
    20    46    43    1
    21    46    47    1
    22    43    42    1
    23    68    66    1
    24    65    66    1
    25    47    48   ar
    26    47    49   ar
    27    48    50   ar
    28    66    67    1
    29   122   121    1
    30   120   119    2
    31    49    51   ar
    32   118   119    1
    33   118   121    1
    34   118   117    1
    35    42    36   am
    36   115   114    2
    37   121   123    1
    38    50    52   ar
    39    37    36    2
    40    51    52   ar
    41    36    35    1
    42   112   109    1
    43   112   113    1
    44   114   116   am
    45   114   113    1
    46    21    20    1
    47   109   110    1
    48   109   108    1
    49    25    24    2
    50   110   111    2
    51    35    34    1
    52    35    38    1
    53    20    18   ar
    54    20    19   ar
    55    18    16   ar
    56    24    23    1
    57    39    38    1
    58    39    41    1
    59   124   125    1
    60    38    40    1
    61    19    17   ar
    62    16    15   ar
    63    23    26    1
    64    23    22    1
    65    26    27    1
    66    98    97    2
    67   125   126    1
    68   125   128    1
    69    17    15   ar
    70    15    14    1
    71    99    97   am
    72    28    27   ar
    73    28    30   ar
    74   126   127    2
    75   107   105    1
    76    97    96    1
    77    27    29   ar
    78   128   129    1
    79   106   104    1
    80   105   104    1
    81    75    76    1
    82    80    79    1
    83    80    81    1
    84    79    76    1
    85   129   130    1
    86   129   131    1
    87    82    81    1
    88    82    83    2
    89    96    93    1
    90    76    77    1
    91    30    32   ar
    92    12    11    1
    93    12    13    2
    94    85    83    1
    95    11    14    1
    96    11    10    1
    97   104   101    1
    98    29    31   ar
    99    83    84    1
   100   101   102    1
   101   101   100    1
   102    93    94    1
   103    93    92    1
   104    91    90    1
   105    32    31   ar
   106    32    33    1
   107    77    78    2
   108   102   103    2
   109    94    95    2
   110     9     7   ar
   111     8     7   ar
   112    90    87    1
   113     7     6    1
   114    87    86    1
   115    87    88    1
   116     6     5    1
   117    88    89    2
   118     5     2    1
   119     2     1    1
   120     2     3    1
   121     3     4    2
