@<TRIPOS>MOLECULE
tmp/5bweA00.pdb
 115 109 0 0 0
SMALL
GASTEIGER

@<TRIPOS>ATOM
      1  N        -19.9820  -26.9120   18.4670 N.3   189  TYR189     -0.1241
      2  CA       -20.3540  -26.1740   17.2650 C.3   189  TYR189      0.1605
      3  C        -19.5140  -24.9100   17.2120 C.2   189  TYR189      0.2264
      4  O        -19.0870  -24.4040   18.2490 O.2   189  TYR189     -0.2867
      5  CB       -21.8470  -25.8450   17.2690 C.3   189  TYR189      0.0534
      6  CG       -22.3590  -25.1920   16.0060 C.ar  189  TYR189     -0.0201
      7  CD1      -22.6360  -25.9460   14.8750 C.ar  189  TYR189     -0.0009
      8  CD2      -22.5740  -23.8240   15.9470 C.ar  189  TYR189     -0.0009
      9  CE1      -23.1340  -25.3590   13.7270 C.ar  189  TYR189      0.0417
     10  CE2      -23.0540  -23.2240   14.7980 C.ar  189  TYR189      0.0417
     11  CZ       -23.3360  -23.9960   13.6900 C.ar  189  TYR189      0.1957
     12  OH       -23.7930  -23.3980   12.5360 O.3   189  TYR189     -0.2866
     13  N        -17.5350  -21.7280   14.1910 N.3   191  SER191     -0.1217
     14  CA       -17.4700  -21.0930   12.8820 C.3   191  SER191      0.1889
     15  C        -16.1160  -20.4170   12.6940 C.2   191  SER191      0.2288
     16  O        -15.3530  -20.2690   13.6480 O.2   191  SER191     -0.2866
     17  CB       -18.6000  -20.0730   12.7170 C.3   191  SER191      0.2089
     18  OG       -18.4580  -19.0000   13.6310 O.3   191  SER191     -0.2183
     19  N        -24.4580  -25.3330    7.5290 N.3   383  LEU383     -0.1245
     20  CA       -24.4690  -23.9870    6.9840 C.3   383  LEU383      0.1561
     21  C        -23.2330  -23.7400    6.1310 C.2   383  LEU383      0.2260
     22  O        -22.1070  -23.9350    6.5840 O.2   383  LEU383     -0.2867
     23  CB       -24.5450  -22.9520    8.0970 C.3   383  LEU383      0.0270
     24  CG       -25.8450  -22.9210    8.8900 C.3   383  LEU383      0.0019
     25  CD1      -25.7140  -21.8900    9.9890 C.3   383  LEU383      0.0001
     26  CD2      -27.0250  -22.6120    7.9860 C.3   383  LEU383      0.0001
     27  N        -20.4690  -14.1960    8.3220 N.3   483  VAL483     -0.1231
     28  CA       -19.6820  -15.2600    8.9360 C.3   483  VAL483      0.1692
     29  C        -20.3960  -16.5930    8.7920 C.2   483  VAL483      0.2592
     30  O        -19.8590  -17.5420    8.2170 O.2   483  VAL483     -0.2718
     31  CB       -19.4200  -14.9860   10.4260 C.3   483  VAL483      0.0266
     32  CG1      -18.6720  -16.1480   11.0470 C.3   483  VAL483      0.0020
     33  CG2      -18.6350  -13.7010   10.5930 C.3   483  VAL483      0.0020
     34  N        -21.6130  -16.6560    9.3170 N.am  484  LEU484     -0.1966
     35  CA       -22.5510  -17.6920    8.9270 C.3   484  LEU484      0.1728
     36  C        -23.6880  -17.0250    8.1650 C.2   484  LEU484      0.2616
     37  O        -23.4470  -16.3290    7.1820 O.2   484  LEU484     -0.2715
     38  CB       -23.0700  -18.4690   10.1330 C.3   484  LEU484      0.0311
     39  CG       -22.0530  -19.3400   10.8750 C.3   484  LEU484      0.0022
     40  CD1      -22.6840  -20.0010   12.0930 C.3   484  LEU484      0.0001
     41  CD2      -21.4530  -20.3760    9.9600 C.3   484  LEU484      0.0001
     42  N        -24.9220  -17.2350    8.6110 N.am  485  CYS485     -0.1954
     43  CA       -26.0750  -16.7420    7.8700 C.3   485  CYS485      0.1843
     44  C        -26.1580  -15.2180    7.7250 C.2   485  CYS485      0.2625
     45  O        -26.5550  -14.7300    6.6690 O.2   485  CYS485     -0.2714
     46  CB       -27.3580  -17.2370    8.5390 C.3   485  CYS485      0.0997
     47  SG       -27.5350  -19.0320    8.6070 S.3   485  CYS485     -0.0797
     48  N        -25.7900  -14.4580    8.7550 N.am  486  MET486     -0.1963
     49  CA       -26.3460  -13.1060    8.8540 C.3   486  MET486      0.1736
     50  C        -25.3790  -11.9920    9.2740 C.2   486  MET486      0.2617
     51  O        -25.5850  -10.8320    8.9130 O.2   486  MET486     -0.2715
     52  CB       -27.5380  -13.1120    9.8170 C.3   486  MET486      0.0427
     53  CG       -28.8440  -13.5480    9.1800 C.3   486  MET486      0.0599
     54  SD       -29.3590  -12.4390    7.8540 S.3   486  MET486     -0.1393
     55  CE       -29.4610  -10.8810    8.7280 C.3   486  MET486      0.0692
     56  N        -24.3370  -12.3240   10.0310 N.am  487  SER487     -0.1950
     57  CA       -23.5280  -11.2810   10.6660 C.3   487  SER487      0.1924
     58  C        -22.2780  -10.9410    9.8540 C.2   487  SER487      0.2314
     59  O        -21.4920  -11.8280    9.5270 O.2   487  SER487     -0.2863
     60  CB       -23.1320  -11.7070   12.0800 C.3   487  SER487      0.2116
     61  OG       -22.3790  -10.6960   12.7300 O.3   487  SER487     -0.2180
     62  N        -16.3450  -18.9950   16.7400 N.3   500  ARG500     -0.1245
     63  CA       -17.7070  -18.5930   17.0730 C.3   500  ARG500      0.1563
     64  C        -17.8020  -17.9870   18.4750 C.2   500  ARG500      0.2260
     65  O        -18.7960  -17.3430   18.8190 O.2   500  ARG500     -0.2867
     66  CB       -18.6470  -19.7970   16.9570 C.3   500  ARG500      0.0307
     67  CG       -20.1280  -19.4510   16.8920 C.3   500  ARG500      0.0489
     68  CD       -20.9750  -20.6260   17.3580 C.3   500  ARG500      0.2205
     69  NE       -22.3770  -20.4880   16.9800 N.pl3 500  ARG500     -0.0865
     70  CZ       -23.3820  -21.0390   17.6490 C.cat 500  ARG500      0.5346
     71  NH1      -23.1380  -21.7620   18.7350 N.pl3 500  ARG500      0.1354
     72  NH2      -24.6280  -20.8860   17.2240 N.pl3 500  ARG500      0.1354
     73  N        -18.4250  -14.2650   18.3670 N.3   503  GLY503     -0.1210
     74  CA       -19.7540  -13.8110   18.0130 C.3   503  GLY503      0.1956
     75  C        -20.5330  -14.9320   17.3620 C.2   503  GLY503      0.2612
     76  O        -20.0130  -15.6460   16.5060 O.2   503  GLY503     -0.2717
     77  N        -21.7810  -15.0910   17.7810 N.am  504  GLY504     -0.1942
     78  CA       -22.6090  -16.1880   17.3230 C.3   504  GLY504      0.2014
     79  C        -23.2380  -16.8490   18.5280 C.2   504  GLY504      0.2639
     80  O        -22.8700  -16.5370   19.6590 O.2   504  GLY504     -0.2714
     81  N        -24.1820  -17.7590   18.3100 N.am  505  GLY505     -0.1954
     82  CA       -24.9120  -18.3060   19.4350 C.3   505  GLY505      0.1869
     83  C        -26.1970  -17.5290   19.6270 C.2   505  GLY505      0.2309
     84  O        -26.2820  -16.3630   19.2410 O.2   505  GLY505     -0.2863
     85  N        -21.3800  -10.5320   18.7470 N.3   605  TRP605     -0.1241
     86  CA       -22.8280  -10.5660   18.5570 C.3   605  TRP605      0.1605
     87  C        -23.4730  -11.8080   19.1560 C.2   605  TRP605      0.2264
     88  O        -22.7970  -12.8000   19.4330 O.2   605  TRP605     -0.2867
     89  CB       -23.1950  -10.4680   17.0720 C.3   605  TRP605      0.0550
     90  CG       -23.2530  -11.7670   16.3240 C.ar  605  TRP605      0.0003
     91  CD1      -24.3360  -12.5860   16.1880 C.ar  605  TRP605      0.0946
     92  CD2      -22.2030  -12.3620   15.5510 C.ar  605  TRP605      0.0152
     93  NE1      -24.0160  -13.6720   15.4100 N.ar  605  TRP605     -0.2442
     94  CE2      -22.7120  -13.5570   15.0050 C.ar  605  TRP605      0.0810
     95  CE3      -20.8790  -12.0080   15.2800 C.ar  605  TRP605      0.0012
     96  CZ2      -21.9430  -14.3990   14.2030 C.ar  605  TRP605      0.0191
     97  CZ3      -20.1150  -12.8470   14.4840 C.ar  605  TRP605      0.0001
     98  CH2      -20.6510  -14.0270   13.9530 C.ar  605  TRP605      0.0015
     99  N        -27.5040  -14.0300   18.7890 N.3   607  ASN607     -0.1240
    100  CA       -28.6810  -14.1210   17.9180 C.3   607  ASN607      0.1653
    101  C        -30.0040  -14.1990   18.6700 C.2   607  ASN607      0.2266
    102  O        -30.3240  -15.2320   19.2490 O.2   607  ASN607     -0.2867
    103  CB       -28.5810  -15.3410   16.9970 C.3   607  ASN607      0.1155
    104  CG       -27.3170  -15.3480   16.1620 C.2   607  ASN607      0.2627
    105  OD1      -26.9120  -14.3220   15.6120 O.2   607  ASN607     -0.2716
    106  ND2      -26.6900  -16.5150   16.0540 N.am  607  ASN607     -0.0877
    107  N        -32.1550  -13.6410   13.7530 N.3   699  GLN699     -0.1245
    108  CA       -32.3440  -14.6520   12.7160 C.3   699  GLN699      0.1566
    109  C        -33.1680  -15.8040   13.2920 C.2   699  GLN699      0.2260
    110  O        -33.9430  -15.5990   14.2290 O.2   699  GLN699     -0.2867
    111  CB       -31.0000  -15.1250   12.1450 C.3   699  GLN699      0.0367
    112  CG       -29.9820  -15.6090   13.1540 C.3   699  GLN699      0.0905
    113  CD       -28.6600  -15.9640   12.4970 C.2   699  GLN699      0.2608
    114  OE1      -28.6160  -16.7380   11.5400 O.2   699  GLN699     -0.2717
    115  NE2      -27.5750  -15.3950   13.0060 N.am  699  GLN699     -0.0878
@<TRIPOS>BOND
     1    21    22    2
     2    21    20    1
     3    45    44    2
     4    20    19    1
     5    20    23    1
     6    37    36    2
     7    44    43    1
     8    44    48   am
     9    54    55    1
    10    54    53    1
    11    43    46    1
    12    43    42    1
    13    26    24    1
    14    23    24    1
    15    36    42   am
    16    36    35    1
    17    30    29    2
    18    27    28    1
    19    46    47    1
    20    48    49    1
    21    29    28    1
    22    29    34   am
    23    49    50    1
    24    49    52    1
    25    24    25    1
    26    51    50    2
    27    35    34    1
    28    35    38    1
    29    28    31    1
    30    53    52    1
    31    50    56   am
    32    59    58    2
    33    58    57    1
    34    41    39    1
    35    56    57    1
    36    38    39    1
    37    31    33    1
    38    31    32    1
    39    57    60    1
    40    39    40    1
    41   114   113    2
    42    60    61    1
    43   111   108    1
    44   111   112    1
    45   113   115   am
    46   113   112    1
    47    12    11    1
    48    15    14    1
    49    15    16    2
    50   108   109    1
    51   108   107    1
    52    17    14    1
    53    17    18    1
    54    14    13    1
    55   109   110    2
    56    11     9   ar
    57    11    10   ar
    58     9     7   ar
    59    98    96   ar
    60    98    97   ar
    61    96    94   ar
    62    97    95   ar
    63    10     8   ar
    64     7     6   ar
    65    94    93   ar
    66    94    92   ar
    67    95    92   ar
    68    93    91   ar
    69    92    90   ar
    70   105   104    2
    71     8     6   ar
    72     6     5    1
    73   106   104   am
    74   104   103    1
    75    91    90   ar
    76    90    89    1
    77    76    75    2
    78    62    63    1
    79    67    66    1
    80    67    68    1
    81    66    63    1
    82    69    68    1
    83    69    70    2
    84   103   100    1
    85    89    86    1
    86    63    64    1
    87     3     2    1
    88     3     4    2
    89    72    70    1
    90     2     5    1
    91     2     1    1
    92    78    77    1
    93    78    79    1
    94    75    77   am
    95    75    74    1
    96    70    71    1
    97   100   101    1
    98   100    99    1
    99    74    73    1
   100    81    79   am
   101    81    82    1
   102    64    65    2
   103    79    80    2
   104    86    85    1
   105    86    87    1
   106   101   102    2
   107    87    88    2
   108    84    83    2
   109    82    83    1
