@<TRIPOS>MOLECULE
tmp/5bwoB00.pdb
 168 164 0 0 0
SMALL
GASTEIGER

@<TRIPOS>ATOM
      1  N         26.0310    0.5170  -21.5470 N.3    35  PRO35      -0.2102
      2  CA        27.2870   -0.0210  -21.0170 C.3    35  PRO35       0.1504
      3  C         27.1150   -0.6420  -19.6410 C.2    35  PRO35       0.2576
      4  O         26.2790   -0.2240  -18.8360 O.2    35  PRO35      -0.2718
      5  CB        28.1990    1.2080  -20.9560 C.3    35  PRO35       0.0282
      6  CG        27.2610    2.3510  -20.7920 C.3    35  PRO35       0.0208
      7  CD        26.0500    1.9890  -21.6030 C.3    35  PRO35       0.0893
      8  N         27.9290   -1.6620  -19.3830 N.am   36  ASP36      -0.1960
      9  CA        28.0350   -2.2850  -18.0740 C.3    36  ASP36       0.1840
     10  C         29.5100   -2.4760  -17.7570 C.2    36  ASP36       0.2622
     11  O         30.3420   -2.5830  -18.6620 O.2    36  ASP36      -0.2715
     12  CB        27.2940   -3.6320  -18.0300 C.3    36  ASP36       0.1450
     13  CG        27.3000   -4.2590  -16.6490 C.2    36  ASP36       0.3671
     14  OD1       27.5700   -3.5370  -15.6660 O.co2  36  ASP36      -0.2456
     15  OD2       27.0280   -5.4740  -16.5450 O.co2  36  ASP36      -0.2456
     16  N         29.8380   -2.4980  -16.4650 N.am   37  PHE37      -0.1960
     17  CA        31.2360   -2.6720  -16.0700 C.3    37  PHE37       0.1771
     18  C         31.6260   -4.1470  -16.0800 C.2    37  PHE37       0.2619
     19  O         32.4320   -4.5830  -16.9070 O.2    37  PHE37      -0.2715
     20  CB        31.4890   -2.0630  -14.6880 C.3    37  PHE37       0.0574
     21  CG        32.8940   -2.2660  -14.2010 C.ar   37  PHE37      -0.0200
     22  CD1       33.9030   -1.3980  -14.5850 C.ar   37  PHE37      -0.0042
     23  CD2       33.2120   -3.3380  -13.3830 C.ar   37  PHE37      -0.0042
     24  CE1       35.2010   -1.5870  -14.1500 C.ar   37  PHE37      -0.0003
     25  CE2       34.5080   -3.5330  -12.9460 C.ar   37  PHE37      -0.0003
     26  CZ        35.5040   -2.6560  -13.3310 C.ar   37  PHE37      -0.0000
     27  N         31.0630   -4.9270  -15.1570 N.am   38  ARG38      -0.1977
     28  CA        31.3590   -6.3520  -15.0710 C.3    38  ARG38       0.1597
     29  C         31.0080   -7.0270  -16.3920 C.2    38  ARG38       0.2287
     30  O         30.1000   -7.8630  -16.4530 O.2    38  ARG38      -0.2864
     31  CB        30.6000   -6.9740  -13.8960 C.3    38  ARG38       0.0334
     32  CG        30.9530   -6.3150  -12.5670 C.3    38  ARG38       0.0492
     33  CD        30.1240   -6.8210  -11.4020 C.3    38  ARG38       0.2205
     34  NE        30.4190   -6.0530  -10.1940 N.pl3  38  ARG38      -0.0865
     35  CZ        29.8290   -6.2360   -9.0170 C.cat  38  ARG38       0.5346
     36  NH1       28.8990   -7.1700   -8.8680 N.pl3  38  ARG38       0.1354
     37  NH2       30.1740   -5.4810   -7.9840 N.pl3  38  ARG38       0.1354
     38  N         34.0360    3.2780  -21.6760 N.3    45  TYR45      -0.1241
     39  CA        34.2440    2.3580  -20.5650 C.3    45  TYR45       0.1605
     40  C         35.5340    2.7140  -19.8490 C.2    45  TYR45       0.2264
     41  O         35.5120    3.1820  -18.7060 O.2    45  TYR45      -0.2867
     42  CB        34.3010    0.9110  -21.0550 C.3    45  TYR45       0.0534
     43  CG        34.8370   -0.0640  -20.0310 C.ar   45  TYR45      -0.0201
     44  CD1       34.0360   -0.5320  -19.0010 C.ar   45  TYR45      -0.0009
     45  CD2       36.1470   -0.5210  -20.1010 C.ar   45  TYR45      -0.0009
     46  CE1       34.5260   -1.4250  -18.0660 C.ar   45  TYR45       0.0417
     47  CE2       36.6470   -1.4110  -19.1720 C.ar   45  TYR45       0.0417
     48  CZ        35.8320   -1.8620  -18.1570 C.ar   45  TYR45       0.1957
     49  OH        36.3280   -2.7520  -17.2310 O.3    45  TYR45      -0.2866
     50  N         35.9530    0.3350   -8.9130 N.3    56  PRO56      -0.2102
     51  CA        34.9450    0.8760   -9.8420 C.3    56  PRO56       0.1504
     52  C         33.6470    1.2870   -9.1720 C.2    56  PRO56       0.2575
     53  O         32.9630    2.1860   -9.6750 O.2    56  PRO56      -0.2718
     54  CB        34.7300   -0.2780  -10.8310 C.3    56  PRO56       0.0282
     55  CG        35.1250   -1.5010  -10.0740 C.3    56  PRO56       0.0208
     56  CD        36.2600   -1.0770   -9.1950 C.3    56  PRO56       0.0893
     57  N         33.2810    0.6600   -8.0530 N.am   57  GLU57      -0.1980
     58  CA        32.0200    0.9910   -7.4010 C.3    57  GLU57       0.1602
     59  C         32.0480    2.3680   -6.7500 C.2    57  GLU57       0.2287
     60  O         30.9810    2.9290   -6.4790 O.2    57  GLU57      -0.2864
     61  CB        31.6670   -0.0690   -6.3560 C.3    57  GLU57       0.0415
     62  CG        31.3570   -1.4430   -6.9400 C.3    57  GLU57       0.1163
     63  CD        32.6040   -2.2450   -7.2690 C.2    57  GLU57       0.3649
     64  OE1       33.7220   -1.7270   -7.0660 O.co2  57  GLU57      -0.2457
     65  OE2       32.4640   -3.4000   -7.7270 O.co2  57  GLU57      -0.2457
     66  N         32.3290    4.9790   -8.0690 N.3    59  ILE59      -0.1231
     67  CA        31.5520    5.8710   -8.9220 C.3    59  ILE59       0.1692
     68  C         30.1740    6.1170   -8.3240 C.2    59  ILE59       0.2592
     69  O         29.5640    7.1670   -8.5620 O.2    59  ILE59      -0.2718
     70  CB        31.4600    5.2850  -10.3470 C.3    59  ILE59       0.0266
     71  CG1       32.8550    5.2270  -10.9780 C.3    59  ILE59       0.0019
     72  CG2       30.5160    6.1160  -11.2170 C.3    59  ILE59       0.0020
     73  CD1       32.9190    4.4540  -12.2770 C.3    59  ILE59       0.0001
     74  N         29.6610    5.1660   -7.5430 N.am   60  PHE60      -0.1976
     75  CA        28.3700    5.3240   -6.8860 C.3    60  PHE60       0.1639
     76  C         28.5330    5.3160   -5.3720 C.2    60  PHE60       0.2290
     77  O         27.8360    4.5780   -4.6680 O.2    60  PHE60      -0.2864
     78  CB        27.4090    4.2230   -7.3300 C.3    60  PHE60       0.0560
     79  CG        27.0460    4.2930   -8.7840 C.ar   60  PHE60      -0.0200
     80  CD1       26.0920    5.1920   -9.2290 C.ar   60  PHE60      -0.0042
     81  CD2       27.6620    3.4660   -9.7060 C.ar   60  PHE60      -0.0042
     82  CE1       25.7580    5.2620  -10.5670 C.ar   60  PHE60      -0.0003
     83  CE2       27.3330    3.5320  -11.0440 C.ar   60  PHE60      -0.0003
     84  CZ        26.3790    4.4310  -11.4750 C.ar   60  PHE60      -0.0000
     85  N         29.7030    8.9630  -16.6820 N.3    75  LEU75      -0.1245
     86  CA        28.7380    7.8880  -16.8810 C.3    75  LEU75       0.1561
     87  C         27.3310    8.4410  -17.0680 C.2    75  LEU75       0.2260
     88  O         26.5690    7.9440  -17.9040 O.2    75  LEU75      -0.2867
     89  CB        28.7870    6.9230  -15.6960 C.3    75  LEU75       0.0270
     90  CG        27.7700    5.7770  -15.6950 C.3    75  LEU75       0.0019
     91  CD1       27.9580    4.8870  -16.9150 C.3    75  LEU75       0.0001
     92  CD2       27.8870    4.9690  -14.4110 C.3    75  LEU75       0.0001
     93  N         24.5100    7.3910  -19.9450 N.3    79  LEU79      -0.1245
     94  CA        23.2640    6.7170  -19.6080 C.3    79  LEU79       0.1561
     95  C         22.0670    7.6560  -19.5520 C.2    79  LEU79       0.2260
     96  O         20.9870    7.2300  -19.1310 O.2    79  LEU79      -0.2867
     97  CB        23.3970    6.0080  -18.2570 C.3    79  LEU79       0.0270
     98  CG        24.4830    4.9440  -18.1220 C.3    79  LEU79       0.0019
     99  CD1       24.4760    4.3760  -16.7140 C.3    79  LEU79       0.0001
    100  CD2       24.2780    3.8430  -19.1400 C.3    79  LEU79       0.0001
    101  N         16.1720   -2.1640  -11.1070 N.3   108  GLN108     -0.1231
    102  CA        17.4500   -1.6800  -10.6060 C.3   108  GLN108      0.1698
    103  C         18.1050   -0.6800  -11.5460 C.2   108  GLN108      0.2592
    104  O         19.0760   -0.0250  -11.1520 O.2   108  GLN108     -0.2718
    105  CB        18.4220   -2.8430  -10.3980 C.3   108  GLN108      0.0381
    106  CG        18.0290   -3.8360   -9.3260 C.3   108  GLN108      0.0905
    107  CD        19.0540   -4.9440   -9.1870 C.2   108  GLN108      0.2608
    108  OE1       19.6830   -5.3440  -10.1650 O.2   108  GLN108     -0.2717
    109  NE2       19.2390   -5.4340   -7.9710 N.am  108  GLN108     -0.0878
    110  N         17.6070   -0.5560  -12.7710 N.am  109  ASN109     -0.1960
    111  CA        18.2590    0.2560  -13.7830 C.3   109  ASN109      0.1819
    112  C         17.9350    1.7340  -13.5910 C.2   109  ASN109      0.2621
    113  O         16.9210    2.1100  -12.9960 O.2   109  ASN109     -0.2715
    114  CB        17.8350   -0.1940  -15.1800 C.3   109  ASN109      0.1195
    115  CG        18.2030   -1.6330  -15.4600 C.2   109  ASN109      0.2630
    116  OD1       19.1350   -2.1720  -14.8640 O.2   109  ASN109     -0.2716
    117  ND2       17.4710   -2.2660  -16.3700 N.am  109  ASN109     -0.0877
    118  N         18.8250    2.5740  -14.1140 N.am  110  ILE110     -0.1977
    119  CA        18.6590    4.0210  -14.1000 C.3   110  ILE110      0.1596
    120  C         18.6470    4.6120  -15.5000 C.2   110  ILE110      0.2287
    121  O         18.5960    5.8380  -15.6430 O.2   110  ILE110     -0.2864
    122  CB        19.7520    4.6950  -13.2450 C.3   110  ILE110      0.0276
    123  CG1       21.1440    4.3210  -13.7630 C.3   110  ILE110      0.0022
    124  CG2       19.6010    4.2780  -11.7900 C.3   110  ILE110      0.0022
    125  CD1       22.2750    5.0870  -13.1050 C.3   110  ILE110      0.0001
    126  N         16.5430    2.1890   -7.5600 N.3   128  HIS128     -0.1241
    127  CA        17.8950    2.7220   -7.4390 C.3   128  HIS128      0.1621
    128  C         17.9990    4.1370   -7.9990 C.2   128  HIS128      0.2264
    129  O         19.0640    4.5560   -8.4580 O.2   128  HIS128     -0.2867
    130  CB        18.8960    1.7900   -8.1190 C.3   128  HIS128      0.0745
    131  CG        19.0330    0.4640   -7.4370 C.ar  128  HIS128      0.0817
    132  ND1       19.6070   -0.6320   -8.0440 N.ar  128  HIS128     -0.2268
    133  CD2       18.6720    0.0600   -6.1960 C.ar  128  HIS128      0.1154
    134  CE1       19.5940   -1.6540   -7.2060 C.ar  128  HIS128      0.1986
    135  NE2       19.0320   -1.2600   -6.0780 N.ar  128  HIS128     -0.2212
    136  N         20.2390    9.5590   -7.9020 N.3   171  ILE171     -0.1231
    137  CA        20.6550    8.1730   -8.0680 C.3   171  ILE171      0.1692
    138  C         21.0800    7.6510   -6.7050 C.2   171  ILE171      0.2591
    139  O         21.8430    8.3100   -5.9890 O.2   171  ILE171     -0.2718
    140  CB        21.8020    8.0500   -9.0870 C.3   171  ILE171      0.0266
    141  CG1       21.3830    8.6160  -10.4480 C.3   171  ILE171      0.0019
    142  CG2       22.2510    6.5970   -9.2210 C.3   171  ILE171      0.0020
    143  CD1       20.2020    7.9110  -11.0880 C.3   171  ILE171      0.0001
    144  N         20.5800    6.4730   -6.3380 N.am  172  VAL172     -0.1980
    145  CA        20.9720    5.8560   -5.0770 C.3   172  VAL172      0.1595
    146  C         22.4060    5.3580   -5.1980 C.2   172  VAL172      0.2287
    147  O         22.7120    4.4970   -6.0310 O.2   172  VAL172     -0.2864
    148  CB        20.0210    4.7130   -4.7020 C.3   172  VAL172      0.0276
    149  CG1       20.4780    4.0400   -3.4120 C.3   172  VAL172      0.0022
    150  CG2       18.6010    5.2280   -4.5550 C.3   172  VAL172      0.0022
    151  N         25.7720    3.5340   -3.1870 N.3   174  PHE174     -0.1241
    152  CA        25.9670    2.5180   -2.1630 C.3   174  PHE174      0.1605
    153  C         26.1680    3.1910   -0.8120 C.2   174  PHE174      0.2264
    154  O         26.9260    4.1590   -0.6940 O.2   174  PHE174     -0.2867
    155  CB        27.1620    1.6300   -2.5080 C.3   174  PHE174      0.0534
    156  CG        27.0510    0.9680   -3.8500 C.ar  174  PHE174     -0.0203
    157  CD1       26.1900   -0.0990   -4.0400 C.ar  174  PHE174     -0.0042
    158  CD2       27.8030    1.4130   -4.9230 C.ar  174  PHE174     -0.0042
    159  CE1       26.0810   -0.7080   -5.2740 C.ar  174  PHE174     -0.0003
    160  CE2       27.7000    0.8060   -6.1590 C.ar  174  PHE174     -0.0003
    161  CZ        26.8360   -0.2560   -6.3340 C.ar  174  PHE174     -0.0000
    162  N         22.4960   -7.1310   -5.4330 N.3   204  VAL204     -0.1245
    163  CA        22.3420   -5.8110   -4.8300 C.3   204  VAL204      0.1561
    164  C         21.1940   -5.8840   -3.8330 C.2   204  VAL204      0.2260
    165  O         20.0350   -6.0810   -4.2200 O.2   204  VAL204     -0.2867
    166  CB        22.0840   -4.7260   -5.8850 C.3   204  VAL204      0.0252
    167  CG1       21.9000   -3.3650   -5.2210 C.3   204  VAL204      0.0019
    168  CG2       23.2280   -4.6770   -6.8890 C.3   204  VAL204      0.0019
@<TRIPOS>BOND
     1    38    39    1
     2     7     1    1
     3     7     6    1
     4     1     2    1
     5    42    39    1
     6    42    43    1
     7     2     5    1
     8     2     3    1
     9     5     6    1
    10    39    40    1
    11    45    43   ar
    12    45    47   ar
    13    43    44   ar
    14    93    94    1
    15    40    41    2
    16     3     8   am
    17     3     4    2
    18    94    95    1
    19    94    97    1
    20    95    96    2
    21     8     9    1
    22    47    48   ar
    23   100    98    1
    24    44    46   ar
    25    11    10    2
    26    97    98    1
    27    48    46   ar
    28    48    49    1
    29    98    99    1
    30     9    12    1
    31     9    10    1
    32    12    13    1
    33    88    87    2
    34    10    16   am
    35    87    86    1
    36    91    90    1
    37    19    18    2
    38    86    85    1
    39    86    89    1
    40    13    15   ar
    41    13    14   ar
    42    16    17    1
    43    30    29    2
    44    29    28    1
    45   117   115   am
    46    18    17    1
    47    18    27   am
    48    17    20    1
    49    89    90    1
    50    90    92    1
    51   121   120    2
    52   120   119    1
    53   115   114    1
    54   115   116    2
    55   114   111    1
    56    27    28    1
    57    28    31    1
    58    20    21    1
    59    22    21   ar
    60    22    24   ar
    61    21    23   ar
    62    24    26   ar
    63   118   119    1
    64   118   112   am
    65   119   122    1
    66    31    32    1
    67   111   112    1
    68   111   110    1
    69   123   122    1
    70   123   125    1
    71   112   113    2
    72    23    25   ar
    73    26    25   ar
    74   122   124    1
    75   110   103   am
    76    32    33    1
    77    73    71    1
    78   103   104    2
    79   103   102    1
    80    84    83   ar
    81    84    82   ar
    82    33    34    1
    83    72    70    1
    84   101   102    1
    85   143   141    1
    86    83    81   ar
    87    71    70    1
    88    54    55    1
    89    54    51    1
    90   102   105    1
    91    82    80   ar
    92   141   140    1
    93   105   106    1
    94    70    67    1
    95    34    35    2
    96   108   107    2
    97    55    56    1
    98    51    52    1
    99    51    50    1
   100    81    79   ar
   101    53    52    2
   102   106   107    1
   103    80    79   ar
   104   142   140    1
   105    56    50    1
   106   107   109   am
   107    52    57   am
   108   140   137    1
   109    35    36    1
   110    35    37    1
   111    67    68    1
   112    67    66    1
   113    79    78    1
   114    69    68    2
   115   129   128    2
   116    68    74   am
   117   130   127    1
   118   130   131    1
   119   137   136    1
   120   137   138    1
   121    57    58    1
   122   132   131   ar
   123   132   134   ar
   124   128   127    1
   125    65    63   ar
   126   126   127    1
   127    74    75    1
   128   131   133   ar
   129    58    59    1
   130    58    61    1
   131    78    75    1
   132    63    64   ar
   133    63    62    1
   134   134   135   ar
   135    62    61    1
   136   168   166    1
   137    75    76    1
   138    59    60    2
   139   138   144   am
   140   138   139    2
   141   144   145    1
   142   161   160   ar
   143   161   159   ar
   144   133   135   ar
   145   160   158   ar
   146   147   146    2
   147   166   167    1
   148   166   163    1
   149   162   163    1
   150    76    77    2
   151   159   157   ar
   152   146   145    1
   153   145   148    1
   154   158   156   ar
   155   163   164    1
   156   148   150    1
   157   148   149    1
   158   165   164    2
   159   157   156   ar
   160   156   155    1
   161   151   152    1
   162   155   152    1
   163   152   153    1
   164   153   154    2
