@<TRIPOS>MOLECULE
tmp/5bwrA01.pdb
 112 107 0 0 0
SMALL
GASTEIGER

@<TRIPOS>ATOM
      1  N        -14.6540   35.5300   28.5270 N.3    28  PHE28      -0.1241
      2  CA       -13.5610   35.2250   27.5940 C.3    28  PHE28       0.1605
      3  C        -12.2750   34.7690   28.2960 C.2    28  PHE28       0.2264
      4  O        -11.8160   35.3990   29.2400 O.2    28  PHE28      -0.2867
      5  CB       -13.2410   36.4390   26.7000 C.3    28  PHE28       0.0534
      6  CG       -12.0240   36.2430   25.8170 C.ar   28  PHE28      -0.0203
      7  CD1      -10.7460   36.5430   26.2910 C.ar   28  PHE28      -0.0042
      8  CD2      -12.1550   35.7460   24.5200 C.ar   28  PHE28      -0.0042
      9  CE1       -9.6290   36.3550   25.4950 C.ar   28  PHE28      -0.0003
     10  CE2      -11.0360   35.5610   23.7160 C.ar   28  PHE28      -0.0003
     11  CZ        -9.7730   35.8680   24.2040 C.ar   28  PHE28      -0.0000
     12  N          2.5540   34.4330   21.0080 N.3    73  PHE73      -0.1241
     13  CA         1.3240   33.6870   20.9860 C.3    73  PHE73       0.1605
     14  C          0.5440   33.9610   19.7270 C.2    73  PHE73       0.2264
     15  O          0.9340   34.7650   18.8870 O.2    73  PHE73      -0.2867
     16  CB         0.4730   34.0160   22.2090 C.3    73  PHE73       0.0534
     17  CG         0.0080   35.4450   22.2760 C.ar   73  PHE73      -0.0203
     18  CD1        0.8290   36.4290   22.8130 C.ar   73  PHE73      -0.0042
     19  CD2       -1.2540   35.7970   21.8380 C.ar   73  PHE73      -0.0042
     20  CE1        0.4190   37.7420   22.8770 C.ar   73  PHE73      -0.0003
     21  CE2       -1.6850   37.1090   21.9270 C.ar   73  PHE73      -0.0003
     22  CZ        -0.8460   38.0880   22.4610 C.ar   73  PHE73      -0.0000
     23  N        -11.9330   29.3520   20.9770 N.3   139  TYR139     -0.1241
     24  CA       -10.7200   30.1540   20.8380 C.3   139  TYR139      0.1605
     25  C         -9.5000   29.2640   21.0410 C.2   139  TYR139      0.2264
     26  O         -9.3780   28.5870   22.0670 O.2   139  TYR139     -0.2867
     27  CB       -10.7430   31.3330   21.8220 C.3   139  TYR139      0.0534
     28  CG        -9.6090   32.3180   21.6370 C.ar  139  TYR139     -0.0201
     29  CD1       -9.6100   33.2340   20.5710 C.ar  139  TYR139     -0.0009
     30  CD2       -8.5410   32.3480   22.5430 C.ar  139  TYR139     -0.0009
     31  CE1       -8.5560   34.1220   20.3930 C.ar  139  TYR139      0.0417
     32  CE2       -7.4920   33.2380   22.3870 C.ar  139  TYR139      0.0417
     33  CZ        -7.4930   34.1190   21.3160 C.ar  139  TYR139      0.1957
     34  OH        -6.4630   34.9970   21.2050 O.3   139  TYR139     -0.2866
     35  N         -5.4150   29.0860   21.3190 N.3   141  ARG141     -0.1245
     36  CA        -4.2630   29.8710   21.7950 C.3   141  ARG141      0.1563
     37  C         -2.9740   29.0750   21.7500 C.2   141  ARG141      0.2260
     38  O         -2.6010   28.4220   22.7160 O.2   141  ARG141     -0.2867
     39  CB        -4.5390   30.3480   23.2310 C.3   141  ARG141      0.0307
     40  CG        -3.4360   31.1150   23.9950 C.3   141  ARG141      0.0489
     41  CD        -2.7870   32.2620   23.2190 C.3   141  ARG141      0.2205
     42  NE        -3.6750   33.3840   22.9280 N.pl3 141  ARG141     -0.0865
     43  CZ        -3.9160   34.4200   23.7470 C.cat 141  ARG141      0.5346
     44  NH1       -3.3460   34.5030   24.9320 N.pl3 141  ARG141      0.1354
     45  NH2       -4.7510   35.3830   23.3930 N.pl3 141  ARG141      0.1354
     46  N          3.3900   39.3610   17.2150 N.3   193  LYS193     -0.1245
     47  CA         2.4730   39.0750   18.3380 C.3   193  LYS193      0.1561
     48  C          3.2770   38.4600   19.4830 C.2   193  LYS193      0.2260
     49  O          3.2040   37.2520   19.7710 O.2   193  LYS193     -0.2867
     50  CB         1.3190   38.1860   17.8800 C.3   193  LYS193      0.0271
     51  CG        -0.0220   38.4770   18.5450 C.3   193  LYS193      0.0035
     52  CD        -1.1610   37.7390   17.8430 C.3   193  LYS193      0.0206
     53  CE        -2.5310   38.1000   18.4220 C.3   193  LYS193      0.1093
     54  NZ        -3.0070   39.4380   17.9580 N.3   193  LYS193     -0.1314
     55  N          2.0410   43.5720   25.0820 N.3   198  TYR198     -0.1241
     56  CA         0.7280   43.6440   25.7470 C.3   198  TYR198      0.1605
     57  C          0.7810   44.0750   27.2150 C.2   198  TYR198      0.2264
     58  O         -0.0700   44.8530   27.6690 O.2   198  TYR198     -0.2867
     59  CB        -0.0560   42.3260   25.4940 C.3   198  TYR198      0.0534
     60  CG        -0.1370   42.1240   24.0040 C.ar  198  TYR198     -0.0201
     61  CD1       -1.1100   42.7810   23.2520 C.ar  198  TYR198     -0.0009
     62  CD2        0.8410   41.4060   23.3270 C.ar  198  TYR198     -0.0009
     63  CE1       -1.1450   42.6730   21.8860 C.ar  198  TYR198      0.0417
     64  CE2        0.8200   41.3140   21.9520 C.ar  198  TYR198      0.0417
     65  CZ        -0.1690   41.9530   21.2410 C.ar  198  TYR198      0.1957
     66  OH        -0.1950   41.8530   19.8870 O.3   198  TYR198     -0.2866
     67  N        -11.9440   51.4940   25.4980 N.3   215  GLN215     -0.1245
     68  CA       -10.7070   51.0140   24.8770 C.3   215  GLN215      0.1566
     69  C         -9.7920   52.1780   24.6050 C.2   215  GLN215      0.2260
     70  O        -10.2030   53.3430   24.6380 O.2   215  GLN215     -0.2867
     71  CB       -10.9810   50.2900   23.5440 C.3   215  GLN215      0.0367
     72  CG       -11.8440   49.0540   23.6210 C.3   215  GLN215      0.0905
     73  CD       -11.1230   47.8220   24.1260 C.2   215  GLN215      0.2608
     74  OE1       -9.8950   47.7400   24.1260 O.2   215  GLN215     -0.2717
     75  NE2      -11.9040   46.8350   24.5580 N.am  215  GLN215     -0.0878
     76  N         -6.5580   45.8150   21.1730 N.3   231  THR231     -0.1203
     77  CA        -5.8800   44.7120   20.4960 C.3   231  THR231      0.1994
     78  C         -6.4850   44.4560   19.0890 C.2   231  THR231      0.2617
     79  O         -6.3760   43.3750   18.5520 O.2   231  THR231     -0.2717
     80  CB        -6.0060   43.3980   21.3090 C.3   231  THR231      0.1784
     81  OG1       -7.3880   43.0970   21.5140 O.3   231  THR231     -0.2211
     82  CG2       -5.3080   43.5100   22.6870 C.3   231  THR231      0.0376
     83  N         -7.1220   45.4610   18.5080 N.am  232  MET232     -0.1979
     84  CA        -7.7720   45.3440   17.2000 C.3   232  MET232      0.1605
     85  C         -7.1810   46.3190   16.2120 C.2   232  MET232      0.2287
     86  O         -6.6590   47.3820   16.5880 O.2   232  MET232     -0.2864
     87  CB        -9.2480   45.6770   17.3160 C.3   232  MET232      0.0413
     88  CG       -10.0310   44.6730   18.1630 C.3   232  MET232      0.0598
     89  SD       -11.7220   45.2420   18.4350 S.3   232  MET232     -0.1393
     90  CE       -11.4810   46.6100   19.5430 C.3   232  MET232      0.0692
     91  N        -10.7430   42.2590   14.7200 N.3   303  GLY303     -0.1210
     92  CA        -9.8940   41.3000   15.4180 C.3   303  GLY303      0.1956
     93  C        -10.6540   40.0130   15.6820 C.2   303  GLY303      0.2613
     94  O        -11.8830   39.9690   15.6240 O.2   303  GLY303     -0.2717
     95  N         -9.9240   38.9630   15.9850 N.am  304  THR304     -0.1938
     96  CA       -10.5300   37.6620   16.1590 C.3   304  THR304      0.2028
     97  C        -11.5970   37.6250   17.2410 C.2   304  THR304      0.2642
     98  O        -12.6570   37.0460   17.0220 O.2   304  THR304     -0.2714
     99  CB        -9.4530   36.6160   16.4120 C.3   304  THR304      0.1808
    100  OG1       -8.7230   36.4190   15.2040 O.3   304  THR304     -0.2208
    101  CG2      -10.0310   35.2850   16.8720 C.3   304  THR304      0.0379
    102  N        -11.3570   38.2620   18.3790 N.am  305  ALA305     -0.1963
    103  CA       -12.3180   38.1510   19.4890 C.3   305  ALA305      0.1728
    104  C        -13.6520   38.8280   19.2340 C.2   305  ALA305      0.2616
    105  O        -14.6920   38.3020   19.6070 O.2   305  ALA305     -0.2715
    106  CB       -11.7240   38.6590   20.7930 C.3   305  ALA305      0.0334
    107  N        -13.6110   39.9980   18.6070 N.am  306  CYS306     -0.1968
    108  CA       -14.8150   40.7740   18.3180 C.3   306  CYS306      0.1712
    109  C        -15.3350   40.4830   16.9210 C.2   306  CYS306      0.2296
    110  O        -16.5380   40.3980   16.7130 O.2   306  CYS306     -0.2864
    111  CB       -14.4910   42.2640   18.3700 C.3   306  CYS306      0.0983
    112  SG       -13.5720   42.8010   16.9040 S.3   306  CYS306     -0.0798
@<TRIPOS>BOND
     1    91    92    1
     2   100    99    1
     3    92    93    1
     4    94    93    2
     5    93    95   am
     6    95    96    1
     7    96    99    1
     8    96    97    1
     9    85    86    2
    10    85    84    1
    11    99   101    1
    12   110   109    2
    13   112   111    1
    14   109   108    1
    15    98    97    2
    16    84    87    1
    17    84    83    1
    18    46    47    1
    19    97   102   am
    20    87    88    1
    21    52    53    1
    22    52    51    1
    23    50    47    1
    24    50    51    1
    25    54    53    1
    26    88    89    1
    27   108   111    1
    28   108   107    1
    29    47    48    1
    30   102   103    1
    31    89    90    1
    32    83    78   am
    33    79    78    2
    34   107   104   am
    35    15    14    2
    36    78    77    1
    37   104   103    1
    38   104   105    2
    39    48    49    2
    40   103   106    1
    41    14    13    1
    42    66    65    1
    43    31    29   ar
    44    31    33   ar
    45    77    76    1
    46    77    80    1
    47    29    28   ar
    48    24    23    1
    49    24    25    1
    50    24    27    1
    51    13    12    1
    52    13    16    1
    53    25    26    2
    54    34    33    1
    55    65    63   ar
    56    65    64   ar
    57    80    81    1
    58    80    82    1
    59    33    32   ar
    60    35    36    1
    61    28    27    1
    62    28    30   ar
    63    37    36    1
    64    37    38    2
    65    36    39    1
    66    19    21   ar
    67    19    17   ar
    68    63    61   ar
    69    21    22   ar
    70    64    62   ar
    71    16    17    1
    72    17    18   ar
    73    32    30   ar
    74    22    20   ar
    75    18    20   ar
    76    42    41    1
    77    42    43    2
    78    41    40    1
    79    39    40    1
    80    61    60   ar
    81    62    60   ar
    82    45    43    1
    83    71    72    1
    84    71    68    1
    85    72    73    1
    86    10    11   ar
    87    10     8   ar
    88    43    44    1
    89    60    59    1
    90    73    74    2
    91    73    75   am
    92    11     9   ar
    93     8     6   ar
    94    69    70    2
    95    69    68    1
    96    68    67    1
    97    55    56    1
    98    59    56    1
    99     9     7   ar
   100    56    57    1
   101     6     7   ar
   102     6     5    1
   103     5     2    1
   104    57    58    2
   105     2     3    1
   106     2     1    1
   107     3     4    2
