@<TRIPOS>MOLECULE
tmp/5bwtB01.pdb
 135 131 0 0 0
SMALL
GASTEIGER

@<TRIPOS>ATOM
      1  N         28.5480   33.5300   34.2220 N.3    26  PHE26      -0.1241
      2  CA        27.4950   34.4400   34.7020 C.3    26  PHE26       0.1605
      3  C         26.0720   33.8970   34.5140 C.2    26  PHE26       0.2264
      4  O         25.7040   33.4410   33.4250 O.2    26  PHE26      -0.2867
      5  CB        27.6070   35.8170   34.0340 C.3    26  PHE26       0.0534
      6  CG        26.6170   36.8190   34.5570 C.ar   26  PHE26      -0.0203
      7  CD1       26.9010   37.5620   35.6960 C.ar   26  PHE26      -0.0042
      8  CD2       25.4010   37.0090   33.9250 C.ar   26  PHE26      -0.0042
      9  CE1       25.9920   38.4820   36.1860 C.ar   26  PHE26      -0.0003
     10  CE2       24.4870   37.9250   34.4090 C.ar   26  PHE26      -0.0003
     11  CZ        24.7820   38.6620   35.5390 C.ar   26  PHE26      -0.0000
     12  N         12.2660   42.6640   36.7490 N.3    71  PHE71      -0.1241
     13  CA        13.3810   42.1240   37.5220 C.3    71  PHE71       0.1605
     14  C         14.3700   43.1740   38.0050 C.2    71  PHE71       0.2264
     15  O         14.2970   44.3500   37.6460 O.2    71  PHE71      -0.2867
     16  CB        14.1320   41.0880   36.7000 C.3    71  PHE71       0.0534
     17  CG        14.8700   41.6670   35.5320 C.ar   71  PHE71      -0.0203
     18  CD1       14.1980   41.9700   34.3500 C.ar   71  PHE71      -0.0042
     19  CD2       16.2380   41.8810   35.5980 C.ar   71  PHE71      -0.0042
     20  CE1       14.8720   42.4880   33.2670 C.ar   71  PHE71      -0.0003
     21  CE2       16.9310   42.4130   34.5050 C.ar   71  PHE71      -0.0003
     22  CZ        16.2430   42.7040   33.3450 C.ar   71  PHE71      -0.0000
     23  N         25.4880   37.4120   42.6060 N.3   137  TYR137     -0.1241
     24  CA        24.4850   38.1820   41.8760 C.3   137  TYR137      0.1605
     25  C         23.1120   37.8430   42.4440 C.2   137  TYR137      0.2264
     26  O         22.8110   36.6840   42.6150 O.2   137  TYR137     -0.2867
     27  CB        24.5600   37.8820   40.3960 C.3   137  TYR137      0.0534
     28  CG        23.6700   38.7600   39.5390 C.ar  137  TYR137     -0.0201
     29  CD1       24.0460   40.0580   39.2010 C.ar  137  TYR137     -0.0009
     30  CD2       22.4770   38.2800   39.0440 C.ar  137  TYR137     -0.0009
     31  CE1       23.2410   40.8400   38.4120 C.ar  137  TYR137      0.0417
     32  CE2       21.6660   39.0600   38.2520 C.ar  137  TYR137      0.0417
     33  CZ        22.0380   40.3350   37.9370 C.ar  137  TYR137      0.1957
     34  OH        21.1950   41.1000   37.1410 O.3   137  TYR137     -0.2866
     35  N         19.0390   38.2360   41.9610 N.3   139  ARG139     -0.1245
     36  CA        18.0080   38.4290   40.9220 C.3   139  ARG139      0.1563
     37  C         16.6390   38.3130   41.5240 C.2   139  ARG139      0.2260
     38  O         16.0850   37.1960   41.5930 O.2   139  ARG139     -0.2867
     39  CB        18.1610   37.3540   39.8250 C.3   139  ARG139      0.0307
     40  CG        17.0290   37.2500   38.7910 C.3   139  ARG139      0.0489
     41  CD        16.6250   38.5790   38.1690 C.3   139  ARG139      0.2205
     42  NE        17.7270   39.2180   37.4320 N.pl3 139  ARG139     -0.0865
     43  CZ        18.0150   39.0180   36.1520 C.cat 139  ARG139      0.5346
     44  NH1       17.2950   38.1940   35.4140 N.pl3 139  ARG139      0.1354
     45  NH2       19.0280   39.6470   35.5960 N.pl3 139  ARG139      0.1354
     46  N         32.2000   39.2330   33.8280 N.3   169  TYR169     -0.1227
     47  CA        31.2460   38.9530   32.7550 C.3   169  TYR169      0.1736
     48  C         31.9630   38.4110   31.5040 C.2   169  TYR169      0.2595
     49  O         31.5080   37.4330   30.9080 O.2   169  TYR169     -0.2718
     50  CB        30.3770   40.1710   32.4200 C.3   169  TYR169      0.0548
     51  CG        29.2180   39.7730   31.5440 C.ar  169  TYR169     -0.0200
     52  CD1       28.0780   39.1870   32.0930 C.ar  169  TYR169     -0.0009
     53  CD2       29.2850   39.9280   30.1600 C.ar  169  TYR169     -0.0009
     54  CE1       27.0250   38.7970   31.2860 C.ar  169  TYR169      0.0417
     55  CE2       28.2410   39.5380   29.3470 C.ar  169  TYR169      0.0417
     56  CZ        27.1140   38.9710   29.9130 C.ar  169  TYR169      0.1957
     57  OH        26.0770   38.5840   29.0960 O.3   169  TYR169     -0.2866
     58  N         33.0670   39.0580   31.1220 N.am  170  PHE170     -0.1976
     59  CA        33.9200   38.6180   30.0110 C.3   170  PHE170      0.1639
     60  C         35.2340   38.0610   30.5650 C.2   170  PHE170      0.2290
     61  O         35.4380   36.8490   30.6450 O.2   170  PHE170     -0.2864
     62  CB        34.2420   39.7880   29.0750 C.3   170  PHE170      0.0560
     63  CG        33.0360   40.4170   28.4320 C.ar  170  PHE170     -0.0200
     64  CD1       32.4180   39.8130   27.3410 C.ar  170  PHE170     -0.0042
     65  CD2       32.5370   41.6320   28.8950 C.ar  170  PHE170     -0.0042
     66  CE1       31.3150   40.3980   26.7350 C.ar  170  PHE170     -0.0003
     67  CE2       31.4360   42.2220   28.2950 C.ar  170  PHE170     -0.0003
     68  CZ        30.8250   41.6040   27.2130 C.ar  170  PHE170     -0.0000
     69  N         12.9860   48.4080   34.4250 N.3   194  LYS194     -0.1245
     70  CA        13.6680   47.1430   34.2370 C.3   194  LYS194      0.1561
     71  C         12.6470   46.0210   34.0560 C.2   194  LYS194      0.2260
     72  O         12.4540   45.1450   34.9140 O.2   194  LYS194     -0.2867
     73  CB        14.6560   46.8910   35.3830 C.3   194  LYS194      0.0271
     74  CG        15.9030   46.1500   34.9210 C.3   194  LYS194      0.0035
     75  CD        17.1110   46.3690   35.8000 C.3   194  LYS194      0.0206
     76  CE        18.4050   45.8840   35.1200 C.3   194  LYS194      0.1093
     77  NZ        18.9850   46.9100   34.1940 N.3   194  LYS194     -0.1314
     78  N         14.0060   43.5650   26.9570 N.3   199  TYR199     -0.1241
     79  CA        15.1890   42.7370   26.6820 C.3   199  TYR199      0.1605
     80  C         15.0580   41.6750   25.5670 C.2   199  TYR199      0.2264
     81  O         15.9560   41.5330   24.7360 O.2   199  TYR199     -0.2867
     82  CB        15.6870   42.1320   28.0060 C.3   199  TYR199      0.0534
     83  CG        16.0330   43.2630   28.9350 C.ar  199  TYR199     -0.0201
     84  CD1       17.2610   43.9290   28.8430 C.ar  199  TYR199     -0.0009
     85  CD2       15.0940   43.7520   29.8220 C.ar  199  TYR199     -0.0009
     86  CE1       17.5450   45.0210   29.6610 C.ar  199  TYR199      0.0417
     87  CE2       15.3610   44.8460   30.6280 C.ar  199  TYR199      0.0417
     88  CZ        16.5830   45.4740   30.5520 C.ar  199  TYR199      0.1957
     89  OH        16.7820   46.5720   31.3650 O.3   199  TYR199     -0.2866
     90  N         28.9240   44.0820   21.4710 N.3   216  GLN216     -0.1245
     91  CA        27.7610   44.6790   22.1150 C.3   216  GLN216      0.1566
     92  C         27.0870   45.6300   21.1500 C.2   216  GLN216      0.2260
     93  O         27.6580   46.0090   20.1210 O.2   216  GLN216     -0.2867
     94  CB        28.1720   45.4490   23.3850 C.3   216  GLN216      0.0367
     95  CG        28.6710   44.5820   24.5420 C.3   216  GLN216      0.0905
     96  CD        27.5690   43.8360   25.2650 C.2   216  GLN216      0.2608
     97  OE1       26.4940   44.3770   25.5190 O.2   216  GLN216     -0.2717
     98  NE2       27.8440   42.5980   25.6370 N.am  216  GLN216     -0.0878
     99  N         23.0590   46.2510   27.8850 N.3   232  THR232     -0.1203
    100  CA        22.3560   46.5020   29.1380 C.3   232  THR232      0.1994
    101  C         23.1480   47.4400   30.0980 C.2   232  THR232      0.2617
    102  O         23.0390   47.3130   31.3190 O.2   232  THR232     -0.2717
    103  CB        22.0910   45.1760   29.8710 C.3   232  THR232      0.1784
    104  OG1       23.3390   44.6060   30.2670 O.3   232  THR232     -0.2211
    105  CG2       21.3500   44.2000   28.9740 C.3   232  THR232      0.0376
    106  N         23.9110   48.3810   29.5400 N.am  233  MET233     -0.1979
    107  CA        24.7830   49.2640   30.3160 C.3   233  MET233      0.1605
    108  C         24.5840   50.7270   29.9390 C.2   233  MET233      0.2287
    109  O         24.3060   51.0470   28.7780 O.2   233  MET233     -0.2864
    110  CB        26.2480   48.9130   30.0630 C.3   233  MET233      0.0413
    111  CG        26.6350   47.4970   30.4490 C.3   233  MET233      0.0598
    112  SD        28.3970   47.2160   30.1840 S.3   233  MET233     -0.1393
    113  CE        28.4500   47.0660   28.4010 C.3   233  MET233      0.0692
    114  N         27.3550   48.9320   34.3760 N.3   304  GLY304     -0.1210
    115  CA        26.2130   48.1340   34.7950 C.3   304  GLY304      0.1956
    116  C         26.6370   47.1310   35.8430 C.2   304  GLY304      0.2613
    117  O         27.8040   46.7780   35.9260 O.2   304  GLY304     -0.2717
    118  N         25.6980   46.6460   36.6300 N.am  305  THR305     -0.1938
    119  CA        26.0130   45.7110   37.7090 C.3   305  THR305      0.2028
    120  C         26.9240   44.5070   37.3410 C.2   305  THR305      0.2642
    121  O         27.8760   44.2120   38.0640 O.2   305  THR305     -0.2714
    122  CB        24.7020   45.2020   38.3460 C.3   305  THR305      0.1808
    123  OG1       24.0130   46.3090   38.9470 O.3   305  THR305     -0.2208
    124  CG2       24.9710   44.1790   39.4030 C.3   305  THR305      0.0379
    125  N         26.6480   43.8150   36.2400 N.am  306  ALA306     -0.1963
    126  CA        27.4290   42.6110   35.8880 C.3   306  ALA306      0.1728
    127  C         28.8260   42.8940   35.3800 C.2   306  ALA306      0.2616
    128  O         29.7170   42.0550   35.4940 O.2   306  ALA306     -0.2715
    129  CB        26.6880   41.7620   34.8690 C.3   306  ALA306      0.0334
    130  N         29.0490   44.0880   34.8460 N.am  307  CYS307     -0.1968
    131  CA        30.3750   44.4640   34.3560 C.3   307  CYS307      0.1712
    132  C         31.0490   45.5330   35.2240 C.2   307  CYS307      0.2296
    133  O         32.2560   45.4830   35.4710 O.2   307  CYS307     -0.2864
    134  CB        30.2710   44.9670   32.9200 C.3   307  CYS307      0.0983
    135  SG        31.8900   45.2660   32.1950 S.3   307  CYS307     -0.0798
@<TRIPOS>BOND
     1    93    92    2
     2    92    91    1
     3    90    91    1
     4    91    94    1
     5    94    95    1
     6    95    96    1
     7    81    80    2
     8    96    97    2
     9    96    98   am
    10    80    79    1
    11    79    78    1
    12    79    82    1
    13    66    68   ar
    14    66    64   ar
    15    68    67   ar
    16    64    63   ar
    17    99   100    1
    18    82    83    1
    19    67    65   ar
    20   113   112    1
    21    63    65   ar
    22    63    62    1
    23   109   108    2
    24    84    83   ar
    25    84    86   ar
    26    83    85   ar
    27   105   103    1
    28    62    59    1
    29    57    56    1
    30   100   103    1
    31   100   101    1
    32    55    56   ar
    33    55    53   ar
    34   106   101   am
    35   106   107    1
    36    86    88   ar
    37    85    87   ar
    38   103   104    1
    39    56    54   ar
    40   108   107    1
    41    59    60    1
    42    59    58    1
    43   110   107    1
    44   110   111    1
    45   101   102    2
    46    53    51   ar
    47   112   111    1
    48    88    87   ar
    49    88    89    1
    50    60    61    2
    51    49    48    2
    52    58    48   am
    53    54    52   ar
    54    48    47    1
    55    51    52   ar
    56    51    50    1
    57   135   134    1
    58    50    47    1
    59    47    46    1
    60   134   131    1
    61    20    22   ar
    62    20    18   ar
    63    22    21   ar
    64     4     3    2
    65     8    10   ar
    66     8     6   ar
    67     5     6    1
    68     5     2    1
    69    71    70    1
    70    71    72    2
    71    77    76    1
    72     1     2    1
    73    70    69    1
    74    70    73    1
    75    18    17   ar
    76   131   130    1
    77   131   132    1
    78   114   115    1
    79    10    11   ar
    80    21    19   ar
    81     3     2    1
    82     6     7   ar
    83   115   116    1
    84   130   127   am
    85   129   126    1
    86    74    73    1
    87    74    75    1
    88    76    75    1
    89   132   133    2
    90   127   128    2
    91   127   126    1
    92    44    43    1
    93    17    19   ar
    94    17    16    1
    95    11     9   ar
    96    45    43    1
    97     7     9   ar
    98   116   117    2
    99   116   118   am
   100   126   125    1
   101    43    42    2
   102   125   120   am
   103   118   119    1
   104    16    13    1
   105    12    13    1
   106    34    33    1
   107   120   119    1
   108   120   121    2
   109    42    41    1
   110    13    14    1
   111    15    14    2
   112   119   122    1
   113    33    32   ar
   114    33    31   ar
   115    41    40    1
   116    32    30   ar
   117   122   123    1
   118   122   124    1
   119    31    29   ar
   120    40    39    1
   121    30    28   ar
   122    29    28   ar
   123    28    27    1
   124    39    36    1
   125    27    24    1
   126    36    37    1
   127    36    35    1
   128    37    38    2
   129    24    25    1
   130    24    23    1
   131    25    26    2
