@<TRIPOS>MOLECULE
tmp/5bwuB01.pdb
 160 149 0 0 0
SMALL
GASTEIGER

@<TRIPOS>ATOM
      1  N         28.5040   33.4370   33.8760 N.3    25  PHE25      -0.1241
      2  CA        27.4730   34.3450   34.4030 C.3    25  PHE25       0.1605
      3  C         26.0430   33.8230   34.2710 C.2    25  PHE25       0.2264
      4  O         25.6000   33.4780   33.1760 O.2    25  PHE25      -0.2867
      5  CB        27.5340   35.7200   33.7160 C.3    25  PHE25       0.0534
      6  CG        26.4680   36.6700   34.1960 C.ar   25  PHE25      -0.0203
      7  CD1       26.6360   37.3770   35.3840 C.ar   25  PHE25      -0.0042
      8  CD2       25.2850   36.8260   33.4880 C.ar   25  PHE25      -0.0042
      9  CE1       25.6600   38.2350   35.8400 C.ar   25  PHE25      -0.0003
     10  CE2       24.3020   37.6790   33.9430 C.ar   25  PHE25      -0.0003
     11  CZ        24.4890   38.3800   35.1250 C.ar   25  PHE25      -0.0000
     12  N         12.2420   42.6520   36.4240 N.3    70  PHE70      -0.1241
     13  CA        13.3570   42.1130   37.2000 C.3    70  PHE70       0.1605
     14  C         14.3400   43.1620   37.7230 C.2    70  PHE70       0.2264
     15  O         14.2210   44.3540   37.4550 O.2    70  PHE70      -0.2867
     16  CB        14.1200   41.0630   36.3800 C.3    70  PHE70       0.0534
     17  CG        14.8670   41.6280   35.1920 C.ar   70  PHE70      -0.0203
     18  CD1       14.2080   41.9020   34.0030 C.ar   70  PHE70      -0.0042
     19  CD2       16.2360   41.8420   35.2540 C.ar   70  PHE70      -0.0042
     20  CE1       14.8900   42.4020   32.9060 C.ar   70  PHE70      -0.0003
     21  CE2       16.9250   42.3370   34.1600 C.ar   70  PHE70      -0.0003
     22  CZ        16.2520   42.6070   32.9800 C.ar   70  PHE70      -0.0000
     23  N         25.4750   37.3940   42.3130 N.3   136  TYR136     -0.1241
     24  CA        24.4540   38.1480   41.5810 C.3   136  TYR136      0.1605
     25  C         23.0930   37.7840   42.1400 C.2   136  TYR136      0.2264
     26  O         22.7890   36.6140   42.3140 O.2   136  TYR136     -0.2867
     27  CB        24.5080   37.8520   40.0970 C.3   136  TYR136      0.0534
     28  CG        23.6240   38.7360   39.2470 C.ar  136  TYR136     -0.0201
     29  CD1       24.0150   40.0180   38.8950 C.ar  136  TYR136     -0.0009
     30  CD2       22.4210   38.2700   38.7540 C.ar  136  TYR136     -0.0009
     31  CE1       23.2160   40.8130   38.0840 C.ar  136  TYR136      0.0417
     32  CE2       21.6180   39.0560   37.9510 C.ar  136  TYR136      0.0417
     33  CZ        22.0120   40.3250   37.6090 C.ar  136  TYR136      0.1957
     34  OH        21.1850   41.1090   36.8060 O.3   136  TYR136     -0.2866
     35  N         18.9930   38.2720   41.7680 N.3   138  ARG138     -0.1245
     36  CA        17.9820   38.4560   40.7130 C.3   138  ARG138      0.1563
     37  C         16.6070   38.2910   41.2740 C.2   138  ARG138      0.2260
     38  O         16.0770   37.1530   41.2700 O.2   138  ARG138     -0.2867
     39  CB        18.1700   37.4130   39.6120 C.3   138  ARG138      0.0307
     40  CG        17.0370   37.2880   38.5670 C.3   138  ARG138      0.0489
     41  CD        16.6110   38.6150   37.9400 C.3   138  ARG138      0.2205
     42  NE        17.7090   39.2770   37.2270 N.pl3 138  ARG138     -0.0865
     43  CZ        18.0690   39.0610   35.9670 C.cat 138  ARG138      0.5346
     44  NH1       17.4290   38.1830   35.2190 N.pl3 138  ARG138      0.1354
     45  NH2       19.0920   39.7280   35.4420 N.pl3 138  ARG138      0.1354
     46  N         34.5840   38.8390   35.3910 N.3   168  TYR168     -0.1241
     47  CA        34.3180   39.0480   33.9680 C.3   168  TYR168      0.1605
     48  C         35.5840   39.4090   33.1560 C.2   168  TYR168      0.2264
     49  O         35.6750   39.0660   31.9720 O.2   168  TYR168     -0.2867
     50  CB        33.2190   40.0990   33.7730 C.3   168  TYR168      0.0534
     51  CG        32.8880   40.3510   32.3190 C.ar  168  TYR168     -0.0201
     52  CD1       32.3010   39.3550   31.5350 C.ar  168  TYR168     -0.0009
     53  CD2       33.1710   41.5800   31.7220 C.ar  168  TYR168     -0.0009
     54  CE1       32.0060   39.5780   30.1990 C.ar  168  TYR168      0.0417
     55  CE2       32.8750   41.8140   30.3870 C.ar  168  TYR168      0.0417
     56  CZ        32.2920   40.8130   29.6300 C.ar  168  TYR168      0.1957
     57  OH        31.9970   41.0530   28.3070 O.3   168  TYR168     -0.2866
     58  N         35.5660   46.3820   24.0360 N.3   174  VAL174     -0.1245
     59  CA        34.6880   45.8240   23.0110 C.3   174  VAL174      0.1561
     60  C         34.4460   46.7310   21.8070 C.2   174  VAL174      0.2260
     61  O         34.7340   47.9280   21.8130 O.2   174  VAL174     -0.2867
     62  CB        33.3320   45.3700   23.5900 C.3   174  VAL174      0.0252
     63  CG1       33.5490   44.4290   24.7700 C.3   174  VAL174      0.0019
     64  CG2       32.4680   46.5520   23.9860 C.3   174  VAL174      0.0019
     65  N         31.4550   47.8860   18.9050 N.3   176  LEU176     -0.1245
     66  CA        30.0270   48.1350   18.8810 C.3   176  LEU176      0.1561
     67  C         29.5350   48.3390   17.4640 C.2   176  LEU176      0.2260
     68  O         30.2310   48.9230   16.6440 O.2   176  LEU176     -0.2867
     69  CB        29.7150   49.4170   19.6590 C.3   176  LEU176      0.0270
     70  CG        30.3470   49.5430   21.0400 C.3   176  LEU176      0.0019
     71  CD1       29.9940   50.8960   21.6230 C.3   176  LEU176      0.0001
     72  CD2       29.8800   48.4220   21.9510 C.3   176  LEU176      0.0001
     73  N         12.9980   48.2320   34.0940 N.3   194  LYS194     -0.1245
     74  CA        13.6990   46.9810   33.8960 C.3   194  LYS194      0.1561
     75  C         12.6640   45.8860   33.7060 C.2   194  LYS194      0.2260
     76  O         12.4670   45.0420   34.5670 O.2   194  LYS194     -0.2867
     77  CB        14.6590   46.7140   35.0560 C.3   194  LYS194      0.0271
     78  CG        15.9860   46.1200   34.5820 C.3   194  LYS194      0.0035
     79  CD        17.0290   46.1070   35.6940 C.3   194  LYS194      0.0206
     80  CE        18.3620   45.5290   35.2320 C.3   194  LYS194      0.1093
     81  NZ        18.9890   46.2190   34.0570 N.3   194  LYS194     -0.1314
     82  N         13.9550   43.2820   26.5310 N.3   199  TYR199     -0.1241
     83  CA        15.1700   42.5020   26.2640 C.3   199  TYR199      0.1605
     84  C         15.0370   41.4520   25.1480 C.2   199  TYR199      0.2264
     85  O         15.9160   41.3350   24.2980 O.2   199  TYR199     -0.2867
     86  CB        15.6660   41.9050   27.5770 C.3   199  TYR199      0.0534
     87  CG        16.0030   43.0380   28.5110 C.ar  199  TYR199     -0.0201
     88  CD1       17.2690   43.6520   28.4890 C.ar  199  TYR199     -0.0009
     89  CD2       15.0390   43.5590   29.3570 C.ar  199  TYR199     -0.0009
     90  CE1       17.5430   44.7400   29.3020 C.ar  199  TYR199      0.0417
     91  CE2       15.3090   44.6410   30.1750 C.ar  199  TYR199      0.0417
     92  CZ        16.5610   45.2240   30.1470 C.ar  199  TYR199      0.1957
     93  OH        16.7740   46.3060   30.9730 O.3   199  TYR199     -0.2866
     94  N         28.8580   44.0970   20.6970 N.3   216  GLN216     -0.1245
     95  CA        27.6820   44.6000   21.4140 C.3   216  GLN216      0.1566
     96  C         26.9970   45.6090   20.5350 C.2   216  GLN216      0.2260
     97  O         27.5470   46.0290   19.5100 O.2   216  GLN216     -0.2867
     98  CB        28.0940   45.2740   22.7270 C.3   216  GLN216      0.0367
     99  CG        28.7050   44.3300   23.7610 C.3   216  GLN216      0.0905
    100  CD        27.7000   43.3620   24.3600 C.2   216  GLN216      0.2608
    101  OE1       26.4990   43.6100   24.3580 O.2   216  GLN216     -0.2717
    102  NE2       28.1930   42.2590   24.8930 N.am  216  GLN216     -0.0878
    103  N         24.5510   50.9250   25.4970 N.3   230  VAL230     -0.1231
    104  CA        25.3880   49.9360   24.8780 C.3   230  VAL230      0.1692
    105  C         25.0500   48.6130   25.5010 C.2   230  VAL230      0.2593
    106  O         25.3320   48.3740   26.6820 O.2   230  VAL230     -0.2718
    107  CB        26.8940   50.2100   25.0340 C.3   230  VAL230      0.0266
    108  CG1       27.3050   51.2940   24.0900 C.3   230  VAL230      0.0020
    109  CG2       27.2750   50.5880   26.4560 C.3   230  VAL230      0.0020
    110  N         24.4240   47.7630   24.6960 N.am  231  GLY231     -0.1942
    111  CA        23.9940   46.4630   25.1300 C.3   231  GLY231      0.2014
    112  C         22.9950   46.7570   26.2130 C.2   231  GLY231      0.2640
    113  O         22.1280   47.6000   26.0340 O.2   231  GLY231     -0.2714
    114  N         23.1590   46.0670   27.3330 N.am  232  THR232     -0.1936
    115  CA        22.4090   46.3090   28.5260 C.3   232  THR232      0.2028
    116  C         23.2480   47.1480   29.5560 C.2   232  THR232      0.2642
    117  O         23.1890   46.8970   30.7650 O.2   232  THR232     -0.2714
    118  CB        22.0040   44.9710   29.1630 C.3   232  THR232      0.1808
    119  OG1       23.1790   44.2810   29.5790 O.3   232  THR232     -0.2208
    120  CG2       21.2280   44.0960   28.1730 C.3   232  THR232      0.0379
    121  N         24.0060   48.1390   29.0730 N.am  233  MET233     -0.1976
    122  CA        24.8140   49.0110   29.9570 C.3   233  MET233      0.1605
    123  C         24.6080   50.4770   29.5820 C.2   233  MET233      0.2287
    124  O         24.3290   50.7910   28.4320 O.2   233  MET233     -0.2864
    125  CB        26.3060   48.6660   29.8630 C.3   233  MET233      0.0413
    126  CG        26.6280   47.2170   30.1920 C.3   233  MET233      0.0598
    127  SD        28.3880   46.8470   30.1550 S.3   233  MET233     -0.1393
    128  CE        28.8690   47.4230   31.7850 C.3   233  MET233      0.0692
    129  N         31.0220   51.4130   28.9340 N.3   302  GLY302     -0.1225
    130  CA        29.7080   51.0500   29.4090 C.3   302  GLY302      0.1811
    131  C         29.7690   50.9010   30.9050 C.2   302  GLY302      0.2280
    132  O         30.8320   50.5930   31.4340 O.2   302  GLY302     -0.2866
    133  N         27.4820   49.0410   34.2070 N.3   304  GLY304     -0.1225
    134  CA        26.3970   48.1210   34.5480 C.3   304  GLY304      0.1811
    135  C         26.8130   47.1330   35.6000 C.2   304  GLY304      0.2280
    136  O         27.9920   46.9460   35.8150 O.2   304  GLY304     -0.2866
    137  N         26.5180   43.6670   35.8570 N.3   306  ALA306     -0.1231
    138  CA        27.1770   42.4200   35.4280 C.3   306  ALA306      0.1694
    139  C         28.6200   42.6080   35.0050 C.2   306  ALA306      0.2592
    140  O         29.4620   41.7940   35.3720 O.2   306  ALA306     -0.2718
    141  CB        26.4030   41.7380   34.3170 C.3   306  ALA306      0.0304
    142  N         28.9060   43.6640   34.2450 N.am  307  CYS307     -0.1970
    143  CA        30.2540   43.8850   33.7080 C.3   307  CYS307      0.1712
    144  C         30.9440   45.1210   34.2540 C.2   307  CYS307      0.2296
    145  O         31.9830   45.5310   33.7310 O.2   307  CYS307     -0.2864
    146  CB        30.1990   43.9770   32.1840 C.3   307  CYS307      0.0983
    147  SG        29.4410   42.5220   31.4290 S.3   307  CYS307     -0.0798
    148  N         33.1040   48.8190   31.3690 N.3   310  CYS310     -0.1235
    149  CA        33.6810   48.1310   30.2080 C.3   310  CYS310      0.1677
    150  C         34.1510   49.0700   29.1050 C.2   310  CYS310      0.2270
    151  O         33.3450   49.8360   28.5470 O.2   310  CYS310     -0.2867
    152  CB        32.6740   47.1200   29.6380 C.3   310  CYS310      0.0956
    153  SG        33.4260   45.9490   28.4870 S.3   310  CYS310     -0.0801
    154  N         35.3890   50.5700   25.4640 N.3   312  VAL312     -0.1245
    155  CA        35.0240   50.4260   24.0500 C.3   312  VAL312      0.1561
    156  C         36.1820   50.9500   23.1900 C.2   312  VAL312      0.2260
    157  O         36.7320   52.0140   23.4690 O.2   312  VAL312     -0.2867
    158  CB        33.7920   51.2790   23.7120 C.3   312  VAL312      0.0252
    159  CG1       33.5670   51.3440   22.2030 C.3   312  VAL312      0.0019
    160  CG2       32.5570   50.7610   24.4580 C.3   312  VAL312      0.0019
@<TRIPOS>BOND
     1    68    67    2
     2    67    66    1
     3    66    65    1
     4    66    69    1
     5    97    96    2
     6    69    70    1
     7    96    95    1
     8    94    95    1
     9    70    71    1
    10    70    72    1
    11    95    98    1
    12    60    61    2
    13    60    59    1
    14   159   158    1
    15    98    99    1
    16    59    62    1
    17    59    58    1
    18   156   157    2
    19   156   155    1
    20    62    64    1
    21    62    63    1
    22   158   155    1
    23   158   160    1
    24    99   100    1
    25   155   154    1
    26   108   107    1
    27    85    84    2
    28   101   100    2
    29   100   102   am
    30   110   111    1
    31   110   105   am
    32   104   107    1
    33   104   103    1
    34   104   105    1
    35   107   109    1
    36   111   112    1
    37    84    83    1
    38   105   106    2
    39   113   112    2
    40   112   114   am
    41    83    82    1
    42    83    86    1
    43   114   115    1
    44    86    87    1
    45   120   118    1
    46    57    56    1
    47   124   123    2
    48   153   152    1
    49    88    87   ar
    50    88    90   ar
    51    87    89   ar
    52   115   118    1
    53   115   116    1
    54   151   150    2
    55   129   130    1
    56   121   116   am
    57   121   122    1
    58   150   149    1
    59   118   119    1
    60    90    92   ar
    61    89    91   ar
    62   130   131    1
    63   116   117    2
    64   123   122    1
    65    56    54   ar
    66    56    55   ar
    67   152   149    1
    68   125   122    1
    69   125   126    1
    70    92    91   ar
    71    92    93    1
    72   127   126    1
    73   127   128    1
    74    54    52   ar
    75   149   148    1
    76    55    53   ar
    77   131   132    2
    78   147   146    1
    79    52    51   ar
    80    53    51   ar
    81    49    48    2
    82   146   143    1
    83    51    50    1
    84    20    22   ar
    85    20    18   ar
    86    22    21   ar
    87    48    47    1
    88     4     3    2
    89     8    10   ar
    90     8     6   ar
    91    75    74    1
    92    75    76    2
    93   143   142    1
    94   143   144    1
    95     5     6    1
    96     5     2    1
    97   145   144    2
    98    50    47    1
    99     1     2    1
   100    74    73    1
   101    74    77    1
   102    10    11   ar
   103    47    46    1
   104    18    17   ar
   105    81    80    1
   106    21    19   ar
   107     6     7   ar
   108   133   134    1
   109   142   139   am
   110     3     2    1
   111   141   138    1
   112   134   135    1
   113    78    77    1
   114    78    79    1
   115   139   140    2
   116   139   138    1
   117    11     9   ar
   118    17    19   ar
   119    17    16    1
   120    44    43    1
   121    80    79    1
   122     7     9   ar
   123   138   137    1
   124    45    43    1
   125   135   136    2
   126    43    42    2
   127    16    13    1
   128    12    13    1
   129    34    33    1
   130    13    14    1
   131    42    41    1
   132    15    14    2
   133    33    32   ar
   134    33    31   ar
   135    41    40    1
   136    32    30   ar
   137    31    29   ar
   138    40    39    1
   139    30    28   ar
   140    29    28   ar
   141    28    27    1
   142    39    36    1
   143    27    24    1
   144    36    37    1
   145    36    35    1
   146    38    37    2
   147    24    25    1
   148    24    23    1
   149    25    26    2
