@<TRIPOS>MOLECULE
tmp/5bwvA01.pdb
 167 157 0 0 0
SMALL
GASTEIGER

@<TRIPOS>ATOM
      1  N        -14.6110   35.8850   27.8180 N.3    24  PHE24      -0.1241
      2  CA       -13.4460   35.6300   26.9600 C.3    24  PHE24       0.1605
      3  C        -12.1720   35.2570   27.7100 C.2    24  PHE24       0.2264
      4  O        -11.7420   35.9680   28.6190 O.2    24  PHE24      -0.2867
      5  CB       -13.1160   36.8010   26.0190 C.3    24  PHE24       0.0534
      6  CG       -11.8910   36.5470   25.1720 C.ar   24  PHE24      -0.0203
      7  CD1      -11.9710   35.7610   24.0310 C.ar   24  PHE24      -0.0042
      8  CD2      -10.6480   37.0600   25.5400 C.ar   24  PHE24      -0.0042
      9  CE1      -10.8430   35.5090   23.2630 C.ar   24  PHE24      -0.0003
     10  CE2       -9.5190   36.8000   24.7820 C.ar   24  PHE24      -0.0003
     11  CZ        -9.6170   36.0200   23.6420 C.ar   24  PHE24      -0.0000
     12  N          2.6920   34.6160   20.8570 N.3    69  PHE69      -0.1241
     13  CA         1.4560   33.8640   20.8780 C.3    69  PHE69       0.1605
     14  C          0.6900   34.0690   19.5990 C.2    69  PHE69       0.2264
     15  O          1.0420   34.9040   18.7660 O.2    69  PHE69      -0.2867
     16  CB         0.5860   34.2830   22.0660 C.3    69  PHE69       0.0534
     17  CG         0.1280   35.7160   22.0210 C.ar   69  PHE69      -0.0203
     18  CD1        1.0010   36.7520   22.3790 C.ar   69  PHE69      -0.0042
     19  CD2       -1.1680   36.0390   21.6410 C.ar   69  PHE69      -0.0042
     20  CE1        0.5940   38.0700   22.3460 C.ar   69  PHE69      -0.0003
     21  CE2       -1.5800   37.3680   21.5880 C.ar   69  PHE69      -0.0003
     22  CZ        -0.7120   38.3810   21.9680 C.ar   69  PHE69      -0.0000
     23  N        -11.7390   29.4910   20.8380 N.3   135  TYR135     -0.1241
     24  CA       -10.5420   30.3150   20.6610 C.3   135  TYR135      0.1605
     25  C         -9.3280   29.4480   20.9220 C.2   135  TYR135      0.2264
     26  O         -9.2520   28.7960   21.9460 O.2   135  TYR135     -0.2867
     27  CB       -10.5620   31.4780   21.6300 C.3   135  TYR135      0.0534
     28  CG        -9.4250   32.4580   21.4370 C.ar  135  TYR135     -0.0201
     29  CD1       -9.4680   33.4120   20.4310 C.ar  135  TYR135     -0.0009
     30  CD2       -8.3130   32.4390   22.2780 C.ar  135  TYR135     -0.0009
     31  CE1       -8.4240   34.3170   20.2530 C.ar  135  TYR135      0.0417
     32  CE2       -7.2750   33.3440   22.1160 C.ar  135  TYR135      0.0417
     33  CZ        -7.3350   34.2860   21.0940 C.ar  135  TYR135      0.1957
     34  OH        -6.2980   35.2010   20.9400 O.3   135  TYR135     -0.2866
     35  N         -5.2540   29.2120   21.3260 N.3   137  ARG137     -0.1245
     36  CA        -4.1120   30.0320   21.7640 C.3   137  ARG137      0.1563
     37  C         -2.7920   29.2470   21.7390 C.2   137  ARG137      0.2260
     38  O         -2.4310   28.5910   22.7470 O.2   137  ARG137     -0.2867
     39  CB        -4.4170   30.5980   23.1600 C.3   137  ARG137      0.0307
     40  CG        -3.2890   31.3180   23.8930 C.3   137  ARG137      0.0489
     41  CD        -2.6060   32.3940   23.0730 C.3   137  ARG137      0.2205
     42  NE        -3.4710   33.5160   22.7510 N.pl3 137  ARG137     -0.0865
     43  CZ        -3.6260   34.6150   23.4880 C.cat 137  ARG137      0.5346
     44  NH1       -2.9820   34.7720   24.6340 N.pl3 137  ARG137      0.1354
     45  NH2       -4.4420   35.5740   23.0760 N.pl3 137  ARG137      0.1354
     46  N        -18.2330   39.2380   22.2410 N.3   167  TYR167     -0.1241
     47  CA       -17.2790   40.1580   22.8830 C.3   167  TYR167      0.1605
     48  C        -17.5560   41.5600   22.3390 C.2   167  TYR167      0.2264
     49  O        -18.2380   41.7180   21.3190 O.2   167  TYR167     -0.2867
     50  CB       -15.8280   39.7380   22.5870 C.3   167  TYR167      0.0534
     51  CG       -14.7150   40.3940   23.4330 C.ar  167  TYR167     -0.0201
     52  CD1      -14.8070   41.7190   23.8880 C.ar  167  TYR167     -0.0009
     53  CD2      -13.5330   39.6930   23.7170 C.ar  167  TYR167     -0.0009
     54  CE1      -13.7810   42.2960   24.6290 C.ar  167  TYR167      0.0417
     55  CE2      -12.5040   40.2660   24.4520 C.ar  167  TYR167      0.0417
     56  CZ       -12.6330   41.5640   24.9080 C.ar  167  TYR167      0.1957
     57  OH       -11.6180   42.1320   25.6380 O.3   167  TYR167     -0.2866
     58  N        -18.2890   51.1040   20.7790 N.3   172  VAL172     -0.1245
     59  CA       -17.3960   51.5440   21.8640 C.3   172  VAL172      0.1561
     60  C        -16.8850   52.9650   21.6960 C.2   172  VAL172      0.2260
     61  O        -16.8760   53.5190   20.5890 O.2   172  VAL172     -0.2867
     62  CB       -16.1750   50.6070   22.0380 C.3   172  VAL172      0.0252
     63  CG1      -16.6410   49.1950   22.3620 C.3   172  VAL172      0.0019
     64  CG2      -15.3010   50.5800   20.7990 C.3   172  VAL172      0.0019
     65  N        -13.4980   55.5080   22.2880 N.3   174  LEU174     -0.1245
     66  CA       -12.0370   55.4170   22.2600 C.3   174  LEU174      0.1561
     67  C        -11.3620   56.6500   22.8630 C.2   174  LEU174      0.2260
     68  O        -11.7970   57.7670   22.6120 O.2   174  LEU174     -0.2867
     69  CB       -11.5660   55.3020   20.8210 C.3   174  LEU174      0.0270
     70  CG       -12.1620   54.1750   19.9910 C.3   174  LEU174      0.0019
     71  CD1      -11.5650   54.2040   18.5960 C.3   174  LEU174      0.0001
     72  CD2      -11.9230   52.8330   20.6430 C.3   174  LEU174      0.0001
     73  N          3.3890   39.5250   16.9100 N.3   192  LYS192     -0.1245
     74  CA         2.4840   39.2050   17.9980 C.3   192  LYS192      0.1561
     75  C          3.3130   38.6630   19.1800 C.2   192  LYS192      0.2260
     76  O          3.3130   37.4700   19.4910 O.2   192  LYS192     -0.2867
     77  CB         1.3720   38.2470   17.5000 C.3   192  LYS192      0.0271
     78  CG         0.0230   38.4710   18.1670 C.3   192  LYS192      0.0035
     79  CD        -1.0790   37.7110   17.4480 C.3   192  LYS192      0.0206
     80  CE        -2.4550   37.9780   18.0210 C.3   192  LYS192      0.1093
     81  NZ        -2.8640   39.3990   18.0250 N.3   192  LYS192     -0.1314
     82  N          2.2400   43.9720   24.7800 N.3   197  TYR197     -0.1241
     83  CA         0.9340   44.0000   25.4700 C.3   197  TYR197      0.1605
     84  C          0.9930   44.5060   26.9130 C.2   197  TYR197      0.2264
     85  O          0.1760   45.3350   27.3130 O.2   197  TYR197     -0.2867
     86  CB         0.2380   42.6260   25.3290 C.3   197  TYR197      0.0534
     87  CG         0.0240   42.3730   23.8590 C.ar  197  TYR197     -0.0201
     88  CD1        0.9980   41.7340   23.1090 C.ar  197  TYR197     -0.0009
     89  CD2       -1.0660   42.9130   23.1860 C.ar  197  TYR197     -0.0009
     90  CE1        0.8670   41.5860   21.7480 C.ar  197  TYR197      0.0417
     91  CE2       -1.2000   42.7600   21.8040 C.ar  197  TYR197      0.0417
     92  CZ        -0.2230   42.1050   21.0960 C.ar  197  TYR197      0.1957
     93  OH        -0.2890   41.9460   19.7300 O.3   197  TYR197     -0.2866
     94  N        -11.8500   51.8490   25.1420 N.3   214  GLN214     -0.1245
     95  CA       -10.6500   51.3000   24.5200 C.3   214  GLN214      0.1566
     96  C         -9.7260   52.4420   24.1220 C.2   214  GLN214      0.2260
     97  O        -10.1240   53.6020   24.1400 O.2   214  GLN214     -0.2867
     98  CB       -11.0210   50.4630   23.2840 C.3   214  GLN214      0.0367
     99  CG       -11.8780   49.2160   23.5400 C.3   214  GLN214      0.0905
    100  CD       -11.1400   48.0530   24.2020 C.2   214  GLN214      0.2608
    101  OE1       -9.9250   47.9110   24.0870 O.2   214  GLN214     -0.2717
    102  NE2      -11.8980   47.1910   24.8810 N.am  214  GLN214     -0.0878
    103  N         -6.7500   50.0260   17.3990 N.3   228  VAL228     -0.1231
    104  CA        -7.7350   50.3310   18.4360 C.3   228  VAL228      0.1692
    105  C         -7.7040   49.1460   19.3770 C.2   228  VAL228      0.2593
    106  O         -8.0610   48.0400   18.9850 O.2   228  VAL228     -0.2718
    107  CB        -9.1770   50.5660   17.8830 C.3   228  VAL228      0.0266
    108  CG1       -9.3160   51.9430   17.2620 C.3   228  VAL228      0.0020
    109  CG2       -9.5960   49.5240   16.8480 C.3   228  VAL228      0.0020
    110  N         -7.2250   49.3510   20.5980 N.am  229  GLY229     -0.1942
    111  CA        -7.0400   48.2200   21.5070 C.3   229  GLY229      0.2014
    112  C         -6.0580   47.2530   20.8740 C.2   229  GLY229      0.2640
    113  O         -4.9810   47.6660   20.4190 O.2   229  GLY229     -0.2714
    114  N         -6.4480   45.9770   20.8310 N.am  230  THR230     -0.1936
    115  CA        -5.7010   44.9310   20.1700 C.3   230  THR230      0.2028
    116  C         -6.3880   44.5400   18.8610 C.2   230  THR230      0.2642
    117  O         -6.4070   43.3580   18.4860 O.2   230  THR230     -0.2714
    118  CB        -5.5560   43.6770   21.0570 C.3   230  THR230      0.1808
    119  OG1       -6.8490   43.1250   21.3390 O.3   230  THR230     -0.2208
    120  CG2       -4.8560   44.0170   22.3850 C.3   230  THR230      0.0379
    121  N         -6.9400   45.5440   18.1720 N.am  231  MET231     -0.1976
    122  CA        -7.6530   45.3670   16.9080 C.3   231  MET231      0.1605
    123  C         -7.1250   46.3540   15.8440 C.2   231  MET231      0.2287
    124  O         -6.6940   47.4660   16.1580 O.2   231  MET231     -0.2864
    125  CB        -9.1490   45.6200   17.1180 C.3   231  MET231      0.0413
    126  CG        -9.8400   44.6020   18.0120 C.3   231  MET231      0.0598
    127  SD       -11.5990   44.8420   18.2410 S.3   231  MET231     -0.1393
    128  CE       -12.2810   43.9210   16.8850 C.3   231  MET231      0.0692
    129  N        -13.1190   48.4390   14.5510 N.3   300  GLY300     -0.1225
    130  CA       -11.9620   47.5940   14.7510 C.3   300  GLY300      0.1811
    131  C        -12.2140   46.2020   14.2120 C.2   300  GLY300      0.2280
    132  O        -13.3730   45.7690   14.0870 O.2   300  GLY300     -0.2866
    133  N        -10.5700   42.0660   14.5580 N.3   302  GLY302     -0.1210
    134  CA        -9.6580   41.1860   15.2840 C.3   302  GLY302      0.1956
    135  C        -10.4070   39.9230   15.6300 C.2   302  GLY302      0.2613
    136  O        -11.6560   39.9060   15.6460 O.2   302  GLY302     -0.2717
    137  N         -9.6680   38.8740   15.9470 N.am  303  THR303     -0.1938
    138  CA       -10.3020   37.5590   16.1400 C.3   303  THR303      0.2028
    139  C        -11.3180   37.4790   17.2840 C.2   303  THR303      0.2642
    140  O        -12.4300   36.9750   17.1000 O.2   303  THR303     -0.2714
    141  CB        -9.2330   36.4590   16.3250 C.3   303  THR303      0.1808
    142  OG1       -8.5620   36.2590   15.0800 O.3   303  THR303     -0.2208
    143  CG2       -9.8560   35.1290   16.7260 C.3   303  THR303      0.0379
    144  N        -10.9390   37.9500   18.4690 N.am  304  ALA304     -0.1963
    145  CA       -11.7990   37.7770   19.6270 C.3   304  ALA304      0.1728
    146  C        -13.1530   38.4960   19.4950 C.2   304  ALA304      0.2616
    147  O        -14.1760   37.9410   19.8880 O.2   304  ALA304     -0.2715
    148  CB       -11.0760   38.1930   20.9070 C.3   304  ALA304      0.0334
    149  N        -13.1800   39.6900   18.9030 N.am  305  CYS305     -0.1968
    150  CA       -14.4430   40.4450   18.7780 C.3   305  CYS305      0.1712
    151  C        -14.9780   40.5770   17.3580 C.2   305  CYS305      0.2296
    152  O        -16.0530   41.1370   17.1550 O.2   305  CYS305     -0.2864
    153  CB       -14.2860   41.8340   19.3770 C.3   305  CYS305      0.0983
    154  SG       -13.7310   41.7630   21.0830 S.3   305  CYS305     -0.0798
    155  N        -15.9540   45.3980   15.4040 N.3   308  CYS308     -0.1235
    156  CA       -16.6310   46.1810   16.4130 C.3   308  CYS308      0.1677
    157  C        -16.7580   47.6650   16.0330 C.2   308  CYS308      0.2270
    158  O        -15.7560   48.3300   15.7460 O.2   308  CYS308     -0.2867
    159  CB       -15.9100   46.0310   17.7450 C.3   308  CYS308      0.0956
    160  SG       -16.8080   46.8000   19.1110 S.3   308  CYS308     -0.0801
    161  N        -17.3380   51.7440   16.3260 N.3   310  VAL310     -0.1245
    162  CA       -16.9360   52.8180   17.1740 C.3   310  VAL310      0.1561
    163  C        -17.9400   53.9770   17.0510 C.2   310  VAL310      0.2260
    164  O        -18.3220   54.3500   15.9400 O.2   310  VAL310     -0.2867
    165  CB       -15.5230   53.2860   16.7700 C.3   310  VAL310      0.0252
    166  CG1      -15.1350   54.5890   17.4560 C.3   310  VAL310      0.0019
    167  CG2      -14.5070   52.1820   17.0540 C.3   310  VAL310      0.0019
@<TRIPOS>BOND
     1   132   131    2
     2   131   130    1
     3   129   130    1
     4   133   134    1
     5   142   141    1
     6   134   135    1
     7   155   156    1
     8   135   136    2
     9   135   137   am
    10   158   157    2
    11   123   124    2
    12   123   122    1
    13   164   163    2
    14   137   138    1
    15   157   156    1
    16   138   141    1
    17   138   139    1
    18   141   143    1
    19   161   162    1
    20   156   159    1
    21   165   167    1
    22   165   162    1
    23   165   166    1
    24   109   107    1
    25   128   127    1
    26   122   125    1
    27   122   121    1
    28    73    74    1
    29   163   162    1
    30   140   139    2
    31   125   126    1
    32   152   151    2
    33   108   107    1
    34   139   144   am
    35   151   150    1
    36   103   104    1
    37    79    80    1
    38    79    78    1
    39    77    74    1
    40    77    78    1
    41   159   160    1
    42   107   104    1
    43    74    75    1
    44   126   127    1
    45    80    81    1
    46   121   116   am
    47   104   105    1
    48   144   145    1
    49   117   116    2
    50    71    70    1
    51    15    14    2
    52   150   149    1
    53   150   153    1
    54   116   115    1
    55   149   146   am
    56   106   105    2
    57    75    76    2
    58   153   154    1
    59   105   110   am
    60   146   145    1
    61   146   147    2
    62    14    13    1
    63   145   148    1
    64    93    92    1
    65    70    72    1
    66    70    69    1
    67   115   114    1
    68   115   118    1
    69    31    29   ar
    70    31    33   ar
    71   113   112    2
    72    29    28   ar
    73    61    60    2
    74   110   111    1
    75    24    23    1
    76    24    25    1
    77    24    27    1
    78    58    59    1
    79    64    62    1
    80    69    66    1
    81   114   112   am
    82    12    13    1
    83   112   111    1
    84    13    16    1
    85    25    26    2
    86    34    33    1
    87   118   119    1
    88   118   120    1
    89    33    32   ar
    90    92    90   ar
    91    92    91   ar
    92    49    48    2
    93    35    36    1
    94    28    27    1
    95    28    30   ar
    96    21    19   ar
    97    21    22   ar
    98    19    17   ar
    99    60    59    1
   100    37    36    1
   101    37    38    2
   102    90    88   ar
   103    36    39    1
   104    91    89   ar
   105    59    62    1
   106    22    20   ar
   107    17    16    1
   108    17    18   ar
   109    62    63    1
   110    32    30   ar
   111    46    47    1
   112    66    65    1
   113    66    67    1
   114    48    47    1
   115    20    18   ar
   116    50    47    1
   117    50    51    1
   118    68    67    2
   119    42    41    1
   120    42    43    2
   121    41    40    1
   122    45    43    1
   123    88    87   ar
   124    39    40    1
   125    89    87   ar
   126     9    11   ar
   127     9     7   ar
   128    98    99    1
   129    98    95    1
   130    51    53   ar
   131    51    52   ar
   132    43    44    1
   133    99   100    1
   134    11    10   ar
   135    53    55   ar
   136    87    86    1
   137    52    54   ar
   138     7     6   ar
   139   101   100    2
   140    96    97    2
   141    96    95    1
   142   100   102   am
   143    55    56   ar
   144    95    94    1
   145    54    56   ar
   146    82    83    1
   147    10     8   ar
   148    56    57    1
   149     6     8   ar
   150     6     5    1
   151    86    83    1
   152    83    84    1
   153     5     2    1
   154    84    85    2
   155     2     3    1
   156     2     1    1
   157     3     4    2
