@<TRIPOS>MOLECULE
tmp/5bwwB01.pdb
 144 134 0 0 0
SMALL
GASTEIGER

@<TRIPOS>ATOM
      1  N         28.2630   33.7110   33.5850 N.3    25  PHE25      -0.1241
      2  CA        27.2670   34.5790   34.2360 C.3    25  PHE25       0.1605
      3  C         25.8450   34.0250   34.2120 C.2    25  PHE25       0.2264
      4  O         25.3580   33.6260   33.1610 O.2    25  PHE25      -0.2867
      5  CB        27.2460   35.9740   33.5900 C.3    25  PHE25       0.0534
      6  CG        26.1680   36.8740   34.1390 C.ar   25  PHE25      -0.0203
      7  CD1       26.3640   37.5520   35.3230 C.ar   25  PHE25      -0.0042
      8  CD2       24.9520   37.0230   33.4790 C.ar   25  PHE25      -0.0042
      9  CE1       25.3800   38.3680   35.8450 C.ar   25  PHE25      -0.0003
     10  CE2       23.9670   37.8390   33.9910 C.ar   25  PHE25      -0.0003
     11  CZ        24.1790   38.5100   35.1830 C.ar   25  PHE25      -0.0000
     12  N         12.0900   42.6770   36.4500 N.3    70  PHE70      -0.1241
     13  CA        13.1890   42.0920   37.2190 C.3    70  PHE70       0.1605
     14  C         14.1450   43.1700   37.7370 C.2    70  PHE70       0.2264
     15  O         14.0590   44.3370   37.3820 O.2    70  PHE70      -0.2867
     16  CB        13.9320   41.0690   36.3540 C.3    70  PHE70       0.0534
     17  CG        14.7070   41.6590   35.2010 C.ar   70  PHE70      -0.0203
     18  CD1       14.0770   41.9740   33.9890 C.ar   70  PHE70      -0.0042
     19  CD2       16.0800   41.8690   35.3040 C.ar   70  PHE70      -0.0042
     20  CE1       14.7770   42.5170   32.9360 C.ar   70  PHE70      -0.0003
     21  CE2       16.7980   42.4050   34.2370 C.ar   70  PHE70      -0.0003
     22  CZ        16.1430   42.7290   33.0440 C.ar   70  PHE70      -0.0000
     23  N         25.3310   37.5060   42.2670 N.3   136  TYR136     -0.1241
     24  CA        24.3050   38.2750   41.5560 C.3   136  TYR136      0.1605
     25  C         22.9430   37.9120   42.1480 C.2   136  TYR136      0.2264
     26  O         22.6600   36.7540   42.3980 O.2   136  TYR136     -0.2867
     27  CB        24.3720   38.0000   40.0630 C.3   136  TYR136      0.0534
     28  CG        23.4730   38.8500   39.1900 C.ar  136  TYR136     -0.0201
     29  CD1       23.8280   40.1510   38.8430 C.ar  136  TYR136     -0.0009
     30  CD2       22.2780   38.3450   38.6860 C.ar  136  TYR136     -0.0009
     31  CE1       23.0140   40.9280   38.0470 C.ar  136  TYR136      0.0417
     32  CE2       21.4650   39.1140   37.8800 C.ar  136  TYR136      0.0417
     33  CZ        21.8320   40.4060   37.5540 C.ar  136  TYR136      0.1957
     34  OH        21.0240   41.1820   36.7330 O.3   136  TYR136     -0.2866
     35  N         18.8450   38.3220   41.7690 N.3   138  ARG138     -0.1245
     36  CA        17.8230   38.5540   40.7420 C.3   138  ARG138      0.1563
     37  C         16.4240   38.4670   41.3340 C.2   138  ARG138      0.2260
     38  O         15.8680   37.3580   41.4840 O.2   138  ARG138     -0.2867
     39  CB        18.0060   37.5430   39.6190 C.3   138  ARG138      0.0307
     40  CG        16.8840   37.4530   38.5870 C.3   138  ARG138      0.0489
     41  CD        16.5110   38.7720   37.9180 C.3   138  ARG138      0.2205
     42  NE        17.6010   39.3750   37.1580 N.pl3 138  ARG138     -0.0865
     43  CZ        17.8820   39.1620   35.8800 C.cat 138  ARG138      0.5346
     44  NH1       17.1550   38.3430   35.1540 N.pl3 138  ARG138      0.1354
     45  NH2       18.8970   39.7930   35.3030 N.pl3 138  ARG138      0.1354
     46  N         35.4470   46.7120   23.7270 N.3   170  VAL170     -0.1245
     47  CA        34.5100   46.1000   22.7700 C.3   170  VAL170      0.1561
     48  C         34.2290   46.9750   21.5630 C.2   170  VAL170      0.2260
     49  O         34.4750   48.1790   21.5770 O.2   170  VAL170     -0.2867
     50  CB        33.1700   45.7140   23.4390 C.3   170  VAL170      0.0252
     51  CG1       33.4130   44.7220   24.5680 C.3   170  VAL170      0.0019
     52  CG2       32.4270   46.9480   23.9400 C.3   170  VAL170      0.0019
     53  N         31.2430   48.1230   18.7380 N.3   172  LEU172     -0.1245
     54  CA        29.7950   48.2940   18.6920 C.3   172  LEU172      0.1561
     55  C         29.2910   48.5190   17.2770 C.2   172  LEU172      0.2260
     56  O         29.9510   49.1860   16.4930 O.2   172  LEU172     -0.2867
     57  CB        29.4200   49.5200   19.5170 C.3   172  LEU172      0.0270
     58  CG        29.9840   49.5260   20.9240 C.3   172  LEU172      0.0019
     59  CD1       29.5940   50.8100   21.6350 C.3   172  LEU172      0.0001
     60  CD2       29.5130   48.3140   21.6950 C.3   172  LEU172      0.0001
     61  N         12.7540   48.4010   34.1050 N.3   190  LYS190     -0.1245
     62  CA        13.4560   47.1300   33.9170 C.3   190  LYS190      0.1561
     63  C         12.4430   45.9810   33.7040 C.2   190  LYS190      0.2260
     64  O         12.3340   45.0670   34.5060 O.2   190  LYS190     -0.2867
     65  CB        14.4650   46.9000   35.0710 C.3   190  LYS190      0.0271
     66  CG        15.7860   46.2650   34.6170 C.3   190  LYS190      0.0035
     67  CD        16.9320   46.3560   35.6290 C.3   190  LYS190      0.0206
     68  CE        18.2280   45.7350   35.1010 C.3   190  LYS190      0.1093
     69  NZ        18.9410   46.5530   34.0730 N.3   190  LYS190     -0.1314
     70  N         13.8690   43.3550   26.6040 N.3   195  TYR195     -0.1241
     71  CA        15.0760   42.5590   26.3460 C.3   195  TYR195      0.1605
     72  C         14.9680   41.5170   25.2180 C.2   195  TYR195      0.2264
     73  O         15.8620   41.4350   24.3440 O.2   195  TYR195     -0.2867
     74  CB        15.6340   41.9990   27.6720 C.3   195  TYR195      0.0534
     75  CG        15.9130   43.1440   28.6030 C.ar  195  TYR195     -0.0201
     76  CD1       17.1380   43.8300   28.5650 C.ar  195  TYR195     -0.0009
     77  CD2       14.9200   43.6330   29.4420 C.ar  195  TYR195     -0.0009
     78  CE1       17.3590   44.9330   29.3650 C.ar  195  TYR195      0.0417
     79  CE2       15.1390   44.7390   30.2390 C.ar  195  TYR195      0.0417
     80  CZ        16.3670   45.3770   30.1970 C.ar  195  TYR195      0.1957
     81  OH        16.5490   46.4860   30.9750 O.3   195  TYR195     -0.2866
     82  N         28.7230   44.1240   20.2210 N.3   212  GLN212     -0.1245
     83  CA        27.5310   44.6500   20.9080 C.3   212  GLN212      0.1566
     84  C         26.8650   45.7020   20.0830 C.2   212  GLN212      0.2260
     85  O         27.3980   46.1650   19.0740 O.2   212  GLN212     -0.2867
     86  CB        27.9420   45.3240   22.2090 C.3   212  GLN212      0.0367
     87  CG        28.6140   44.4520   23.2200 C.3   212  GLN212      0.0905
     88  CD        27.6520   43.5280   23.9070 C.2   212  GLN212      0.2608
     89  OE1       26.4390   43.7440   23.8790 O.2   212  GLN212     -0.2717
     90  NE2       28.1880   42.5000   24.5570 N.am  212  GLN212     -0.0878
     91  N         24.5680   51.1380   25.4380 N.3   226  VAL226     -0.1231
     92  CA        25.4070   50.1370   24.7820 C.3   226  VAL226      0.1692
     93  C         25.0880   48.7690   25.3490 C.2   226  VAL226      0.2593
     94  O         25.3170   48.5030   26.5250 O.2   226  VAL226     -0.2718
     95  CB        26.9180   50.4310   24.9080 C.3   226  VAL226      0.0266
     96  CG1       27.2660   51.6730   24.1190 C.3   226  VAL226      0.0020
     97  CG2       27.3540   50.5730   26.3530 C.3   226  VAL226      0.0020
     98  N         24.5440   47.9010   24.5020 N.am  227  GLY227     -0.1942
     99  CA        24.1040   46.5910   24.9340 C.3   227  GLY227      0.2014
    100  C         23.0250   46.7630   25.9980 C.2   227  GLY227      0.2640
    101  O         22.0040   47.4110   25.7740 O.2   227  GLY227     -0.2714
    102  N         23.3070   46.2430   27.1820 N.am  228  THR228     -0.1936
    103  CA        22.4610   46.3990   28.3540 C.3   228  THR228      0.2028
    104  C         23.0740   47.3830   29.3630 C.2   228  THR228      0.2642
    105  O         22.7670   47.3060   30.5600 O.2   228  THR228     -0.2714
    106  CB        22.3570   45.0690   29.1180 C.3   228  THR228      0.1808
    107  OG1       23.6360   44.8000   29.7040 O.3   228  THR228     -0.2208
    108  CG2       21.9640   43.9500   28.2210 C.3   228  THR228      0.0379
    109  N         23.9250   48.2910   28.8850 N.am  229  MET229     -0.1976
    110  CA        24.6720   49.2020   29.7540 C.3   229  MET229      0.1605
    111  C         24.4290   50.6650   29.3710 C.2   229  MET229      0.2287
    112  O         24.1140   50.9740   28.2030 O.2   229  MET229     -0.2864
    113  CB        26.1680   48.8590   29.6680 C.3   229  MET229      0.0413
    114  CG        26.5000   47.4290   30.0390 C.3   229  MET229      0.0598
    115  SD        28.2680   47.0870   29.9210 S.3   229  MET229     -0.1393
    116  CE        28.8770   47.6310   31.5050 C.3   229  MET229      0.0692
    117  N         27.1940   49.1910   34.0470 N.3   300  GLY300     -0.1225
    118  CA        26.1190   48.2590   34.3820 C.3   300  GLY300      0.1811
    119  C         26.5700   47.2420   35.4050 C.2   300  GLY300      0.2280
    120  O         27.7730   47.0270   35.5670 O.2   300  GLY300     -0.2866
    121  N         26.3330   43.7410   35.8390 N.3   302  ALA302     -0.1231
    122  CA        27.0310   42.5090   35.4590 C.3   302  ALA302      0.1694
    123  C         28.4750   42.7200   35.0460 C.2   302  ALA302      0.2592
    124  O         29.3330   41.9620   35.4770 O.2   302  ALA302     -0.2718
    125  CB        26.2890   41.7770   34.3600 C.3   302  ALA302      0.0304
    126  N         28.7480   43.7540   34.2540 N.am  303  CYS303     -0.1970
    127  CA        30.0950   43.9800   33.7170 C.3   303  CYS303      0.1712
    128  C         30.8420   45.1700   34.3170 C.2   303  CYS303      0.2296
    129  O         32.0320   45.3460   34.0500 O.2   303  CYS303     -0.2864
    130  CB        30.0430   44.1250   32.1980 C.3   303  CYS303      0.0983
    131  SG        29.4490   42.6340   31.3610 S.3   303  CYS303     -0.0798
    132  N         32.7820   49.0400   31.0230 N.3   306  CYS306     -0.1235
    133  CA        33.3200   48.3690   29.8560 C.3   306  CYS306      0.1677
    134  C         33.7860   49.3400   28.7690 C.2   306  CYS306      0.2270
    135  O         32.9650   50.0190   28.1540 O.2   306  CYS306     -0.2867
    136  CB        32.2480   47.4390   29.3090 C.3   306  CYS306      0.0956
    137  SG        32.8120   46.5250   27.8860 S.3   306  CYS306     -0.0801
    138  N         35.0810   50.9510   25.2230 N.3   308  VAL308     -0.1245
    139  CA        34.7390   50.7900   23.8250 C.3   308  VAL308      0.1561
    140  C         35.9160   51.2740   22.9820 C.2   308  VAL308      0.2260
    141  O         36.4480   52.3570   23.2250 O.2   308  VAL308     -0.2867
    142  CB        33.5020   51.6320   23.4780 C.3   308  VAL308      0.0252
    143  CG1       33.2380   51.6060   21.9870 C.3   308  VAL308      0.0019
    144  CG2       32.2870   51.1550   24.2760 C.3   308  VAL308      0.0019
@<TRIPOS>BOND
     1    56    55    2
     2    55    54    1
     3    54    53    1
     4    54    57    1
     5    85    84    2
     6    57    58    1
     7    84    83    1
     8    82    83    1
     9    83    86    1
    10    58    59    1
    11    58    60    1
    12    48    49    2
    13    48    47    1
    14   143   142    1
    15    86    87    1
    16    47    50    1
    17    47    46    1
    18   140   141    2
    19   140   139    1
    20    87    88    1
    21    50    52    1
    22    50    51    1
    23   142   139    1
    24   142   144    1
    25   139   138    1
    26    89    88    2
    27    88    90   am
    28    96    95    1
    29    73    72    2
    30    98    99    1
    31    98    93   am
    32    92    95    1
    33    92    93    1
    34    92    91    1
    35    95    97    1
    36    99   100    1
    37    72    71    1
    38    93    94    2
    39   101   100    2
    40   100   102   am
    41    71    70    1
    42    71    74    1
    43   102   103    1
    44    74    75    1
    45   137   136    1
    46   135   134    2
    47   112   111    2
    48   108   106    1
    49   103   106    1
    50   103   104    1
    51    76    75   ar
    52    76    78   ar
    53    75    77   ar
    54   134   133    1
    55   109   104   am
    56   109   110    1
    57   106   107    1
    58   136   133    1
    59   104   105    2
    60    78    80   ar
    61   111   110    1
    62    77    79   ar
    63   113   110    1
    64   113   114    1
    65   133   132    1
    66   115   114    1
    67   115   116    1
    68    80    79   ar
    69    80    81    1
    70   131   130    1
    71   130   127    1
    72    20    22   ar
    73    20    18   ar
    74    22    21   ar
    75     4     3    2
    76     8    10   ar
    77     8     6   ar
    78     1     2    1
    79     5     6    1
    80     5     2    1
    81    63    62    1
    82    63    64    2
    83   127   126    1
    84   127   128    1
    85    62    61    1
    86    62    65    1
    87    18    17   ar
    88    10    11   ar
    89   117   118    1
    90   129   128    2
    91    69    68    1
    92     6     7   ar
    93     3     2    1
    94    21    19   ar
    95   126   123   am
    96   125   122    1
    97   118   119    1
    98    66    65    1
    99    66    67    1
   100   123   122    1
   101   123   124    2
   102    68    67    1
   103    44    43    1
   104    11     9   ar
   105    17    19   ar
   106    17    16    1
   107    45    43    1
   108     7     9   ar
   109   119   120    2
   110   122   121    1
   111    43    42    2
   112    16    13    1
   113    12    13    1
   114    34    33    1
   115    42    41    1
   116    13    14    1
   117    15    14    2
   118    33    32   ar
   119    33    31   ar
   120    32    30   ar
   121    41    40    1
   122    31    29   ar
   123    40    39    1
   124    30    28   ar
   125    29    28   ar
   126    28    27    1
   127    39    36    1
   128    27    24    1
   129    36    37    1
   130    36    35    1
   131    37    38    2
   132    24    25    1
   133    24    23    1
   134    25    26    2
