@<TRIPOS>MOLECULE
tmp/5bwzA00.pdb
 130 129 0 0 0
SMALL
GASTEIGER

@<TRIPOS>ATOM
      1  N        -28.0470   13.0870  -14.7050 N.3    83  TYR83      -0.1227
      2  CA       -26.9830   13.3150  -15.6800 C.3    83  TYR83       0.1736
      3  C        -26.6790   12.0400  -16.4600 C.2    83  TYR83       0.2595
      4  O        -27.3100   11.7620  -17.4810 O.2    83  TYR83      -0.2718
      5  CB       -25.7180   13.8440  -14.9990 C.3    83  TYR83       0.0548
      6  CG       -24.6000   14.1510  -15.9840 C.ar   83  TYR83      -0.0200
      7  CD1      -24.8890   14.5440  -17.2890 C.ar   83  TYR83      -0.0009
      8  CD2      -23.2650   14.0230  -15.6200 C.ar   83  TYR83      -0.0009
      9  CE1      -23.8860   14.8050  -18.2020 C.ar   83  TYR83       0.0417
     10  CE2      -22.2470   14.2850  -16.5290 C.ar   83  TYR83       0.0417
     11  CZ       -22.5680   14.6740  -17.8250 C.ar   83  TYR83       0.1957
     12  OH       -21.5860   14.9340  -18.7540 O.3    83  TYR83      -0.2866
     13  N        -25.7150   11.2580  -15.9920 N.am   84  ASP84      -0.1974
     14  CA       -25.3700   10.0350  -16.6970 C.3    84  ASP84       0.1709
     15  C        -26.4240    8.9480  -16.4700 C.2    84  ASP84       0.2293
     16  O        -26.4490    7.9330  -17.1810 O.2    84  ASP84      -0.2864
     17  CB       -23.9820    9.5510  -16.2690 C.3    84  ASP84       0.1436
     18  CG       -23.8440    9.4430  -14.7730 C.2    84  ASP84       0.3671
     19  OD1      -23.6250   10.4850  -14.1220 O.co2  84  ASP84      -0.2456
     20  OD2      -23.9610    8.3170  -14.2480 O.co2  84  ASP84      -0.2456
     21  N        -24.1540   -4.2700  -14.2780 N.3   124  TRP124     -0.1227
     22  CA       -24.2020   -2.8270  -13.9540 C.3   124  TRP124      0.1737
     23  C        -23.7090   -2.5740  -12.5370 C.2   124  TRP124      0.2595
     24  O        -24.4600   -2.3510  -11.5720 O.2   124  TRP124     -0.2718
     25  CB       -25.6380   -2.3050  -14.2210 C.3   124  TRP124      0.0564
     26  CG       -25.8780   -2.5720  -15.7080 C.ar  124  TRP124      0.0003
     27  CD1      -26.6630   -3.5580  -16.2490 C.ar  124  TRP124      0.0946
     28  CD2      -25.1600   -1.9880  -16.8110 C.ar  124  TRP124      0.0152
     29  NE1      -26.5670   -3.5370  -17.6250 N.ar  124  TRP124     -0.2442
     30  CE2      -25.6370   -2.5980  -17.9920 C.ar  124  TRP124      0.0810
     31  CE3      -24.1840   -0.9820  -16.9170 C.ar  124  TRP124      0.0012
     32  CZ2      -25.1730   -2.2320  -19.2670 C.ar  124  TRP124      0.0191
     33  CZ3      -23.7260   -0.6160  -18.1880 C.ar  124  TRP124      0.0001
     34  CH2      -24.2180   -1.2450  -19.3400 C.ar  124  TRP124      0.0015
     35  N        -22.3780   -2.5910  -12.4420 N.am  125  HIS125     -0.1961
     36  CA       -21.6790   -2.7960  -11.1850 C.3   125  HIS125      0.1787
     37  C        -21.5200   -1.5570  -10.3050 C.2   125  HIS125      0.2620
     38  O        -21.0060   -1.6650   -9.1870 O.2   125  HIS125     -0.2715
     39  CB       -20.2990   -3.4240  -11.4700 C.3   125  HIS125      0.0785
     40  CG       -19.4340   -2.6640  -12.4370 C.ar  125  HIS125      0.0821
     41  ND1      -18.1000   -2.9940  -12.6450 N.ar  125  HIS125     -0.2267
     42  CD2      -19.6830   -1.6020  -13.2470 C.ar  125  HIS125      0.1154
     43  CE1      -17.5740   -2.1660  -13.5240 C.ar  125  HIS125      0.1986
     44  NE2      -18.5130   -1.3210  -13.9200 N.ar  125  HIS125     -0.2212
     45  N        -21.9770   -0.3900  -10.7780 N.am  126  HIS126     -0.1973
     46  CA       -21.7990    0.8410   -9.9860 C.3   126  HIS126      0.1656
     47  C        -22.9700    1.2270   -9.0780 C.2   126  HIS126      0.2291
     48  O        -22.7660    2.0310   -8.1720 O.2   126  HIS126     -0.2864
     49  CB       -21.5250    2.0470  -10.8990 C.3   126  HIS126      0.0771
     50  CG       -20.3010    1.9080  -11.7490 C.ar  126  HIS126      0.0820
     51  ND1      -19.0480    1.7040  -11.2100 N.ar  126  HIS126     -0.2267
     52  CD2      -20.1280    1.9940  -13.0870 C.ar  126  HIS126      0.1154
     53  CE1      -18.1550    1.6630  -12.1870 C.ar  126  HIS126      0.1986
     54  NE2      -18.7810    1.8230  -13.3380 N.ar  126  HIS126     -0.2212
     55  N        -22.8290    5.9400  -12.4190 N.3   134  GLY134     -0.1210
     56  CA       -22.0660    5.3920  -13.5430 C.3   134  GLY134      0.1956
     57  C        -22.8670    4.6380  -14.5960 C.2   134  GLY134      0.2611
     58  O        -22.4900    3.5370  -15.0160 O.2   134  GLY134     -0.2717
     59  N        -23.9910    5.2380  -14.9910 N.am  135  PHE135     -0.1976
     60  CA       -24.9330    4.6930  -15.9840 C.3   135  PHE135      0.1639
     61  C        -25.8060    3.5840  -15.3930 C.2   135  PHE135      0.2290
     62  O        -26.6330    3.0350  -16.1060 O.2   135  PHE135     -0.2864
     63  CB       -24.2530    4.1060  -17.2600 C.3   135  PHE135      0.0560
     64  CG       -23.3380    5.0530  -18.0110 C.ar  135  PHE135     -0.0200
     65  CD1      -23.3410    6.4190  -17.7790 C.ar  135  PHE135     -0.0042
     66  CD2      -22.4660    4.5430  -18.9730 C.ar  135  PHE135     -0.0042
     67  CE1      -22.4820    7.2700  -18.4890 C.ar  135  PHE135     -0.0003
     68  CE2      -21.6120    5.3910  -19.6880 C.ar  135  PHE135     -0.0003
     69  CZ       -21.6270    6.7530  -19.4400 C.ar  135  PHE135     -0.0000
     70  N        -14.2270   -5.6510  -16.0480 N.3   161  ASP161     -0.1239
     71  CA       -14.5360   -4.3820  -16.7050 C.3   161  ASP161      0.1674
     72  C        -13.3640   -3.4130  -16.5540 C.2   161  ASP161      0.2266
     73  O        -12.5970   -3.5510  -15.6340 O.2   161  ASP161     -0.2867
     74  CB       -15.7640   -3.7840  -16.0090 C.3   161  ASP161      0.1410
     75  CG       -16.3990   -2.6670  -16.7740 C.2   161  ASP161      0.3668
     76  OD1      -15.9370   -1.5000  -16.6950 O.co2 161  ASP161     -0.2456
     77  OD2      -17.4470   -2.9180  -17.3880 O.co2 161  ASP161     -0.2456
     78  N        -13.5300   -0.5330  -15.5160 N.3   163  HIS163     -0.1241
     79  CA       -13.8080    0.2950  -14.3210 C.3   163  HIS163      0.1621
     80  C        -13.9050   -0.5120  -13.0450 C.2   163  HIS163      0.2264
     81  O        -14.3070   -1.6800  -13.0620 O.2   163  HIS163     -0.2867
     82  CB       -15.1120    1.0790  -14.5410 C.3   163  HIS163      0.0745
     83  CG       -15.0310    2.0190  -15.6940 C.ar  163  HIS163      0.0817
     84  ND1      -15.4090    1.6590  -16.9800 N.ar  163  HIS163     -0.2268
     85  CD2      -14.5950    3.2990  -15.7740 C.ar  163  HIS163      0.1154
     86  CE1      -15.2080    2.6760  -17.7910 C.ar  163  HIS163      0.1986
     87  NE2      -14.7080    3.6880  -17.0900 N.ar  163  HIS163     -0.2212
     88  N        -12.8220    7.4650  -13.5390 N.3   191  PHE191     -0.1241
     89  CA       -14.0130    6.9700  -12.8400 C.3   191  PHE191      0.1605
     90  C        -13.8850    5.5360  -12.3570 C.2   191  PHE191      0.2264
     91  O        -13.4130    4.6770  -13.0880 O.2   191  PHE191     -0.2867
     92  CB       -15.2130    7.0630  -13.8000 C.3   191  PHE191      0.0534
     93  CG       -16.5510    6.8020  -13.1450 C.ar  191  PHE191     -0.0203
     94  CD1      -17.2110    7.8170  -12.4820 C.ar  191  PHE191     -0.0042
     95  CD2      -17.1290    5.5360  -13.1850 C.ar  191  PHE191     -0.0042
     96  CE1      -18.4540    7.5850  -11.8830 C.ar  191  PHE191     -0.0003
     97  CE2      -18.3700    5.2870  -12.5710 C.ar  191  PHE191     -0.0003
     98  CZ       -19.0250    6.3250  -11.9210 C.ar  191  PHE191     -0.0000
     99  N        -15.1270   -2.8550  -22.3090 N.3   250  ASP250     -0.1239
    100  CA       -14.5020   -1.5480  -22.4880 C.3   250  ASP250      0.1674
    101  C        -12.9920   -1.5580  -22.2080 C.2   250  ASP250      0.2266
    102  O        -12.3610   -0.4960  -22.2560 O.2   250  ASP250     -0.2867
    103  CB       -15.1840   -0.4520  -21.6390 C.3   250  ASP250      0.1410
    104  CG       -15.4910   -0.8670  -20.1950 C.2   250  ASP250      0.3668
    105  OD1      -15.0480   -1.9290  -19.7090 O.co2 250  ASP250     -0.2456
    106  OD2      -16.2120   -0.0590  -19.5380 O.co2 250  ASP250     -0.2456
    107  N        -13.1630    4.4100  -24.7940 N.3   257  MET257     -0.1245
    108  CA       -12.4340    4.6840  -23.5520 C.3   257  MET257      0.1570
    109  C        -10.9110    4.7600  -23.7640 C.2   257  MET257      0.2261
    110  O        -10.2080    5.4220  -23.0120 O.2   257  MET257     -0.2867
    111  CB       -12.7550    3.6090  -22.5080 C.3   257  MET257      0.0387
    112  CG       -14.2270    3.5370  -22.0800 C.3   257  MET257      0.0595
    113  SD       -14.4930    4.8280  -20.8570 S.3   257  MET257     -0.1393
    114  CE       -16.2830    4.7770  -20.6860 C.3   257  MET257      0.0692
    115  N        -19.6440   -2.6230  -19.3500 N.3   287  GLY287     -0.1225
    116  CA       -19.2920   -1.5830  -20.3040 C.3   287  GLY287      0.1811
    117  C        -18.8690   -2.1840  -21.6410 C.2   287  GLY287      0.2280
    118  O        -18.7150   -3.3940  -21.8040 O.2   287  GLY287     -0.2866
    119  N        -18.2370    0.1120  -25.5440 N.3   289  TYR289     -0.1241
    120  CA       -18.7790    1.2660  -26.2480 C.3   289  TYR289      0.1605
    121  C        -18.4190    1.3330  -27.7260 C.2   289  TYR289      0.2264
    122  O        -18.8060    2.2690  -28.4280 O.2   289  TYR289     -0.2867
    123  CB       -18.3410    2.5500  -25.5070 C.3   289  TYR289      0.0534
    124  CG       -18.7740    2.4400  -24.0580 C.ar  289  TYR289     -0.0201
    125  CD1      -20.1200    2.4940  -23.7340 C.ar  289  TYR289     -0.0009
    126  CD2      -17.8550    2.1560  -23.0390 C.ar  289  TYR289     -0.0009
    127  CE1      -20.5550    2.3400  -22.4110 C.ar  289  TYR289      0.0417
    128  CE2      -18.2730    2.0010  -21.7210 C.ar  289  TYR289      0.0417
    129  CZ       -19.6220    2.0970  -21.4210 C.ar  289  TYR289      0.1957
    130  OH       -20.0520    1.9250  -20.1260 O.3   289  TYR289     -0.2866
@<TRIPOS>BOND
     1   122   121    2
     2   121   120    1
     3   120   119    1
     4   120   123    1
     5   123   124    1
     6   107   108    1
     7   124   125   ar
     8   124   126   ar
     9   109   108    1
    10   109   110    2
    11   125   127   ar
    12   108   111    1
    13   126   128   ar
    14   111   112    1
    15   100    99    1
    16   100   101    1
    17   100   103    1
    18   127   129   ar
    19   102   101    2
    20   112   113    1
    21   118   117    2
    22   128   129   ar
    23   117   116    1
    24   103   104    1
    25   129   130    1
    26   113   114    1
    27   116   115    1
    28   104   105   ar
    29   104   106   ar
    30    68    69   ar
    31    68    66   ar
    32    69    67   ar
    33    34    32   ar
    34    34    33   ar
    35    32    30   ar
    36    66    64   ar
    37    12    11    1
    38    67    65   ar
    39     9    11   ar
    40     9     7   ar
    41    33    31   ar
    42    64    65   ar
    43    64    63    1
    44    30    29   ar
    45    30    28   ar
    46    11    10   ar
    47    86    87   ar
    48    86    84   ar
    49    29    27   ar
    50     4     3    2
    51    77    75   ar
    52     7     6   ar
    53    63    60    1
    54    16    15    2
    55    87    85   ar
    56    84    83   ar
    57    31    28   ar
    58    28    26   ar
    59    75    76   ar
    60    75    74    1
    61    71    72    1
    62    71    70    1
    63    71    74    1
    64    14    15    1
    65    14    17    1
    66    14    13    1
    67    72    73    2
    68    10     8   ar
    69     3    13   am
    70     3     2    1
    71    17    18    1
    72    27    26   ar
    73    62    61    2
    74    60    61    1
    75    60    59    1
    76     6     8   ar
    77     6     5    1
    78    85    83   ar
    79    26    25    1
    80    83    82    1
    81     2     5    1
    82     2     1    1
    83    78    79    1
    84    58    57    2
    85    59    57   am
    86    18    20   ar
    87    18    19   ar
    88    57    56    1
    89    82    79    1
    90    79    80    1
    91    21    22    1
    92    25    22    1
    93    22    23    1
    94    44    43   ar
    95    44    42   ar
    96    92    93    1
    97    92    89    1
    98    56    55    1
    99    88    89    1
   100    43    41   ar
   101    54    52   ar
   102    54    53   ar
   103    42    40   ar
   104    95    93   ar
   105    95    97   ar
   106    93    94   ar
   107    91    90    2
   108    52    50   ar
   109    81    80    2
   110    89    90    1
   111    41    40   ar
   112    97    98   ar
   113    23    35   am
   114    23    24    2
   115    94    96   ar
   116    35    36    1
   117    40    39    1
   118    53    51   ar
   119    98    96   ar
   120    50    51   ar
   121    50    49    1
   122    39    36    1
   123    36    37    1
   124    49    46    1
   125    45    37   am
   126    45    46    1
   127    37    38    2
   128    46    47    1
   129    47    48    2
