@<TRIPOS>MOLECULE
tmp/5bx0A00.pdb
 142 131 0 0 0
SMALL
GASTEIGER

@<TRIPOS>ATOM
      1  N         18.7280  -22.4900    2.4190 N.3    36  LEU36      -0.1231
      2  CA        18.6300  -22.5020    0.9530 C.3    36  LEU36       0.1693
      3  C         17.1570  -22.3250    0.5170 C.2    36  LEU36       0.2592
      4  O         16.8350  -22.4180   -0.6750 O.2    36  LEU36      -0.2718
      5  CB        19.2640  -23.7740    0.3430 C.3    36  LEU36       0.0284
      6  CG        20.5850  -24.2540    0.9470 C.3    36  LEU36       0.0019
      7  CD1       20.8370  -25.6870    0.6100 C.3    36  LEU36       0.0001
      8  CD2       21.7510  -23.4120    0.5050 C.3    36  LEU36       0.0001
      9  N         16.2980  -22.0680    1.5110 N.am   37  GLY37      -0.1957
     10  CA        14.8770  -21.7650    1.3810 C.3    37  GLY37       0.1869
     11  C         13.9330  -22.7760    0.7570 C.2    37  GLY37       0.2309
     12  O         14.3500  -23.7050    0.0480 O.2    37  GLY37      -0.2863
     13  N         11.1960  -24.4450   -1.6530 N.3    39  GLY39      -0.1210
     14  CA        11.1090  -25.7410   -0.9970 C.3    39  GLY39       0.1956
     15  C          9.7780  -26.3980   -1.2680 C.2    39  GLY39       0.2611
     16  O          8.7480  -25.9690   -0.7350 O.2    39  GLY39      -0.2717
     17  N          9.8070  -27.4400   -2.1200 N.am   40  ASN40      -0.1974
     18  CA         8.6560  -28.2420   -2.5510 C.3    40  ASN40       0.1688
     19  C          8.3600  -29.3490   -1.5030 C.2    40  ASN40       0.2292
     20  O          8.6090  -30.5400   -1.7370 O.2    40  ASN40      -0.2864
     21  CB         8.8910  -28.8110   -3.9790 C.3    40  ASN40       0.1181
     22  CG         9.4360  -27.8140   -4.9890 C.2    40  ASN40       0.2629
     23  OD1        8.7380  -26.8960   -5.4330 O.2    40  ASN40      -0.2716
     24  ND2       10.6950  -27.9780   -5.3840 N.am   40  ASN40      -0.0877
     25  N         14.6410  -25.9630    3.3510 N.3    44  VAL44      -0.1245
     26  CA        15.8970  -26.5900    2.9410 C.3    44  VAL44       0.1561
     27  C         17.0640  -25.8060    3.5670 C.2    44  VAL44       0.2260
     28  O         17.1980  -24.6140    3.3070 O.2    44  VAL44      -0.2867
     29  CB        16.0410  -26.7110    1.3920 C.3    44  VAL44       0.0252
     30  CG1       17.3760  -27.3380    1.0010 C.3    44  VAL44       0.0019
     31  CG2       14.8880  -27.4970    0.7790 C.3    44  VAL44       0.0019
     32  N         22.5450  -31.0310    2.2910 N.3    57  ALA57      -0.1245
     33  CA        21.3540  -30.2280    2.2290 C.3    57  ALA57       0.1562
     34  C         20.3540  -31.0720    2.9930 C.2    57  ALA57       0.2260
     35  O         20.3450  -32.2940    2.8580 O.2    57  ALA57      -0.2867
     36  CB        20.9130  -30.0410    0.7900 C.3    57  ALA57       0.0290
     37  N         16.2850  -31.4560    3.9000 N.3    59  LYS59      -0.1245
     38  CA        14.9100  -31.0470    3.6580 C.3    59  LYS59       0.1561
     39  C         14.0720  -31.4080    4.8760 C.2    59  LYS59       0.2260
     40  O         14.1010  -32.5480    5.3210 O.2    59  LYS59      -0.2867
     41  CB        14.3560  -31.6700    2.3680 C.3    59  LYS59       0.0271
     42  CG        13.2910  -30.8090    1.6820 C.3    59  LYS59       0.0035
     43  CD        12.6730  -31.5230    0.4800 C.3    59  LYS59       0.0206
     44  CE        11.2020  -31.2150    0.3130 C.3    59  LYS59       0.1093
     45  NZ        10.5270  -32.2250   -0.5470 N.3    59  LYS59      -0.1314
     46  N         20.6690  -35.8010   -8.3140 N.3    89  VAL89      -0.1245
     47  CA        21.2720  -35.3560   -7.0330 C.3    89  VAL89       0.1561
     48  C         21.4830  -36.5590   -6.1220 C.2    89  VAL89       0.2260
     49  O         20.5940  -37.3950   -6.0390 O.2    89  VAL89      -0.2867
     50  CB        20.4590  -34.2370   -6.3000 C.3    89  VAL89       0.0252
     51  CG1       21.1030  -33.8580   -4.9780 C.3    89  VAL89       0.0019
     52  CG2       20.3240  -32.9970   -7.1640 C.3    89  VAL89       0.0019
     53  N         20.6360  -34.8790    1.3290 N.3   105  MET105     -0.1230
     54  CA        21.1800  -35.1120    0.0100 C.3   105  MET105      0.1702
     55  C         22.4170  -34.2910   -0.2590 C.2   105  MET105      0.2592
     56  O         22.7860  -33.4370    0.5570 O.2   105  MET105     -0.2718
     57  CB        20.1100  -34.9400   -1.0830 C.3   105  MET105      0.0401
     58  CG        19.4980  -33.5690   -1.1560 C.3   105  MET105      0.0596
     59  SD        17.7030  -33.6490   -0.9850 S.3   105  MET105     -0.1393
     60  CE        17.2260  -34.6730   -2.4940 C.3   105  MET105      0.0692
     61  N         23.0840  -34.6070   -1.3850 N.am  106  GLU106     -0.1966
     62  CA        24.2760  -33.9600   -1.8740 C.3   106  GLU106      0.1733
     63  C         24.0030  -32.4580   -1.9990 C.2   106  GLU106      0.2616
     64  O         22.9190  -32.0660   -2.4480 O.2   106  GLU106     -0.2715
     65  CB        24.6220  -34.5750   -3.2320 C.3   106  GLU106      0.0429
     66  CG        25.7120  -33.8720   -4.0150 C.3   106  GLU106      0.1163
     67  CD        25.8120  -34.2890   -5.4710 C.2   106  GLU106      0.3649
     68  OE1       24.8490  -34.8940   -5.9980 O.co2 106  GLU106     -0.2457
     69  OE2       26.8520  -33.9790   -6.0960 O.co2 106  GLU106     -0.2457
     70  N         24.9630  -31.6230   -1.5390 N.am  107  HIS107     -0.1959
     71  CA        24.8550  -30.1660   -1.6430 C.3   107  HIS107      0.1787
     72  C         25.3000  -29.7220   -3.0070 C.2   107  HIS107      0.2620
     73  O         26.3040  -30.2210   -3.5220 O.2   107  HIS107     -0.2715
     74  CB        25.6520  -29.4430   -0.5450 C.3   107  HIS107      0.0785
     75  CG        25.6940  -27.9550   -0.6920 C.ar  107  HIS107      0.0821
     76  ND1       26.8900  -27.2860   -0.8920 N.ar  107  HIS107     -0.2267
     77  CD2       24.6870  -27.0560   -0.6850 C.ar  107  HIS107      0.1154
     78  CE1       26.5780  -26.0050   -1.0070 C.ar  107  HIS107      0.1986
     79  NE2       25.2640  -25.8140   -0.8800 N.ar  107  HIS107     -0.2212
     80  N         24.5280  -28.7840   -3.5930 N.am  108  MET108     -0.1977
     81  CA        24.7250  -28.1510   -4.9050 C.3   108  MET108      0.1605
     82  C         24.9080  -26.6300   -4.6830 C.2   108  MET108      0.2287
     83  O         23.9480  -25.9180   -4.3300 O.2   108  MET108     -0.2864
     84  CB        23.5550  -28.4860   -5.8280 C.3   108  MET108      0.0413
     85  CG        23.3660  -29.9980   -6.0580 C.3   108  MET108      0.0598
     86  SD        24.7260  -30.7920   -6.9780 S.3   108  MET108     -0.1393
     87  CE        24.3730  -30.2270   -8.6730 C.3   108  MET108      0.0692
     88  N         22.9390  -24.0490   -6.6020 N.3   111  GLY111     -0.1210
     89  CA        21.5270  -23.9940   -6.2600 C.3   111  GLY111      0.1956
     90  C         20.6460  -24.2900   -7.4600 C.2   111  GLY111      0.2612
     91  O         21.0940  -24.9310   -8.4340 O.2   111  GLY111     -0.2717
     92  N         19.3910  -23.7990   -7.4180 N.am  112  SER112     -0.1952
     93  CA        18.4510  -24.0490   -8.4960 C.3   112  SER112      0.1924
     94  C         18.5920  -23.0880   -9.6760 C.2   112  SER112      0.2314
     95  O         19.1080  -21.9670   -9.5290 O.2   112  SER112     -0.2863
     96  CB        17.0270  -24.0380   -7.9640 C.3   112  SER112      0.2116
     97  OG        16.3850  -22.8010   -8.2250 O.3   112  SER112     -0.2180
     98  N         16.9310  -19.7980   -9.2190 N.3   115  GLN115     -0.1245
     99  CA        17.8230  -18.8600   -8.5420 C.3   115  GLN115      0.1566
    100  C         18.8350  -18.2630   -9.5180 C.2   115  GLN115      0.2260
    101  O         19.0650  -17.0500   -9.4950 O.2   115  GLN115     -0.2867
    102  CB        18.5060  -19.5110   -7.3370 C.3   115  GLN115      0.0367
    103  CG        17.5390  -19.8110   -6.1950 C.3   115  GLN115      0.0905
    104  CD        18.0800  -20.8170   -5.2120 C.2   115  GLN115      0.2608
    105  OE1       18.8930  -21.6950   -5.5400 O.2   115  GLN115     -0.2717
    106  NE2       17.5910  -20.7370   -3.9820 N.am  115  GLN115     -0.0878
    107  N         13.2290  -24.6700  -10.6580 N.3   156  SER156     -0.1202
    108  CA        13.4830  -24.8480   -9.2330 C.3   156  SER156      0.2020
    109  C         14.0110  -26.2550   -8.8710 C.2   156  SER156      0.2618
    110  O         14.6050  -26.3870   -7.8080 O.2   156  SER156     -0.2717
    111  CB        12.2230  -24.5400   -8.4380 C.3   156  SER156      0.2103
    112  OG        11.3800  -25.6780   -8.3360 O.3   156  SER156     -0.2182
    113  N         13.7890  -27.2900   -9.7370 N.am  157  ASN157     -0.1974
    114  CA        14.2020  -28.6850   -9.5280 C.3   157  ASN157      0.1688
    115  C         15.4440  -29.1050  -10.3360 C.2   157  ASN157      0.2292
    116  O         15.9190  -30.2330  -10.2170 O.2   157  ASN157     -0.2864
    117  CB        13.0290  -29.6320   -9.7650 C.3   157  ASN157      0.1181
    118  CG        12.0560  -29.6380   -8.6180 C.2   157  ASN157      0.2629
    119  OD1       12.3990  -29.3710   -7.4510 O.2   157  ASN157     -0.2716
    120  ND2       10.8130  -29.9470   -8.9190 N.am  157  ASN157     -0.0877
    121  N         19.2620  -28.5890  -10.4650 N.3   159  LEU159     -0.1245
    122  CA        20.2960  -28.0650   -9.5910 C.3   159  LEU159      0.1561
    123  C         21.6530  -28.1130  -10.2260 C.2   159  LEU159      0.2260
    124  O         22.0150  -29.1080  -10.8640 O.2   159  LEU159     -0.2867
    125  CB        20.3190  -28.8000   -8.2520 C.3   159  LEU159      0.0270
    126  CG        19.0580  -28.7610   -7.3870 C.3   159  LEU159      0.0019
    127  CD1       19.2310  -29.6730   -6.2430 C.3   159  LEU159      0.0001
    128  CD2       18.7820  -27.3760   -6.8330 C.3   159  LEU159      0.0001
    129  N         16.3110  -32.9970   -8.8820 N.3   169  CYS169     -0.1221
    130  CA        15.8570  -33.0980   -7.4930 C.3   169  CYS169      0.1808
    131  C         14.3230  -33.0900   -7.4400 C.2   169  CYS169      0.2601
    132  O         13.6810  -32.8110   -8.4520 O.2   169  CYS169     -0.2717
    133  CB        16.4420  -31.9450   -6.6750 C.3   169  CYS169      0.0970
    134  SG        16.0680  -32.0020   -4.8940 S.3   169  CYS169     -0.0800
    135  N         13.7540  -33.3780   -6.2410 N.am  170  ASP170     -0.1973
    136  CA        12.3430  -33.3900   -5.8090 C.3   170  ASP170      0.1709
    137  C         11.3920  -34.0350   -6.8130 C.2   170  ASP170      0.2293
    138  O         10.3710  -33.4620   -7.2120 O.2   170  ASP170     -0.2864
    139  CB        11.8530  -32.0010   -5.3590 C.3   170  ASP170      0.1436
    140  CG        12.1150  -31.7130   -3.8780 C.2   170  ASP170      0.3671
    141  OD1       12.7710  -32.5600   -3.1990 O.co2 170  ASP170     -0.2456
    142  OD2       11.6550  -30.6570   -3.3900 O.co2 170  ASP170     -0.2456
@<TRIPOS>BOND
     1   124   123    2
     2   107   108    1
     3   121   122    1
     4   115   116    2
     5   115   114    1
     6   123   122    1
     7   117   114    1
     8   117   118    1
     9   113   114    1
    10   113   109   am
    11    94    95    2
    12    94    93    1
    13   122   125    1
    14   100   101    2
    15   100    99    1
    16   108   109    1
    17   108   111    1
    18    98    99    1
    19   120   118   am
    20   129   130    1
    21   109   110    2
    22    87    86    1
    23   118   119    2
    24    99   102    1
    25    93    96    1
    26    93    92    1
    27   132   131    2
    28   111   112    1
    29    91    90    2
    30    46    47    1
    31   125   126    1
    32    97    96    1
    33   130   131    1
    34   130   133    1
    35    90    92   am
    36    90    89    1
    37   131   135   am
    38   126   128    1
    39   126   127    1
    40   102   103    1
    41   138   137    2
    42    52    50    1
    43    47    50    1
    44    47    48    1
    45    86    85    1
    46   137   136    1
    47   133   134    1
    48    88    89    1
    49    50    51    1
    50   135   136    1
    51   103   104    1
    52    48    49    2
    53    69    67   ar
    54    85    84    1
    55    68    67   ar
    56    84    81    1
    57   136   139    1
    58   105   104    2
    59    67    66    1
    60    23    22    2
    61    24    22   am
    62   139   140    1
    63   104   106   am
    64    22    21    1
    65    81    82    1
    66    81    80    1
    67    82    83    2
    68    66    65    1
    69    21    18    1
    70   140   142   ar
    71   140   141   ar
    72    80    72   am
    73    73    72    2
    74    65    62    1
    75    72    71    1
    76    18    17    1
    77    18    19    1
    78    60    59    1
    79    64    63    2
    80    17    15   am
    81    63    62    1
    82    63    70   am
    83    62    61    1
    84    20    19    2
    85    13    14    1
    86    71    70    1
    87    71    74    1
    88    61    55   am
    89    15    14    1
    90    15    16    2
    91    58    57    1
    92    58    59    1
    93    57    54    1
    94    78    76   ar
    95    78    79   ar
    96    76    75   ar
    97    79    77   ar
    98    75    77   ar
    99    75    74    1
   100     4     3    2
   101    45    44    1
   102    55    54    1
   103    55    56    2
   104    54    53    1
   105    12    11    2
   106    44    43    1
   107     5     6    1
   108     5     2    1
   109    43    42    1
   110     8     6    1
   111     3     2    1
   112     3     9   am
   113     7     6    1
   114    11    10    1
   115    31    29    1
   116    36    33    1
   117     2     1    1
   118    30    29    1
   119    10     9    1
   120    29    26    1
   121    42    41    1
   122    33    32    1
   123    33    34    1
   124    41    38    1
   125    35    34    2
   126    26    25    1
   127    26    27    1
   128    28    27    2
   129    38    37    1
   130    38    39    1
   131    39    40    2
