@<TRIPOS>MOLECULE
tmp/5bx2A00.pdb
 172 165 0 0 0
SMALL
GASTEIGER

@<TRIPOS>ATOM
      1  N         57.0640   59.0080   63.8300 N.3   409  GLU409     -0.1245
      2  CA        57.9700   60.1270   63.6000 C.3   409  GLU409      0.1567
      3  C         58.7030   60.4880   64.8910 C.2   409  GLU409      0.2260
      4  O         59.9180   60.6650   64.9020 O.2   409  GLU409     -0.2867
      5  CB        57.1690   61.3340   63.0940 C.3   409  GLU409      0.0388
      6  CG        58.0110   62.5480   62.7000 C.3   409  GLU409      0.1160
      7  CD        57.1990   63.8110   62.4410 C.2   409  GLU409      0.3649
      8  OE1       55.9890   63.8410   62.7180 O.co2 409  GLU409     -0.2457
      9  OE2       57.8030   64.8050   61.9530 O.co2 409  GLU409     -0.2457
     10  N         55.1060   64.6720   67.8120 N.3   413  TYR413     -0.1241
     11  CA        54.3420   64.6900   66.5760 C.3   413  TYR413      0.1605
     12  C         53.9880   63.2410   66.2690 C.2   413  TYR413      0.2264
     13  O         54.7540   62.5260   65.6240 O.2   413  TYR413     -0.2867
     14  CB        55.1510   65.3080   65.4350 C.3   413  TYR413      0.0534
     15  CG        56.0420   66.4950   65.7790 C.ar  413  TYR413     -0.0201
     16  CD1       55.5860   67.5610   66.5480 C.ar  413  TYR413     -0.0009
     17  CD2       57.3380   66.5600   65.2870 C.ar  413  TYR413     -0.0009
     18  CE1       56.4020   68.6490   66.8170 C.ar  413  TYR413      0.0417
     19  CE2       58.1560   67.6360   65.5490 C.ar  413  TYR413      0.0417
     20  CZ        57.6900   68.6840   66.3160 C.ar  413  TYR413      0.1957
     21  OH        58.5220   69.7600   66.5830 O.3   413  TYR413     -0.2866
     22  N         52.7660   60.6750   64.6060 N.3   415  TYR415     -0.1241
     23  CA        52.3730   60.2610   63.2600 C.3   415  TYR415      0.1605
     24  C         53.1790   59.0360   62.8480 C.2   415  TYR415      0.2264
     25  O         54.4240   59.0690   62.8620 O.2   415  TYR415     -0.2867
     26  CB        52.5880   61.4110   62.2610 C.3   415  TYR415      0.0534
     27  CG        51.8500   62.6640   62.6780 C.ar  415  TYR415     -0.0201
     28  CD1       50.4810   62.6360   62.8580 C.ar  415  TYR415     -0.0009
     29  CD2       52.5270   63.8500   62.9420 C.ar  415  TYR415     -0.0009
     30  CE1       49.7870   63.7570   63.2670 C.ar  415  TYR415      0.0417
     31  CE2       51.8380   64.9830   63.3510 C.ar  415  TYR415      0.0417
     32  CZ        50.4710   64.9200   63.5150 C.ar  415  TYR415      0.1957
     33  OH        49.7950   66.0590   63.9350 O.3   415  TYR415     -0.2866
     34  N         55.8530   58.6760   58.7260 N.3   418  THR418     -0.1218
     35  CA        56.0020   59.9230   58.0250 C.3   418  THR418      0.1862
     36  C         57.0410   59.6640   56.9320 C.2   418  THR418      0.2287
     37  O         58.2510   59.5640   57.1980 O.2   418  THR418     -0.2866
     38  CB        56.4340   61.0350   58.9750 C.3   418  THR418      0.1770
     39  OG1       57.5450   60.5860   59.7550 O.3   418  THR418     -0.2211
     40  CG2       55.3220   61.3730   59.9130 C.3   418  THR418      0.0375
     41  N         58.3060   61.2690   54.4190 N.3   420  ASP420     -0.1225
     42  CA        59.3500   62.2530   54.1540 C.3   420  ASP420      0.1805
     43  C         60.5360   62.0920   55.0910 C.2   420  ASP420      0.2597
     44  O         61.6570   62.4630   54.7370 O.2   420  ASP420     -0.2718
     45  CB        58.7950   63.6860   54.2440 C.3   420  ASP420      0.1424
     46  CG        58.1320   63.9740   55.5820 C.2   420  ASP420      0.3668
     47  OD1       57.2400   63.1930   56.0000 O.co2 420  ASP420     -0.2456
     48  OD2       58.5120   64.9690   56.2170 O.co2 420  ASP420     -0.2456
     49  N         60.2680   61.5650   56.2870 N.am  421  VAL421     -0.1980
     50  CA        61.2930   61.3220   57.3030 C.3   421  VAL421      0.1595
     51  C         61.8710   59.9010   57.1560 C.2   421  VAL421      0.2287
     52  O         63.0860   59.6940   57.3530 O.2   421  VAL421     -0.2864
     53  CB        60.7080   61.4990   58.7290 C.3   421  VAL421      0.0276
     54  CG1       61.7980   61.3510   59.7760 C.3   421  VAL421      0.0022
     55  CG2       59.9990   62.8420   58.8780 C.3   421  VAL421      0.0022
     56  N         51.4500   61.6750   53.5410 N.3   475  HIS475     -0.1241
     57  CA        52.5110   62.0680   54.4570 C.3   475  HIS475      0.1621
     58  C         52.7630   61.0080   55.5190 C.2   475  HIS475      0.2264
     59  O         53.9080   60.7910   55.9150 O.2   475  HIS475     -0.2867
     60  CB        52.1120   63.3810   55.1110 C.3   475  HIS475      0.0745
     61  CG        53.0080   63.8240   56.2210 C.ar  475  HIS475      0.0817
     62  ND1       52.7650   63.5050   57.5380 N.ar  475  HIS475     -0.2268
     63  CD2       54.1250   64.5890   56.2200 C.ar  475  HIS475      0.1154
     64  CE1       53.7000   64.0410   58.2980 C.ar  475  HIS475      0.1986
     65  NE2       54.5330   64.7110   57.5240 N.ar  475  HIS475     -0.2212
     66  N         48.6310   64.0760   60.0070 N.3   491  TYR491     -0.1241
     67  CA        49.3450   65.3470   60.0240 C.3   491  TYR491      0.1605
     68  C         48.5560   66.4450   59.3180 C.2   491  TYR491      0.2264
     69  O         48.0220   66.2360   58.2210 O.2   491  TYR491     -0.2867
     70  CB        50.6840   65.1430   59.3410 C.3   491  TYR491      0.0534
     71  CG        51.5230   66.3570   59.0360 C.ar  491  TYR491     -0.0201
     72  CD1       52.4670   66.8340   59.9390 C.ar  491  TYR491     -0.0009
     73  CD2       51.4630   66.9530   57.7790 C.ar  491  TYR491     -0.0009
     74  CE1       53.2950   67.8970   59.6180 C.ar  491  TYR491      0.0417
     75  CE2       52.2750   68.0150   57.4570 C.ar  491  TYR491      0.0417
     76  CZ        53.1760   68.4900   58.3750 C.ar  491  TYR491      0.1957
     77  OH        53.9750   69.5420   58.0210 O.3   491  TYR491     -0.2866
     78  N         52.7410   68.4380   48.5770 N.3   499  TRP499     -0.1241
     79  CA        54.1870   68.3600   48.8040 C.3   499  TRP499      0.1605
     80  C         54.9230   67.9090   47.5490 C.2   499  TRP499      0.2264
     81  O         54.3760   67.1840   46.7260 O.2   499  TRP499     -0.2867
     82  CB        54.5070   67.4710   49.9960 C.3   499  TRP499      0.0550
     83  CG        54.3190   68.1890   51.2980 C.ar  499  TRP499      0.0003
     84  CD1       53.5300   69.2860   51.5280 C.ar  499  TRP499      0.0946
     85  CD2       54.9340   67.8670   52.5520 C.ar  499  TRP499      0.0152
     86  NE1       53.6190   69.6680   52.8430 N.ar  499  TRP499     -0.2442
     87  CE2       54.4660   68.8020   53.4980 C.ar  499  TRP499      0.0810
     88  CE3       55.8300   66.8710   52.9680 C.ar  499  TRP499      0.0012
     89  CZ2       54.8750   68.7870   54.8250 C.ar  499  TRP499      0.0191
     90  CZ3       56.2240   66.8500   54.2890 C.ar  499  TRP499      0.0001
     91  CH2       55.7600   67.8000   55.2030 C.ar  499  TRP499      0.0015
     92  N         59.5470   68.2120   53.5060 N.3   559  THR559     -0.1218
     93  CA        59.9240   67.8250   54.8790 C.3   559  THR559      0.1862
     94  C         60.3750   68.9640   55.8010 C.2   559  THR559      0.2287
     95  O         60.1510   68.9140   57.0170 O.2   559  THR559     -0.2866
     96  CB        60.9920   66.6980   54.8510 C.3   559  THR559      0.1770
     97  OG1       60.9900   65.9660   56.0870 O.3   559  THR559     -0.2211
     98  CG2       62.3750   67.2390   54.5440 C.3   559  THR559      0.0375
     99  N         59.2090   71.6000   56.9500 N.3   561  ASP561     -0.1239
    100  CA        57.8070   72.0190   56.8760 C.3   561  ASP561      0.1674
    101  C         57.5110   73.3860   57.5110 C.2   561  ASP561      0.2266
    102  O         56.3480   73.7460   57.6860 O.2   561  ASP561     -0.2867
    103  CB        56.8680   70.9230   57.4110 C.3   561  ASP561      0.1410
    104  CG        56.9860   70.6970   58.9220 C.2   561  ASP561      0.3668
    105  OD1       57.9170   71.2290   59.5590 O.co2 561  ASP561     -0.2456
    106  OD2       56.1290   69.9580   59.4760 O.co2 561  ASP561     -0.2456
    107  N         64.1480   76.3620   60.9810 N.3   695  GLN695     -0.1245
    108  CA        64.7360   75.1190   60.4560 C.3   695  GLN695      0.1566
    109  C         66.0630   75.3520   59.7410 C.2   695  GLN695      0.2260
    110  O         66.9290   74.4810   59.7610 O.2   695  GLN695     -0.2867
    111  CB        63.7530   74.3570   59.5700 C.3   695  GLN695      0.0367
    112  CG        62.5890   73.7920   60.3660 C.3   695  GLN695      0.0905
    113  CD        61.5150   73.1670   59.5040 C.2   695  GLN695      0.2608
    114  OE1       61.4480   73.3940   58.2870 O.2   695  GLN695     -0.2717
    115  NE2       60.6670   72.3530   60.1260 N.am  695  GLN695     -0.0878
    116  N         69.8760   69.1130   61.7330 N.3   700  TRP700     -0.1241
    117  CA        69.0040   67.9470   61.7720 C.3   700  TRP700      0.1605
    118  C         69.9090   66.7230   61.8270 C.2   700  TRP700      0.2264
    119  O         70.6900   66.4730   60.9150 O.2   700  TRP700     -0.2867
    120  CB        68.0520   67.9120   60.5680 C.3   700  TRP700      0.0550
    121  CG        66.8830   68.8570   60.7070 C.ar  700  TRP700      0.0003
    122  CD1       66.7840   69.9240   61.5620 C.ar  700  TRP700      0.0946
    123  CD2       65.6560   68.8340   59.9620 C.ar  700  TRP700      0.0152
    124  NE1       65.5790   70.5540   61.3920 N.ar  700  TRP700     -0.2442
    125  CE2       64.8690   69.9040   60.4230 C.ar  700  TRP700      0.0810
    126  CE3       65.1520   68.0200   58.9410 C.ar  700  TRP700      0.0012
    127  CZ2       63.6040   70.1780   59.9050 C.ar  700  TRP700      0.0191
    128  CZ3       63.8800   68.2820   58.4360 C.ar  700  TRP700      0.0001
    129  CH2       63.1300   69.3650   58.9080 C.ar  700  TRP700      0.0015
    130  N         65.2370   65.3160   66.6540 N.3   745  GLU745     -0.1245
    131  CA        65.2990   65.8060   65.2770 C.3   745  GLU745      0.1567
    132  C         66.4360   66.8170   65.1300 C.2   745  GLU745      0.2260
    133  O         67.2650   66.7050   64.2350 O.2   745  GLU745     -0.2867
    134  CB        63.9900   66.4950   64.8920 C.3   745  GLU745      0.0388
    135  CG        64.0360   67.3160   63.5980 C.3   745  GLU745      0.1160
    136  CD        63.8000   66.5240   62.3330 C.2   745  GLU745      0.3649
    137  OE1       64.6990   65.7470   61.9120 O.co2 745  GLU745     -0.2457
    138  OE2       62.7260   66.7100   61.7080 O.co2 745  GLU745     -0.2457
    139  N         64.7960   70.2410   69.5120 N.3   754  ARG754     -0.1245
    140  CA        63.4040   70.0510   69.1520 C.3   754  ARG754      0.1563
    141  C         63.1600   68.5800   68.8420 C.2   754  ARG754      0.2260
    142  O         63.8700   67.9880   68.0180 O.2   754  ARG754     -0.2867
    143  CB        63.0360   70.9200   67.9500 C.3   754  ARG754      0.0307
    144  CG        61.5830   70.8160   67.5140 C.3   754  ARG754      0.0489
    145  CD        61.2360   71.9100   66.5050 C.3   754  ARG754      0.2205
    146  NE        61.9770   71.7760   65.2490 N.pl3 754  ARG754     -0.0865
    147  CZ        61.6770   70.9190   64.2810 C.cat 754  ARG754      0.5346
    148  NH1       60.6520   70.0840   64.4090 N.pl3 754  ARG754      0.1354
    149  NH2       62.4210   70.8730   63.1860 N.pl3 754  ARG754      0.1354
    150  N         63.4340   60.6410   68.0890 N.3   758  TYR758     -0.1241
    151  CA        63.0770   61.0030   66.7170 C.3   758  TYR758      0.1605
    152  C         63.5390   59.9640   65.6900 C.2   758  TYR758      0.2264
    153  O         64.5810   59.3550   65.8420 O.2   758  TYR758     -0.2867
    154  CB        63.6520   62.3890   66.3780 C.3   758  TYR758      0.0534
    155  CG        62.8940   63.0130   65.2540 C.ar  758  TYR758     -0.0201
    156  CD1       61.6360   63.5660   65.4750 C.ar  758  TYR758     -0.0009
    157  CD2       63.3750   62.9990   63.9640 C.ar  758  TYR758     -0.0009
    158  CE1       60.8950   64.0910   64.4370 C.ar  758  TYR758      0.0417
    159  CE2       62.6330   63.5110   62.9130 C.ar  758  TYR758      0.0417
    160  CZ        61.3940   64.0540   63.1550 C.ar  758  TYR758      0.1957
    161  OH        60.6520   64.5460   62.0950 O.3   758  TYR758     -0.2866
    162  N         64.4130   60.2090   62.3570 N.3   760  ARG760     -0.1245
    163  CA        65.3640   60.5070   61.2790 C.3   760  ARG760      0.1563
    164  C         66.8210   60.0480   61.5140 C.2   760  ARG760      0.2260
    165  O         67.4400   59.5870   60.5640 O.2   760  ARG760     -0.2867
    166  CB        65.3260   61.9930   60.8980 C.3   760  ARG760      0.0307
    167  CG        65.5480   62.2740   59.4200 C.3   760  ARG760      0.0489
    168  CD        65.5710   63.7670   59.0920 C.3   760  ARG760      0.2205
    169  NE        64.3500   64.4850   59.5060 N.pl3 760  ARG760     -0.0865
    170  CZ        63.3130   64.8000   58.7150 C.cat 760  ARG760      0.5346
    171  NH1       63.2900   64.4570   57.4340 N.pl3 760  ARG760      0.1354
    172  NH2       62.2750   65.4830   59.2140 N.pl3 760  ARG760      0.1354
@<TRIPOS>BOND
     1    81    80    2
     2    80    79    1
     3    78    79    1
     4    79    82    1
     5    82    83    1
     6    83    84   ar
     7    83    85   ar
     8    84    86   ar
     9    85    88   ar
    10    85    87   ar
    11    86    87   ar
    12    88    90   ar
    13    87    89   ar
    14    92    93    1
    15    56    57    1
    16    42    45    1
    17    42    41    1
    18    42    43    1
    19    45    46    1
    20    90    91   ar
    21    57    60    1
    22    57    58    1
    23    98    96    1
    24    44    43    2
    25    89    91   ar
    26    96    93    1
    27    96    97    1
    28    93    94    1
    29    43    49   am
    30    60    61    1
    31    58    59    2
    32    46    47   ar
    33    46    48   ar
    34    94    95    2
    35    63    61   ar
    36    63    65   ar
    37    61    62   ar
    38    49    50    1
    39   100    99    1
    40   100   103    1
    41   100   101    1
    42    36    37    2
    43    36    35    1
    44    51    50    1
    45    51    52    2
    46    50    53    1
    47   103   104    1
    48   171   170    1
    49    75    73   ar
    50    75    76   ar
    51   101   102    2
    52    65    64   ar
    53    62    64   ar
    54    73    71   ar
    55    77    76    1
    56    35    34    1
    57    35    38    1
    58    69    68    2
    59   114   113    2
    60    76    74   ar
    61   128   129   ar
    62   128   126   ar
    63   170   172    1
    64   170   169    2
    65    53    55    1
    66    53    54    1
    67   129   127   ar
    68   104   106   ar
    69   104   105   ar
    70   126   123   ar
    71    38    39    1
    72    38    40    1
    73    71    70    1
    74    71    72   ar
    75   168   167    1
    76   168   169    1
    77    68    67    1
    78    70    67    1
    79   167   166    1
    80   113   115   am
    81   113   112    1
    82   111   112    1
    83   111   108    1
    84    74    72   ar
    85   109   110    2
    86   109   108    1
    87   127   125   ar
    88   123   125   ar
    89   123   121   ar
    90    66    67    1
    91   125   124   ar
    92   108   107    1
    93   165   164    2
    94   120   121    1
    95   120   117    1
    96   121   122   ar
    97   166   163    1
    98   119   118    2
    99   163   164    1
   100   163   162    1
   101   124   122   ar
   102   138   136   ar
   103   116   117    1
   104   117   118    1
   105   137   136   ar
   106     9     7   ar
   107   161   160    1
   108    26    27    1
   109    26    23    1
   110   136   135    1
   111     7     6    1
   112     7     8   ar
   113    27    28   ar
   114    27    29   ar
   115     6     5    1
   116    24    25    2
   117    24    23    1
   118    28    30   ar
   119   159   160   ar
   120   159   157   ar
   121    29    31   ar
   122     5     2    1
   123   160   158   ar
   124   149   147    1
   125    23    22    1
   126    30    32   ar
   127    31    32   ar
   128    32    33    1
   129   135   134    1
   130     2     1    1
   131     2     3    1
   132   157   155   ar
   133   133   132    2
   134   147   148    1
   135   147   146    2
   136   158   156   ar
   137     3     4    2
   138   134   131    1
   139   132   131    1
   140   146   145    1
   141   155   156   ar
   142   155   154    1
   143   131   130    1
   144    17    19   ar
   145    17    15   ar
   146    14    15    1
   147    14    11    1
   148    19    20   ar
   149    13    12    2
   150   152   153    2
   151   152   151    1
   152    15    16   ar
   153    12    11    1
   154    20    21    1
   155    20    18   ar
   156   154   151    1
   157   145   144    1
   158    16    18   ar
   159    11    10    1
   160   151   150    1
   161   144   143    1
   162   143   140    1
   163   142   141    2
   164   141   140    1
   165   140   139    1
