@<TRIPOS>MOLECULE
tmp/5bx3A00.pdb
 165 159 0 0 0
SMALL
GASTEIGER

@<TRIPOS>ATOM
      1  N         57.2780   58.8430   63.5700 N.3   409  GLU409     -0.1245
      2  CA        58.2230   59.9190   63.2970 C.3   409  GLU409      0.1567
      3  C         58.8850   60.3430   64.6110 C.2   409  GLU409      0.2260
      4  O         60.0890   60.4830   64.6900 O.2   409  GLU409     -0.2867
      5  CB        57.4970   61.0870   62.6260 C.3   409  GLU409      0.0388
      6  CG        58.3540   62.3080   62.3970 C.3   409  GLU409      0.1160
      7  CD        57.5820   63.5010   61.8970 C.2   409  GLU409      0.3649
      8  OE1       56.4740   63.3290   61.3350 O.co2 409  GLU409     -0.2457
      9  OE2       58.1300   64.6140   62.0420 O.co2 409  GLU409     -0.2457
     10  N         55.3880   64.6830   67.4170 N.3   413  TYR413     -0.1241
     11  CA        54.6990   64.7120   66.1300 C.3   413  TYR413      0.1605
     12  C         54.3020   63.2740   65.8410 C.2   413  TYR413      0.2264
     13  O         55.0330   62.5000   65.1640 O.2   413  TYR413     -0.2867
     14  CB        55.6100   65.2570   65.0240 C.3   413  TYR413      0.0534
     15  CG        56.4340   66.4750   65.3930 C.ar  413  TYR413     -0.0201
     16  CD1       55.9170   67.4980   66.1820 C.ar  413  TYR413     -0.0009
     17  CD2       57.7280   66.6250   64.8940 C.ar  413  TYR413     -0.0009
     18  CE1       56.6880   68.6200   66.4950 C.ar  413  TYR413      0.0417
     19  CE2       58.4890   67.7390   65.1830 C.ar  413  TYR413      0.0417
     20  CZ        57.9660   68.7380   65.9810 C.ar  413  TYR413      0.1957
     21  OH        58.7510   69.8340   66.2710 O.3   413  TYR413     -0.2866
     22  N         53.0040   60.7130   64.2420 N.3   415  TYR415     -0.1241
     23  CA        52.6140   60.2830   62.8970 C.3   415  TYR415      0.1605
     24  C         53.3920   59.0130   62.5000 C.2   415  TYR415      0.2264
     25  O         54.6130   58.9780   62.6600 O.2   415  TYR415     -0.2867
     26  CB        52.9230   61.3880   61.8930 C.3   415  TYR415      0.0534
     27  CG        52.3220   62.7380   62.2930 C.ar  415  TYR415     -0.0201
     28  CD1       50.9580   62.8650   62.5350 C.ar  415  TYR415     -0.0009
     29  CD2       53.1130   63.8730   62.4200 C.ar  415  TYR415     -0.0009
     30  CE1       50.4000   64.0780   62.9070 C.ar  415  TYR415      0.0417
     31  CE2       52.5590   65.0970   62.7950 C.ar  415  TYR415      0.0417
     32  CZ        51.2100   65.1800   63.0360 C.ar  415  TYR415      0.1957
     33  OH        50.6450   66.3840   63.3860 O.3   415  TYR415     -0.2866
     34  N         58.5200   61.5860   54.2100 N.3   420  ASP420     -0.1225
     35  CA        59.6260   62.5010   53.9400 C.3   420  ASP420      0.1805
     36  C         60.7580   62.3250   54.9400 C.2   420  ASP420      0.2597
     37  O         61.8940   62.7000   54.6480 O.2   420  ASP420     -0.2718
     38  CB        59.1590   63.9670   53.9420 C.3   420  ASP420      0.1424
     39  CG        58.3160   64.3060   55.1470 C.2   420  ASP420      0.3668
     40  OD1       57.1820   63.7830   55.2460 O.co2 420  ASP420     -0.2456
     41  OD2       58.7690   65.0980   56.0010 O.co2 420  ASP420     -0.2456
     42  N         60.4240   61.7950   56.1120 N.am  421  VAL421     -0.1980
     43  CA        61.3860   61.4620   57.1600 C.3   421  VAL421      0.1595
     44  C         61.9810   60.0370   57.0130 C.2   421  VAL421      0.2287
     45  O         63.1930   59.8370   57.2200 O.2   421  VAL421     -0.2864
     46  CB        60.7120   61.5630   58.5350 C.3   421  VAL421      0.0276
     47  CG1       61.6720   61.1270   59.6340 C.3   421  VAL421      0.0022
     48  CG2       60.2130   62.9850   58.7960 C.3   421  VAL421      0.0022
     49  N         51.5970   61.9930   53.4430 N.3   475  HIS475     -0.1241
     50  CA        52.6210   62.3350   54.3990 C.3   475  HIS475      0.1621
     51  C         52.8870   61.2350   55.4290 C.2   475  HIS475      0.2264
     52  O         54.0370   60.9990   55.8010 O.2   475  HIS475     -0.2867
     53  CB        52.2220   63.6210   55.1080 C.3   475  HIS475      0.0745
     54  CG        53.1570   64.0310   56.1980 C.ar  475  HIS475      0.0817
     55  ND1       52.9650   63.6720   57.5140 N.ar  475  HIS475     -0.2268
     56  CD2       54.2620   64.8020   56.1810 C.ar  475  HIS475      0.1154
     57  CE1       53.9090   64.2130   58.2610 C.ar  475  HIS475      0.1986
     58  NE2       54.7060   64.9070   57.4770 N.ar  475  HIS475     -0.2212
     59  N         48.8950   64.4100   59.8260 N.3   491  TYR491     -0.1241
     60  CA        49.5950   65.6820   59.8160 C.3   491  TYR491      0.1605
     61  C         48.7900   66.8090   59.1470 C.2   491  TYR491      0.2264
     62  O         48.2630   66.6130   58.0440 O.2   491  TYR491     -0.2867
     63  CB        50.9010   65.4950   59.0450 C.3   491  TYR491      0.0534
     64  CG        51.7380   66.7120   58.7880 C.ar  491  TYR491     -0.0201
     65  CD1       52.6290   67.2060   59.7470 C.ar  491  TYR491     -0.0009
     66  CD2       51.7020   67.3410   57.5390 C.ar  491  TYR491     -0.0009
     67  CE1       53.4460   68.3120   59.4670 C.ar  491  TYR491      0.0417
     68  CE2       52.4970   68.4300   57.2610 C.ar  491  TYR491      0.0417
     69  CZ        53.3670   68.9090   58.2170 C.ar  491  TYR491      0.1957
     70  OH        54.1550   69.9970   57.8920 O.3   491  TYR491     -0.2866
     71  N         53.0140   68.8550   48.4860 N.3   499  TRP499     -0.1241
     72  CA        54.4630   68.7560   48.7130 C.3   499  TRP499      0.1605
     73  C         55.1580   68.2900   47.4460 C.2   499  TRP499      0.2264
     74  O         54.5980   67.5410   46.6610 O.2   499  TRP499     -0.2867
     75  CB        54.7900   67.8800   49.9130 C.3   499  TRP499      0.0550
     76  CG        54.6060   68.6150   51.1990 C.ar  499  TRP499      0.0003
     77  CD1       53.8780   69.7550   51.3860 C.ar  499  TRP499      0.0946
     78  CD2       55.1330   68.2610   52.4890 C.ar  499  TRP499      0.0152
     79  NE1       53.9440   70.1560   52.6930 N.ar  499  TRP499     -0.2442
     80  CE2       54.7140   69.2580   53.3950 C.ar  499  TRP499      0.0810
     81  CE3       55.9470   67.2240   52.9550 C.ar  499  TRP499      0.0012
     82  CZ2       55.0590   69.2310   54.7430 C.ar  499  TRP499      0.0191
     83  CZ3       56.2920   67.1990   54.2940 C.ar  499  TRP499      0.0001
     84  CH2       55.8610   68.1970   55.1720 C.ar  499  TRP499      0.0015
     85  N         59.7240   68.5790   53.2950 N.3   559  THR559     -0.1218
     86  CA        60.1030   68.1620   54.6610 C.3   559  THR559      0.1862
     87  C         60.5740   69.2620   55.6040 C.2   559  THR559      0.2287
     88  O         60.3500   69.1980   56.8240 O.2   559  THR559     -0.2866
     89  CB        61.1610   67.0200   54.6200 C.3   559  THR559      0.1770
     90  OG1       61.1690   66.3170   55.8740 O.3   559  THR559     -0.2211
     91  CG2       62.5230   67.5380   54.3410 C.3   559  THR559      0.0375
     92  N         59.4320   71.9380   56.7920 N.3   561  ASP561     -0.1239
     93  CA        58.0510   72.3950   56.7570 C.3   561  ASP561      0.1674
     94  C         57.7910   73.7800   57.3900 C.2   561  ASP561      0.2266
     95  O         56.6400   74.1710   57.5220 O.2   561  ASP561     -0.2867
     96  CB        57.0900   71.3220   57.3040 C.3   561  ASP561      0.1410
     97  CG        57.2280   71.0900   58.8060 C.2   561  ASP561      0.3668
     98  OD1       58.1480   71.6380   59.4120 O.co2 561  ASP561     -0.2456
     99  OD2       56.4100   70.3260   59.3740 O.co2 561  ASP561     -0.2456
    100  N         64.5090   76.6600   60.8570 N.3   695  GLN695     -0.1245
    101  CA        65.0480   75.3890   60.3050 C.3   695  GLN695      0.1566
    102  C         66.3800   75.5800   59.5980 C.2   695  GLN695      0.2260
    103  O         67.2130   74.6860   59.6000 O.2   695  GLN695     -0.2867
    104  CB        64.0350   74.6940   59.3940 C.3   695  GLN695      0.0367
    105  CG        62.8230   74.1750   60.1600 C.3   695  GLN695      0.0905
    106  CD        61.7640   73.5420   59.2870 C.2   695  GLN695      0.2608
    107  OE1       61.7090   73.7610   58.0770 O.2   695  GLN695     -0.2717
    108  NE2       60.8900   72.7680   59.9060 N.am  695  GLN695     -0.0878
    109  N         70.1020   69.2440   61.5130 N.3   700  TRP700     -0.1241
    110  CA        69.1980   68.0940   61.5620 C.3   700  TRP700      0.1605
    111  C         70.0720   66.8520   61.6320 C.2   700  TRP700      0.2264
    112  O         70.8340   66.5840   60.7280 O.2   700  TRP700     -0.2867
    113  CB        68.2530   68.0380   60.3550 C.3   700  TRP700      0.0550
    114  CG        67.1070   68.9910   60.4830 C.ar  700  TRP700      0.0003
    115  CD1       67.0400   70.0660   61.3390 C.ar  700  TRP700      0.0946
    116  CD2       65.8990   69.0160   59.7130 C.ar  700  TRP700      0.0152
    117  NE1       65.8570   70.7270   61.1670 N.ar  700  TRP700     -0.2442
    118  CE2       65.1430   70.1220   60.1680 C.ar  700  TRP700      0.0810
    119  CE3       65.3820   68.2230   58.6720 C.ar  700  TRP700      0.0012
    120  CZ2       63.8810   70.4420   59.6390 C.ar  700  TRP700      0.0191
    121  CZ3       64.1140   68.5390   58.1530 C.ar  700  TRP700      0.0001
    122  CH2       63.3880   69.6470   58.6320 C.ar  700  TRP700      0.0015
    123  N         65.4020   65.4060   66.4060 N.3   745  GLU745     -0.1245
    124  CA        65.4510   65.9220   65.0470 C.3   745  GLU745      0.1567
    125  C         66.5980   66.9370   64.8940 C.2   745  GLU745      0.2260
    126  O         67.4160   66.8110   63.9920 O.2   745  GLU745     -0.2867
    127  CB        64.1270   66.5750   64.6830 C.3   745  GLU745      0.0388
    128  CG        64.1050   67.4850   63.4490 C.3   745  GLU745      0.1160
    129  CD        63.8740   66.7320   62.1480 C.2   745  GLU745      0.3649
    130  OE1       64.7310   65.8790   61.7970 O.co2 745  GLU745     -0.2457
    131  OE2       62.8230   66.9880   61.4790 O.co2 745  GLU745     -0.2457
    132  N         64.9560   70.2970   69.3170 N.3   754  ARG754     -0.1245
    133  CA        63.5810   70.1200   68.9120 C.3   754  ARG754      0.1563
    134  C         63.3470   68.6390   68.5980 C.2   754  ARG754      0.2260
    135  O         64.0960   68.0500   67.7960 O.2   754  ARG754     -0.2867
    136  CB        63.2670   70.9680   67.6950 C.3   754  ARG754      0.0307
    137  CG        61.8040   70.9150   67.2890 C.3   754  ARG754      0.0489
    138  CD        61.4740   72.0430   66.3360 C.3   754  ARG754      0.2205
    139  NE        62.2470   71.9490   65.0950 N.pl3 754  ARG754     -0.0865
    140  CZ        61.9360   71.1630   64.0800 C.cat 754  ARG754      0.5346
    141  NH1       60.8790   70.3560   64.1440 N.pl3 754  ARG754      0.1354
    142  NH2       62.6950   71.1680   62.9950 N.pl3 754  ARG754      0.1354
    143  N         63.5520   60.7660   67.7940 N.3   758  TYR758     -0.1241
    144  CA        63.1910   61.0640   66.4110 C.3   758  TYR758      0.1605
    145  C         63.7030   59.9890   65.4390 C.2   758  TYR758      0.2264
    146  O         64.7710   59.4470   65.6280 O.2   758  TYR758     -0.2867
    147  CB        63.7350   62.4590   66.0330 C.3   758  TYR758      0.0534
    148  CG        62.9270   63.0990   64.9390 C.ar  758  TYR758     -0.0201
    149  CD1       61.6870   63.7010   65.2140 C.ar  758  TYR758     -0.0009
    150  CD2       63.3870   63.1210   63.6300 C.ar  758  TYR758     -0.0009
    151  CE1       60.9380   64.2680   64.2060 C.ar  758  TYR758      0.0417
    152  CE2       62.6320   63.6620   62.6090 C.ar  758  TYR758      0.0417
    153  CZ        61.4150   64.2480   62.9040 C.ar  758  TYR758      0.1957
    154  OH        60.6840   64.7810   61.8870 O.3   758  TYR758     -0.2866
    155  N         64.5460   60.2360   62.1310 N.3   760  ARG760     -0.1245
    156  CA        65.4610   60.6210   61.0560 C.3   760  ARG760      0.1563
    157  C         66.9240   60.2030   61.2670 C.2   760  ARG760      0.2260
    158  O         67.5420   59.7600   60.3090 O.2   760  ARG760     -0.2867
    159  CB        65.3700   62.1240   60.7310 C.3   760  ARG760      0.0307
    160  CG        65.5690   62.4140   59.2490 C.3   760  ARG760      0.0489
    161  CD        65.6450   63.9050   58.9350 C.3   760  ARG760      0.2205
    162  NE        64.4460   64.6620   59.3250 N.pl3 760  ARG760     -0.0865
    163  CZ        63.4360   65.0100   58.5330 C.cat 760  ARG760      0.5346
    164  NH1       63.4080   64.6820   57.2380 N.pl3 760  ARG760      0.1354
    165  NH2       62.4400   65.7390   59.0300 N.pl3 760  ARG760      0.1354
@<TRIPOS>BOND
     1    74    73    2
     2    73    72    1
     3    71    72    1
     4    72    75    1
     5    75    76    1
     6    76    77   ar
     7    76    78   ar
     8    77    79   ar
     9    78    81   ar
    10    78    80   ar
    11    79    80   ar
    12    81    83   ar
    13    85    86    1
    14    80    82   ar
    15    49    50    1
    16    35    38    1
    17    35    34    1
    18    35    36    1
    19    38    39    1
    20    83    84   ar
    21    91    89    1
    22    50    53    1
    23    50    51    1
    24    89    86    1
    25    89    90    1
    26    37    36    2
    27    86    87    1
    28    82    84   ar
    29    36    42   am
    30    53    54    1
    31    39    40   ar
    32    39    41   ar
    33    51    52    2
    34    87    88    2
    35    42    43    1
    36    56    54   ar
    37    56    58   ar
    38    54    55   ar
    39    93    92    1
    40    93    96    1
    41    93    94    1
    42    44    43    1
    43    44    45    2
    44    43    46    1
    45   164   163    1
    46    68    66   ar
    47    68    69   ar
    48    96    97    1
    49    94    95    2
    50    58    57   ar
    51    55    57   ar
    52    66    64   ar
    53    70    69    1
    54    62    61    2
    55   107   106    2
    56   121   122   ar
    57   121   119   ar
    58    69    67   ar
    59   163   165    1
    60   163   162    2
    61    46    48    1
    62    46    47    1
    63   122   120   ar
    64   119   116   ar
    65    64    63    1
    66    64    65   ar
    67    97    99   ar
    68    97    98   ar
    69   161   160    1
    70   161   162    1
    71    63    60    1
    72    61    60    1
    73   160   159    1
    74   106   108   am
    75   106   105    1
    76   104   105    1
    77   104   101    1
    78    67    65   ar
    79   102   103    2
    80   102   101    1
    81   120   118   ar
    82   116   118   ar
    83   116   114   ar
    84    60    59    1
    85   118   117   ar
    86   101   100    1
    87   158   157    2
    88   113   114    1
    89   113   110    1
    90   114   115   ar
    91   112   111    2
    92   159   156    1
    93   156   157    1
    94   156   155    1
    95   117   115   ar
    96     8     7   ar
    97   131   129   ar
    98   109   110    1
    99   110   111    1
   100   130   129   ar
   101   154   153    1
   102    26    27    1
   103    26    23    1
   104     7     9   ar
   105     7     6    1
   106   129   128    1
   107    27    29   ar
   108    27    28   ar
   109     6     5    1
   110    29    31   ar
   111    24    25    2
   112    24    23    1
   113    28    30   ar
   114   152   153   ar
   115   152   150   ar
   116     5     2    1
   117    31    32   ar
   118    23    22    1
   119   153   151   ar
   120    30    32   ar
   121   142   140    1
   122    32    33    1
   123     2     1    1
   124     2     3    1
   125   128   127    1
   126   150   148   ar
   127   126   125    2
   128   140   141    1
   129   140   139    2
   130   151   149   ar
   131     3     4    2
   132   127   124    1
   133   125   124    1
   134    17    19   ar
   135    17    15   ar
   136   148   149   ar
   137   148   147    1
   138    14    15    1
   139    14    11    1
   140   124   123    1
   141   139   138    1
   142    13    12    2
   143    19    20   ar
   144    15    16   ar
   145   145   146    2
   146   145   144    1
   147    12    11    1
   148    20    21    1
   149    20    18   ar
   150   147   144    1
   151    11    10    1
   152    16    18   ar
   153   138   137    1
   154   144   143    1
   155   137   136    1
   156   136   133    1
   157   135   134    2
   158   134   133    1
   159   133   132    1
