@<TRIPOS>MOLECULE
tmp/5bx4A00.pdb
 186 180 0 0 0
SMALL
GASTEIGER

@<TRIPOS>ATOM
      1  N         57.2130   58.7880   63.6520 N.3   409  GLU409     -0.1245
      2  CA        58.1390   59.8890   63.4130 C.3   409  GLU409      0.1567
      3  C         58.8110   60.2840   64.7250 C.2   409  GLU409      0.2260
      4  O         60.0220   60.3940   64.8000 O.2   409  GLU409     -0.2867
      5  CB        57.3940   61.0720   62.8020 C.3   409  GLU409      0.0388
      6  CG        58.2430   62.3060   62.5600 C.3   409  GLU409      0.1160
      7  CD        57.4580   63.4920   62.0300 C.2   409  GLU409      0.3649
      8  OE1       56.3880   63.2810   61.4160 O.co2 409  GLU409     -0.2457
      9  OE2       57.9440   64.6360   62.1830 O.co2 409  GLU409     -0.2457
     10  N         55.2690   64.5360   67.5490 N.3   413  TYR413     -0.1241
     11  CA        54.5760   64.5550   66.2740 C.3   413  TYR413      0.1605
     12  C         54.2260   63.1100   65.9850 C.2   413  TYR413      0.2264
     13  O         54.9780   62.3760   65.3350 O.2   413  TYR413     -0.2867
     14  CB        55.4640   65.1290   65.1680 C.3   413  TYR413      0.0534
     15  CG        56.3420   66.2940   65.5540 C.ar  413  TYR413     -0.0201
     16  CD1       55.8460   67.3800   66.2620 C.ar  413  TYR413     -0.0009
     17  CD2       57.6840   66.3310   65.1660 C.ar  413  TYR413     -0.0009
     18  CE1       56.6620   68.4520   66.5880 C.ar  413  TYR413      0.0417
     19  CE2       58.5010   67.3960   65.4880 C.ar  413  TYR413      0.0417
     20  CZ        57.9810   68.4620   66.2000 C.ar  413  TYR413      0.1957
     21  OH        58.8120   69.5290   66.4970 O.3   413  TYR413     -0.2866
     22  N         52.9290   60.5750   64.3180 N.3   415  TYR415     -0.1241
     23  CA        52.5510   60.1280   62.9850 C.3   415  TYR415      0.1605
     24  C         53.3420   58.8810   62.6060 C.2   415  TYR415      0.2264
     25  O         54.5730   58.8560   62.7580 O.2   415  TYR415     -0.2867
     26  CB        52.8330   61.2290   61.9670 C.3   415  TYR415      0.0534
     27  CG        52.2310   62.5500   62.3730 C.ar  415  TYR415     -0.0201
     28  CD1       50.8660   62.6440   62.6300 C.ar  415  TYR415     -0.0009
     29  CD2       53.0070   63.6900   62.4950 C.ar  415  TYR415     -0.0009
     30  CE1       50.2950   63.8470   63.0080 C.ar  415  TYR415      0.0417
     31  CE2       52.4430   64.8990   62.8810 C.ar  415  TYR415      0.0417
     32  CZ        51.0910   64.9610   63.1340 C.ar  415  TYR415      0.1957
     33  OH        50.5050   66.1580   63.5130 O.3   415  TYR415     -0.2866
     34  N         56.0560   58.5850   58.6980 N.3   418  THR418     -0.1218
     35  CA        56.1620   59.8330   57.9580 C.3   418  THR418      0.1862
     36  C         57.1730   59.6600   56.8260 C.2   418  THR418      0.2287
     37  O         58.3580   59.4560   57.0770 O.2   418  THR418     -0.2866
     38  CB        56.5730   60.9940   58.8550 C.3   418  THR418      0.1770
     39  OG1       55.5750   61.1530   59.8720 O.3   418  THR418     -0.2211
     40  CG2       56.7130   62.2960   58.0510 C.3   418  THR418      0.0375
     41  N         58.4960   61.4380   54.3220 N.3   420  ASP420     -0.1225
     42  CA        59.5790   62.3760   54.0530 C.3   420  ASP420      0.1805
     43  C         60.7230   62.2060   55.0420 C.2   420  ASP420      0.2597
     44  O         61.8490   62.6110   54.7450 O.2   420  ASP420     -0.2718
     45  CB        59.0830   63.8350   54.0560 C.3   420  ASP420      0.1424
     46  CG        58.2630   64.1590   55.2720 C.2   420  ASP420      0.3668
     47  OD1       57.1120   63.6810   55.3450 O.co2 420  ASP420     -0.2456
     48  OD2       58.7630   64.8720   56.1580 O.co2 420  ASP420     -0.2456
     49  N         60.3980   61.6440   56.2110 N.am  421  VAL421     -0.1980
     50  CA        61.3550   61.3220   57.2730 C.3   421  VAL421      0.1595
     51  C         61.9250   59.9090   57.0940 C.2   421  VAL421      0.2287
     52  O         63.1410   59.6970   57.2870 O.2   421  VAL421     -0.2864
     53  CB        60.6740   61.4280   58.6530 C.3   421  VAL421      0.0276
     54  CG1       61.6040   60.9710   59.7680 C.3   421  VAL421      0.0022
     55  CG2       60.2010   62.8610   58.8930 C.3   421  VAL421      0.0022
     56  N         51.5750   61.7950   53.4670 N.3   475  HIS475     -0.1241
     57  CA        52.6160   62.1550   54.4340 C.3   475  HIS475      0.1621
     58  C         52.8840   61.0510   55.4590 C.2   475  HIS475      0.2264
     59  O         54.0430   60.8270   55.8430 O.2   475  HIS475     -0.2867
     60  CB        52.1690   63.4150   55.1550 C.3   475  HIS475      0.0745
     61  CG        53.1060   63.8870   56.2240 C.ar  475  HIS475      0.0817
     62  ND1       52.9470   63.5500   57.5500 N.ar  475  HIS475     -0.2268
     63  CD2       54.1940   64.6850   56.1690 C.ar  475  HIS475      0.1154
     64  CE1       53.9020   64.1130   58.2640 C.ar  475  HIS475      0.1986
     65  NE2       54.6690   64.8150   57.4510 N.ar  475  HIS475     -0.2212
     66  N         48.8950   64.2650   59.8610 N.3   491  TYR491     -0.1241
     67  CA        49.6010   65.5450   59.8410 C.3   491  TYR491      0.1605
     68  C         48.7780   66.6380   59.1650 C.2   491  TYR491      0.2264
     69  O         48.2060   66.4050   58.1060 O.2   491  TYR491     -0.2867
     70  CB        50.9140   65.3690   59.0870 C.3   491  TYR491      0.0534
     71  CG        51.7260   66.6040   58.8340 C.ar  491  TYR491     -0.0201
     72  CD1       52.5680   67.1290   59.8040 C.ar  491  TYR491     -0.0009
     73  CD2       51.7010   67.2230   57.5820 C.ar  491  TYR491     -0.0009
     74  CE1       53.3380   68.2550   59.5480 C.ar  491  TYR491      0.0417
     75  CE2       52.4690   68.3270   57.3210 C.ar  491  TYR491      0.0417
     76  CZ        53.2840   68.8400   58.2970 C.ar  491  TYR491      0.1957
     77  OH        54.0300   69.9440   57.9960 O.3   491  TYR491     -0.2866
     78  N         49.8990   70.4250   59.6830 N.3   493  TRP493     -0.1241
     79  CA        50.5520   71.7300   59.7350 C.3   493  TRP493      0.1605
     80  C         50.6640   72.3520   58.3320 C.2   493  TRP493      0.2264
     81  O         50.4780   73.5680   58.1560 O.2   493  TRP493     -0.2867
     82  CB        51.9350   71.6390   60.3880 C.3   493  TRP493      0.0550
     83  CG        52.6540   72.9420   60.3720 C.ar  493  TRP493      0.0003
     84  CD1       53.7400   73.2750   59.6140 C.ar  493  TRP493      0.0946
     85  CD2       52.3130   74.1150   61.1220 C.ar  493  TRP493      0.0152
     86  NE1       54.1030   74.5760   59.8550 N.ar  493  TRP493     -0.2442
     87  CE2       53.2470   75.1150   60.7780 C.ar  493  TRP493      0.0810
     88  CE3       51.3110   74.4150   62.0510 C.ar  493  TRP493      0.0012
     89  CZ2       53.2130   76.3930   61.3350 C.ar  493  TRP493      0.0191
     90  CZ3       51.2790   75.6910   62.6090 C.ar  493  TRP493      0.0001
     91  CH2       52.2220   76.6620   62.2440 C.ar  493  TRP493      0.0015
     92  N         52.9260   68.5940   48.5580 N.3   499  TRP499     -0.1241
     93  CA        54.3750   68.5120   48.7820 C.3   499  TRP499      0.1605
     94  C         55.1150   68.0410   47.5300 C.2   499  TRP499      0.2264
     95  O         54.5780   67.2800   46.7290 O.2   499  TRP499     -0.2867
     96  CB        54.7020   67.6440   50.0000 C.3   499  TRP499      0.0550
     97  CG        54.5290   68.3950   51.2840 C.ar  499  TRP499      0.0003
     98  CD1       53.7870   69.5410   51.4750 C.ar  499  TRP499      0.0946
     99  CD2       55.0940   68.0750   52.5660 C.ar  499  TRP499      0.0152
    100  NE1       53.8630   69.9480   52.7760 N.ar  499  TRP499     -0.2442
    101  CE2       54.6630   69.0730   53.4710 C.ar  499  TRP499      0.0810
    102  CE3       55.9340   67.0570   53.0320 C.ar  499  TRP499      0.0012
    103  CZ2       55.0270   69.0690   54.8160 C.ar  499  TRP499      0.0191
    104  CZ3       56.2920   67.0620   54.3620 C.ar  499  TRP499      0.0001
    105  CH2       55.8460   68.0510   55.2430 C.ar  499  TRP499      0.0015
    106  N         59.6940   68.3390   53.4240 N.3   559  THR559     -0.1218
    107  CA        60.0840   67.9490   54.7860 C.3   559  THR559      0.1862
    108  C         60.5420   69.0660   55.7160 C.2   559  THR559      0.2287
    109  O         60.3420   68.9790   56.9330 O.2   559  THR559     -0.2866
    110  CB        61.1620   66.8280   54.7360 C.3   559  THR559      0.1770
    111  OG1       61.1560   66.0890   55.9620 O.3   559  THR559     -0.2211
    112  CG2       62.5270   67.3770   54.4590 C.3   559  THR559      0.0375
    113  N         59.3730   71.7490   56.9110 N.3   561  ASP561     -0.1239
    114  CA        57.9720   72.1790   56.8540 C.3   561  ASP561      0.1674
    115  C         57.6910   73.5650   57.4390 C.2   561  ASP561      0.2266
    116  O         56.5270   73.9630   57.5490 O.2   561  ASP561     -0.2867
    117  CB        57.0400   71.1140   57.4510 C.3   561  ASP561      0.1410
    118  CG        57.0930   71.0340   58.9700 C.2   561  ASP561      0.3668
    119  OD1       58.0530   71.5310   59.5880 O.co2 561  ASP561     -0.2456
    120  OD2       56.1550   70.4310   59.5470 O.co2 561  ASP561     -0.2456
    121  N         64.4380   76.4710   60.9220 N.3   695  GLN695     -0.1245
    122  CA        64.9870   75.2170   60.3690 C.3   695  GLN695      0.1566
    123  C         66.3230   75.4170   59.6710 C.2   695  GLN695      0.2260
    124  O         67.1830   74.5360   59.6970 O.2   695  GLN695     -0.2867
    125  CB        63.9710   74.5390   59.4520 C.3   695  GLN695      0.0367
    126  CG        62.7790   74.0020   60.2310 C.3   695  GLN695      0.0905
    127  CD        61.7230   73.3430   59.3660 C.2   695  GLN695      0.2608
    128  OE1       61.6550   73.5640   58.1530 O.2   695  GLN695     -0.2717
    129  NE2       60.8760   72.5260   59.9910 N.am  695  GLN695     -0.0878
    130  N         70.0200   69.1000   61.6350 N.3   700  TRP700     -0.1241
    131  CA        69.1500   67.9270   61.6850 C.3   700  TRP700      0.1605
    132  C         70.0460   66.6890   61.7450 C.2   700  TRP700      0.2264
    133  O         70.8560   66.4600   60.8590 O.2   700  TRP700     -0.2867
    134  CB        68.2080   67.9000   60.4840 C.3   700  TRP700      0.0550
    135  CG        67.0520   68.8760   60.6040 C.ar  700  TRP700      0.0003
    136  CD1       66.9620   69.9500   61.4600 C.ar  700  TRP700      0.0946
    137  CD2       65.8450   68.8730   59.8390 C.ar  700  TRP700      0.0152
    138  NE1       65.7690   70.6010   61.2690 N.ar  700  TRP700     -0.2442
    139  CE2       65.0630   69.9660   60.2840 C.ar  700  TRP700      0.0810
    140  CE3       65.3480   68.0600   58.8200 C.ar  700  TRP700      0.0012
    141  CZ2       63.8030   70.2600   59.7420 C.ar  700  TRP700      0.0191
    142  CZ3       64.0890   68.3340   58.2900 C.ar  700  TRP700      0.0001
    143  CH2       63.3310   69.4410   58.7500 C.ar  700  TRP700      0.0015
    144  N         65.3340   65.2850   66.4960 N.3   745  GLU745     -0.1245
    145  CA        65.4010   65.7950   65.1270 C.3   745  GLU745      0.1567
    146  C         66.5420   66.7980   64.9950 C.2   745  GLU745      0.2260
    147  O         67.3980   66.6860   64.1170 O.2   745  GLU745     -0.2867
    148  CB        64.0770   66.4770   64.7600 C.3   745  GLU745      0.0388
    149  CG        64.1090   67.3650   63.5160 C.3   745  GLU745      0.1160
    150  CD        63.8580   66.6070   62.2240 C.2   745  GLU745      0.3649
    151  OE1       64.7260   65.7820   61.8150 O.co2 745  GLU745     -0.2457
    152  OE2       62.8020   66.8620   61.5710 O.co2 745  GLU745     -0.2457
    153  N         64.9610   70.1840   69.4120 N.3   754  ARG754     -0.1245
    154  CA        63.5690   70.0200   69.0290 C.3   754  ARG754      0.1563
    155  C         63.2990   68.5460   68.7060 C.2   754  ARG754      0.2260
    156  O         64.0000   67.9510   67.8770 O.2   754  ARG754     -0.2867
    157  CB        63.2230   70.8980   67.8310 C.3   754  ARG754      0.0307
    158  CG        61.7690   70.8360   67.4020 C.3   754  ARG754      0.0489
    159  CD        61.4480   71.9470   66.4150 C.3   754  ARG754      0.2205
    160  NE        62.2160   71.8430   65.1740 N.pl3 754  ARG754     -0.0865
    161  CZ        61.9350   71.0130   64.1790 C.cat 754  ARG754      0.5346
    162  NH1       60.9180   70.1700   64.2700 N.pl3 754  ARG754      0.1354
    163  NH2       62.6990   71.0030   63.0930 N.pl3 754  ARG754      0.1354
    164  N         63.5230   60.7180   67.8780 N.3   758  TYR758     -0.1241
    165  CA        63.1580   61.0190   66.4930 C.3   758  TYR758      0.1605
    166  C         63.6350   59.9360   65.5220 C.2   758  TYR758      0.2264
    167  O         64.7070   59.3890   65.6800 O.2   758  TYR758     -0.2867
    168  CB        63.6960   62.4070   66.0880 C.3   758  TYR758      0.0534
    169  CG        62.8810   63.0410   64.9980 C.ar  758  TYR758     -0.0201
    170  CD1       61.6270   63.5970   65.2760 C.ar  758  TYR758     -0.0009
    171  CD2       63.3230   63.0630   63.6940 C.ar  758  TYR758     -0.0009
    172  CE1       60.8560   64.1420   64.2820 C.ar  758  TYR758      0.0417
    173  CE2       62.5480   63.5970   62.6820 C.ar  758  TYR758      0.0417
    174  CZ        61.3250   64.1530   62.9870 C.ar  758  TYR758      0.1957
    175  OH        60.5650   64.6880   61.9820 O.3   758  TYR758     -0.2866
    176  N         64.4730   60.1430   62.2120 N.3   760  ARG760     -0.1245
    177  CA        65.4310   60.5070   61.1510 C.3   760  ARG760      0.1563
    178  C         66.8950   60.0700   61.3810 C.2   760  ARG760      0.2260
    179  O         67.5150   59.6020   60.4300 O.2   760  ARG760     -0.2867
    180  CB        65.3700   62.0120   60.8160 C.3   760  ARG760      0.0307
    181  CG        65.5830   62.3020   59.3340 C.3   760  ARG760      0.0489
    182  CD        65.6250   63.7910   59.0000 C.3   760  ARG760      0.2205
    183  NE        64.4100   64.5150   59.3880 N.pl3 760  ARG760     -0.0865
    184  CZ        63.3930   64.8550   58.5830 C.cat 760  ARG760      0.5346
    185  NH1       63.3680   64.5200   57.2980 N.pl3 760  ARG760      0.1354
    186  NH2       62.3680   65.5530   59.0790 N.pl3 760  ARG760      0.1354
@<TRIPOS>BOND
     1    95    94    2
     2    94    93    1
     3    92    93    1
     4    93    96    1
     5    96    97    1
     6    97    98   ar
     7    97    99   ar
     8    98   100   ar
     9    99   102   ar
    10    99   101   ar
    11   100   101   ar
    12   102   104   ar
    13   106   107    1
    14    56    57    1
    15   101   103   ar
    16    42    45    1
    17    42    41    1
    18    42    43    1
    19    45    46    1
    20   104   105   ar
    21    57    60    1
    22    57    58    1
    23   112   110    1
    24   110   107    1
    25   110   111    1
    26    44    43    2
    27   107   108    1
    28   103   105   ar
    29    43    49   am
    30    60    61    1
    31    46    47   ar
    32    46    48   ar
    33    58    59    2
    34   108   109    2
    35    63    61   ar
    36    63    65   ar
    37    49    50    1
    38    61    62   ar
    39    36    37    2
    40    36    35    1
    41   114   113    1
    42   114   115    1
    43   114   117    1
    44    51    50    1
    45    51    52    2
    46    50    53    1
    47   185   184    1
    48    75    73   ar
    49    75    76   ar
    50   115   116    2
    51   117   118    1
    52    65    64   ar
    53    62    64   ar
    54    73    71   ar
    55    35    34    1
    56    35    38    1
    57    77    76    1
    58    40    38    1
    59    69    68    2
    60   128   127    2
    61    81    80    2
    62   142   143   ar
    63   142   140   ar
    64    76    74   ar
    65    80    79    1
    66   184   186    1
    67   184   183    2
    68    53    55    1
    69    53    54    1
    70   143   141   ar
    71   140   137   ar
    72    71    70    1
    73    71    72   ar
    74    38    39    1
    75   118   120   ar
    76   118   119   ar
    77   182   181    1
    78   182   183    1
    79    70    67    1
    80    68    67    1
    81   181   180    1
    82   127   129   am
    83   127   126    1
    84   125   126    1
    85   125   122    1
    86    74    72   ar
    87    84    86   ar
    88    84    83   ar
    89   123   124    2
    90   123   122    1
    91    78    79    1
    92    79    82    1
    93   141   139   ar
    94   137   139   ar
    95   137   135   ar
    96    67    66    1
    97    86    87   ar
    98   139   138   ar
    99   122   121    1
   100    83    82    1
   101    83    85   ar
   102   179   178    2
   103   134   135    1
   104   134   131    1
   105   135   136   ar
   106    87    85   ar
   107    87    89   ar
   108   180   177    1
   109   133   132    2
   110    85    88   ar
   111   177   178    1
   112   177   176    1
   113   138   136   ar
   114    89    91   ar
   115     8     7   ar
   116   152   150   ar
   117   130   131    1
   118   131   132    1
   119   151   150   ar
   120    26    27    1
   121    26    23    1
   122   175   174    1
   123     7     9   ar
   124     7     6    1
   125    88    90   ar
   126   150   149    1
   127    91    90   ar
   128    27    29   ar
   129    27    28   ar
   130    29    31   ar
   131     6     5    1
   132    24    25    2
   133    24    23    1
   134    28    30   ar
   135   173   174   ar
   136   173   171   ar
   137     5     2    1
   138    31    32   ar
   139    23    22    1
   140   174   172   ar
   141    30    32   ar
   142   163   161    1
   143    32    33    1
   144     2     1    1
   145     2     3    1
   146   149   148    1
   147   171   169   ar
   148   147   146    2
   149   161   162    1
   150   161   160    2
   151   172   170   ar
   152     3     4    2
   153   148   145    1
   154   146   145    1
   155   169   170   ar
   156   169   168    1
   157   145   144    1
   158    17    19   ar
   159    17    15   ar
   160    14    15    1
   161    14    11    1
   162   160   159    1
   163    13    12    2
   164    19    20   ar
   165   166   167    2
   166   166   165    1
   167    15    16   ar
   168    12    11    1
   169   168   165    1
   170    20    21    1
   171    20    18   ar
   172    16    18   ar
   173    11    10    1
   174   159   158    1
   175   165   164    1
   176   158   157    1
   177   157   154    1
   178   156   155    2
   179   155   154    1
   180   154   153    1
