@<TRIPOS>MOLECULE
tmp/5bx5A00.pdb
 165 159 0 0 0
SMALL
GASTEIGER

@<TRIPOS>ATOM
      1  N         57.5410   58.8620   63.7100 N.3   409  GLU409     -0.1245
      2  CA        58.5370   59.8790   63.4560 C.3   409  GLU409      0.1567
      3  C         59.1740   60.3170   64.7810 C.2   409  GLU409      0.2260
      4  O         60.3750   60.5140   64.8760 O.2   409  GLU409     -0.2867
      5  CB        57.8080   61.0410   62.7950 C.3   409  GLU409      0.0388
      6  CG        58.6170   62.2620   62.5300 C.3   409  GLU409      0.1160
      7  CD        57.7280   63.4680   62.2600 C.2   409  GLU409      0.3649
      8  OE1       56.6860   63.3170   61.5840 O.co2 409  GLU409     -0.2457
      9  OE2       58.1350   64.5750   62.6650 O.co2 409  GLU409     -0.2457
     10  N         55.5430   64.7630   67.6330 N.3   413  TYR413     -0.1241
     11  CA        54.8130   64.8070   66.3820 C.3   413  TYR413      0.1605
     12  C         54.4420   63.3680   66.0600 C.2   413  TYR413      0.2264
     13  O         55.1790   62.6420   65.3550 O.2   413  TYR413     -0.2867
     14  CB        55.6700   65.4210   65.2560 C.3   413  TYR413      0.0534
     15  CG        56.5290   66.6190   65.6270 C.ar  413  TYR413     -0.0201
     16  CD1       56.0190   67.6820   66.3560 C.ar  413  TYR413     -0.0009
     17  CD2       57.8410   66.7050   65.1720 C.ar  413  TYR413     -0.0009
     18  CE1       56.8080   68.7880   66.6570 C.ar  413  TYR413      0.0417
     19  CE2       58.6340   67.8010   65.4550 C.ar  413  TYR413      0.0417
     20  CZ        58.1100   68.8470   66.1910 C.ar  413  TYR413      0.1957
     21  OH        58.9230   69.9170   66.4650 O.3   413  TYR413     -0.2866
     22  N         53.1610   60.7930   64.4570 N.3   415  TYR415     -0.1241
     23  CA        52.7820   60.3440   63.1220 C.3   415  TYR415      0.1605
     24  C         53.5750   59.0930   62.7610 C.2   415  TYR415      0.2264
     25  O         54.8060   59.0700   62.9470 O.2   415  TYR415     -0.2867
     26  CB        53.1110   61.4130   62.0850 C.3   415  TYR415      0.0534
     27  CG        52.5540   62.7660   62.4440 C.ar  415  TYR415     -0.0201
     28  CD1       51.1980   62.8940   62.7640 C.ar  415  TYR415     -0.0009
     29  CD2       53.3680   63.8960   62.5110 C.ar  415  TYR415     -0.0009
     30  CE1       50.6660   64.1090   63.1280 C.ar  415  TYR415      0.0417
     31  CE2       52.8330   65.1240   62.8850 C.ar  415  TYR415      0.0417
     32  CZ        51.4910   65.2050   63.1850 C.ar  415  TYR415      0.1957
     33  OH        50.9160   66.3980   63.5340 O.3   415  TYR415     -0.2866
     34  N         58.7820   61.6430   54.4250 N.3   420  ASP420     -0.1225
     35  CA        59.8810   62.5510   54.1590 C.3   420  ASP420      0.1805
     36  C         61.0310   62.3730   55.1600 C.2   420  ASP420      0.2597
     37  O         62.1840   62.7280   54.8670 O.2   420  ASP420     -0.2718
     38  CB        59.3890   64.0070   54.1410 C.3   420  ASP420      0.1424
     39  CG        58.5460   64.3490   55.3350 C.2   420  ASP420      0.3668
     40  OD1       57.4120   63.8530   55.4380 O.co2 420  ASP420     -0.2456
     41  OD2       59.0090   65.1260   56.1780 O.co2 420  ASP420     -0.2456
     42  N         60.6860   61.8170   56.3200 N.am  421  VAL421     -0.1980
     43  CA        61.6360   61.4660   57.3870 C.3   421  VAL421      0.1595
     44  C         62.2020   60.0460   57.2200 C.2   421  VAL421      0.2287
     45  O         63.4220   59.8360   57.4300 O.2   421  VAL421     -0.2864
     46  CB        60.9570   61.5580   58.7800 C.3   421  VAL421      0.0276
     47  CG1       61.9090   61.1350   59.8800 C.3   421  VAL421      0.0022
     48  CG2       60.4940   62.9910   59.0440 C.3   421  VAL421      0.0022
     49  N         51.9050   62.1390   53.6510 N.3   475  HIS475     -0.1241
     50  CA        52.9460   62.4630   54.6090 C.3   475  HIS475      0.1621
     51  C         53.1880   61.3270   55.6010 C.2   475  HIS475      0.2264
     52  O         54.3320   61.0470   55.9570 O.2   475  HIS475     -0.2867
     53  CB        52.5380   63.7210   55.3670 C.3   475  HIS475      0.0745
     54  CG        53.4790   64.1350   56.4540 C.ar  475  HIS475      0.0817
     55  ND1       53.2890   63.7820   57.7730 N.ar  475  HIS475     -0.2268
     56  CD2       54.5730   64.9250   56.4330 C.ar  475  HIS475      0.1154
     57  CE1       54.2310   64.3300   58.5150 C.ar  475  HIS475      0.1986
     58  NE2       55.0210   65.0350   57.7280 N.ar  475  HIS475     -0.2212
     59  N         49.1840   64.5200   59.9230 N.3   491  TYR491     -0.1241
     60  CA        49.8950   65.7830   59.9200 C.3   491  TYR491      0.1605
     61  C         49.0970   66.9000   59.2330 C.2   491  TYR491      0.2264
     62  O         48.5240   66.6910   58.1580 O.2   491  TYR491     -0.2867
     63  CB        51.2200   65.5830   59.1810 C.3   491  TYR491      0.0534
     64  CG        52.0290   66.8050   58.8780 C.ar  491  TYR491     -0.0201
     65  CD1       52.9480   67.3090   59.7890 C.ar  491  TYR491     -0.0009
     66  CD2       51.9300   67.4280   57.6280 C.ar  491  TYR491     -0.0009
     67  CE1       53.7170   68.4310   59.4830 C.ar  491  TYR491      0.0417
     68  CE2       52.6820   68.5380   57.3260 C.ar  491  TYR491      0.0417
     69  CZ        53.5780   69.0280   58.2380 C.ar  491  TYR491      0.1957
     70  OH        54.3410   70.1270   57.8850 O.3   491  TYR491     -0.2866
     71  N         53.2410   68.8830   48.5570 N.3   499  TRP499     -0.1241
     72  CA        54.6930   68.7810   48.7620 C.3   499  TRP499      0.1605
     73  C         55.4120   68.3100   47.5010 C.2   499  TRP499      0.2264
     74  O         54.8580   67.5620   46.6850 O.2   499  TRP499     -0.2867
     75  CB        55.0250   67.9030   49.9660 C.3   499  TRP499      0.0550
     76  CG        54.8390   68.6320   51.2530 C.ar  499  TRP499      0.0003
     77  CD1       54.0680   69.7640   51.4620 C.ar  499  TRP499      0.0946
     78  CD2       55.4070   68.3060   52.5320 C.ar  499  TRP499      0.0152
     79  NE1       54.1540   70.1670   52.7560 N.ar  499  TRP499     -0.2442
     80  CE2       54.9660   69.2930   53.4460 C.ar  499  TRP499      0.0810
     81  CE3       56.2820   67.3020   52.9860 C.ar  499  TRP499      0.0012
     82  CZ2       55.3440   69.2910   54.7930 C.ar  499  TRP499      0.0191
     83  CZ3       56.6560   67.3150   54.3180 C.ar  499  TRP499      0.0001
     84  CH2       56.1830   68.2820   55.2100 C.ar  499  TRP499      0.0015
     85  N         60.0440   68.6160   53.3940 N.3   559  THR559     -0.1218
     86  CA        60.4110   68.2060   54.7520 C.3   559  THR559      0.1862
     87  C         60.8810   69.3180   55.6780 C.2   559  THR559      0.2287
     88  O         60.6240   69.2630   56.8740 O.2   559  THR559     -0.2866
     89  CB        61.4550   67.0570   54.7280 C.3   559  THR559      0.1770
     90  OG1       61.4220   66.3520   55.9800 O.3   559  THR559     -0.2211
     91  CG2       62.8350   67.5710   54.4410 C.3   559  THR559      0.0375
     92  N         59.7080   71.9630   56.8610 N.3   561  ASP561     -0.1239
     93  CA        58.3390   72.4470   56.7820 C.3   561  ASP561      0.1674
     94  C         58.0820   73.8510   57.3550 C.2   561  ASP561      0.2266
     95  O         56.9190   74.2520   57.4740 O.2   561  ASP561     -0.2867
     96  CB        57.3510   71.4180   57.3380 C.3   561  ASP561      0.1410
     97  CG        57.4040   71.2750   58.8440 C.2   561  ASP561      0.3668
     98  OD1       58.3670   71.7430   59.4830 O.co2 561  ASP561     -0.2456
     99  OD2       56.4670   70.6530   59.3770 O.co2 561  ASP561     -0.2456
    100  N         64.8350   76.7120   60.8800 N.3   695  GLN695     -0.1245
    101  CA        65.3380   75.4240   60.3700 C.3   695  GLN695      0.1566
    102  C         66.6850   75.5950   59.6610 C.2   695  GLN695      0.2260
    103  O         67.5340   74.7060   59.7040 O.2   695  GLN695     -0.2867
    104  CB        64.3130   74.7770   59.4530 C.3   695  GLN695      0.0367
    105  CG        63.1000   74.2500   60.2140 C.3   695  GLN695      0.0905
    106  CD        62.0720   73.6080   59.3260 C.2   695  GLN695      0.2608
    107  OE1       62.0270   73.8520   58.1130 O.2   695  GLN695     -0.2717
    108  NE2       61.2200   72.7710   59.9240 N.am  695  GLN695     -0.0878
    109  N         70.3680   69.2120   61.6920 N.3   700  TRP700     -0.1241
    110  CA        69.4690   68.0690   61.7520 C.3   700  TRP700      0.1605
    111  C         70.3420   66.8310   61.8080 C.2   700  TRP700      0.2264
    112  O         71.1770   66.5860   60.9280 O.2   700  TRP700     -0.2867
    113  CB        68.5060   68.0330   60.5620 C.3   700  TRP700      0.0550
    114  CG        67.3590   69.0070   60.6710 C.ar  700  TRP700      0.0003
    115  CD1       67.2650   70.0850   61.5190 C.ar  700  TRP700      0.0946
    116  CD2       66.1660   69.0200   59.8710 C.ar  700  TRP700      0.0152
    117  NE1       66.0800   70.7550   61.2910 N.ar  700  TRP700     -0.2442
    118  CE2       65.3960   70.1310   60.2800 C.ar  700  TRP700      0.0810
    119  CE3       65.6830   68.2000   58.8530 C.ar  700  TRP700      0.0012
    120  CZ2       64.1540   70.4230   59.7180 C.ar  700  TRP700      0.0191
    121  CZ3       64.4540   68.4770   58.2900 C.ar  700  TRP700      0.0001
    122  CH2       63.6830   69.5880   58.7350 C.ar  700  TRP700      0.0015
    123  N         65.6250   65.3940   66.5420 N.3   745  GLU745     -0.1245
    124  CA        65.7000   65.9280   65.1800 C.3   745  GLU745      0.1567
    125  C         66.8570   66.9400   65.0550 C.2   745  GLU745      0.2260
    126  O         67.7250   66.8090   64.2000 O.2   745  GLU745     -0.2867
    127  CB        64.3840   66.6290   64.8130 C.3   745  GLU745      0.0388
    128  CG        64.4270   67.4870   63.5650 C.3   745  GLU745      0.1160
    129  CD        64.1800   66.7070   62.2930 C.2   745  GLU745      0.3649
    130  OE1       65.0450   65.8630   61.9110 O.co2 745  GLU745     -0.2457
    131  OE2       63.1120   66.9530   61.6660 O.co2 745  GLU745     -0.2457
    132  N         65.2210   70.2940   69.4800 N.3   754  ARG754     -0.1245
    133  CA        63.8260   70.1340   69.0710 C.3   754  ARG754      0.1563
    134  C         63.5670   68.6550   68.7210 C.2   754  ARG754      0.2260
    135  O         64.2910   68.0710   67.8890 O.2   754  ARG754     -0.2867
    136  CB        63.5010   71.0180   67.8780 C.3   754  ARG754      0.0307
    137  CG        62.0270   71.0440   67.5230 C.3   754  ARG754      0.0489
    138  CD        61.7070   72.1230   66.4950 C.3   754  ARG754      0.2205
    139  NE        62.4780   71.9820   65.2490 N.pl3 754  ARG754     -0.0865
    140  CZ        62.1640   71.1910   64.2320 C.cat 754  ARG754      0.5346
    141  NH1       61.1070   70.3850   64.2790 N.pl3 754  ARG754      0.1354
    142  NH2       62.9320   71.1850   63.1510 N.pl3 754  ARG754      0.1354
    143  N         63.7760   60.8280   67.9880 N.3   758  TYR758     -0.1241
    144  CA        63.4150   61.1170   66.5990 C.3   758  TYR758      0.1605
    145  C         63.9290   60.0420   65.6350 C.2   758  TYR758      0.2264
    146  O         65.0100   59.5040   65.8190 O.2   758  TYR758     -0.2867
    147  CB        63.9380   62.5180   66.2180 C.3   758  TYR758      0.0534
    148  CG        63.1280   63.1510   65.1060 C.ar  758  TYR758     -0.0201
    149  CD1       61.8710   63.7260   65.3550 C.ar  758  TYR758     -0.0009
    150  CD2       63.5840   63.1380   63.8130 C.ar  758  TYR758     -0.0009
    151  CE1       61.1110   64.2450   64.3360 C.ar  758  TYR758      0.0417
    152  CE2       62.8210   63.6400   62.7750 C.ar  758  TYR758      0.0417
    153  CZ        61.5880   64.2070   63.0500 C.ar  758  TYR758      0.1957
    154  OH        60.8430   64.7140   62.0320 O.3   758  TYR758     -0.2866
    155  N         64.7740   60.2520   62.2600 N.3   760  ARG760     -0.1245
    156  CA        65.7180   60.6250   61.2180 C.3   760  ARG760      0.1563
    157  C         67.1770   60.2090   61.4410 C.2   760  ARG760      0.2260
    158  O         67.8110   59.7480   60.4800 O.2   760  ARG760     -0.2867
    159  CB        65.6270   62.1320   60.8980 C.3   760  ARG760      0.0307
    160  CG        65.7850   62.4070   59.4220 C.3   760  ARG760      0.0489
    161  CD        65.8880   63.8880   59.0710 C.3   760  ARG760      0.2205
    162  NE        64.6920   64.6570   59.4420 N.pl3 760  ARG760     -0.0865
    163  CZ        63.6780   65.0130   58.6430 C.cat 760  ARG760      0.5346
    164  NH1       63.6240   64.6840   57.3490 N.pl3 760  ARG760      0.1354
    165  NH2       62.6840   65.7550   59.1530 N.pl3 760  ARG760      0.1354
@<TRIPOS>BOND
     1    74    73    2
     2    73    72    1
     3    71    72    1
     4    72    75    1
     5    75    76    1
     6    76    77   ar
     7    76    78   ar
     8    77    79   ar
     9    78    81   ar
    10    78    80   ar
    11    79    80   ar
    12    81    83   ar
    13    85    86    1
    14    80    82   ar
    15    49    50    1
    16    38    35    1
    17    38    39    1
    18    35    34    1
    19    35    36    1
    20    83    84   ar
    21    91    89    1
    22    50    53    1
    23    50    51    1
    24    89    86    1
    25    89    90    1
    26    86    87    1
    27    82    84   ar
    28    37    36    2
    29    36    42   am
    30    39    40   ar
    31    39    41   ar
    32    53    54    1
    33    51    52    2
    34    87    88    2
    35    42    43    1
    36    56    54   ar
    37    56    58   ar
    38    54    55   ar
    39    93    92    1
    40    93    96    1
    41    93    94    1
    42    44    43    1
    43    44    45    2
    44    68    66   ar
    45    68    69   ar
    46    96    97    1
    47   164   163    1
    48    94    95    2
    49    43    46    1
    50    66    64   ar
    51    58    57   ar
    52    55    57   ar
    53    70    69    1
    54   107   106    2
    55    62    61    2
    56    69    67   ar
    57   121   122   ar
    58   121   119   ar
    59   163   165    1
    60   163   162    2
    61   122   120   ar
    62    46    48    1
    63    46    47    1
    64    97    99   ar
    65    97    98   ar
    66   119   116   ar
    67    64    63    1
    68    64    65   ar
    69   161   160    1
    70   161   162    1
    71    63    60    1
    72    61    60    1
    73   106   108   am
    74   106   105    1
    75   160   159    1
    76   104   105    1
    77   104   101    1
    78    67    65   ar
    79   102   103    2
    80   102   101    1
    81   120   118   ar
    82   116   118   ar
    83   116   114   ar
    84    60    59    1
    85   118   117   ar
    86   101   100    1
    87   158   157    2
    88   113   114    1
    89   113   110    1
    90   114   115   ar
    91   159   156    1
    92   112   111    2
    93   156   157    1
    94   156   155    1
    95   117   115   ar
    96     8     7   ar
    97   131   129   ar
    98   109   110    1
    99   110   111    1
   100   130   129   ar
   101   154   153    1
   102    26    27    1
   103    26    23    1
   104     7     6    1
   105     7     9   ar
   106   129   128    1
   107    27    29   ar
   108    27    28   ar
   109    29    31   ar
   110     6     5    1
   111    24    25    2
   112    24    23    1
   113    28    30   ar
   114   152   153   ar
   115   152   150   ar
   116     5     2    1
   117    31    32   ar
   118   153   151   ar
   119    23    22    1
   120    30    32   ar
   121   142   140    1
   122    32    33    1
   123     2     1    1
   124     2     3    1
   125   128   127    1
   126   150   148   ar
   127   126   125    2
   128   140   141    1
   129   140   139    2
   130   151   149   ar
   131     3     4    2
   132   127   124    1
   133   125   124    1
   134   148   149   ar
   135   148   147    1
   136    17    19   ar
   137    17    15   ar
   138   124   123    1
   139   139   138    1
   140    14    15    1
   141    14    11    1
   142    13    12    2
   143    19    20   ar
   144    15    16   ar
   145   145   146    2
   146   145   144    1
   147    12    11    1
   148    20    21    1
   149    20    18   ar
   150   147   144    1
   151    16    18   ar
   152    11    10    1
   153   138   137    1
   154   144   143    1
   155   137   136    1
   156   136   133    1
   157   135   134    2
   158   134   133    1
   159   133   132    1
