@<TRIPOS>MOLECULE
tmp/5bx6A00.pdb
 119 111 0 0 0
SMALL
GASTEIGER

@<TRIPOS>ATOM
      1  N          8.2620   15.0650    8.0940 N.3    44  LEU44      -0.1231
      2  CA         8.0150   13.6300    8.2770 C.3    44  LEU44       0.1693
      3  C          9.2170   12.7570    7.9080 C.2    44  LEU44       0.2592
      4  O          9.3280   11.6200    8.3700 O.2    44  LEU44      -0.2718
      5  CB         6.8070   13.1930    7.4350 C.3    44  LEU44       0.0284
      6  CG         5.4720   13.8310    7.8200 C.3    44  LEU44       0.0019
      7  CD1        4.3770   13.5170    6.7740 C.3    44  LEU44       0.0001
      8  CD2        5.0650   13.3320    9.1990 C.3    44  LEU44       0.0001
      9  N         10.0920   13.2860    7.0560 N.am   45  GLY45      -0.1957
     10  CA        11.3140   12.6040    6.6730 C.3    45  GLY45       0.1869
     11  C         12.1780   13.4890    5.7920 C.2    45  GLY45       0.2309
     12  O         11.7270   14.5290    5.2870 O.2    45  GLY45      -0.2863
     13  N         10.1760   15.5990    3.2960 N.3    52  VAL52      -0.1245
     14  CA         8.7390   15.4050    3.1950 C.3    52  VAL52       0.1561
     15  C          8.1160   16.0780    4.4110 C.2    52  VAL52       0.2260
     16  O          8.5340   15.8340    5.5460 O.2    52  VAL52      -0.2867
     17  CB         8.3550   13.9220    3.1320 C.3    52  VAL52       0.0252
     18  CG1        6.7970   13.7560    3.1440 C.3    52  VAL52       0.0019
     19  CG2        8.9780   13.2760    1.8760 C.3    52  VAL52       0.0019
     20  N          1.1410   14.5030    2.7280 N.3    65  ALA65      -0.1245
     21  CA         2.5840   14.5270    2.8810 C.3    65  ALA65       0.1562
     22  C          3.2010   15.1500    1.6310 C.2    65  ALA65       0.2260
     23  O          3.0760   14.6130    0.5370 O.2    65  ALA65      -0.2867
     24  CB         3.1430   13.1140    3.1110 C.3    65  ALA65       0.0290
     25  N          6.3290   16.2180   -0.5510 N.3    67  LYS67      -0.1245
     26  CA         7.7420   16.0560   -0.8610 C.3    67  LYS67       0.1561
     27  C          8.2600   17.3100   -1.5460 C.2    67  LYS67       0.2260
     28  O          7.7130   17.7470   -2.5550 O.2    67  LYS67      -0.2867
     29  CB         7.9600   14.8240   -1.7510 C.3    67  LYS67       0.0271
     30  CG         9.4300   14.4800   -2.0280 C.3    67  LYS67       0.0035
     31  CD         9.5450   13.0530   -2.5890 C.3    67  LYS67       0.0206
     32  CE        10.9820   12.6990   -2.9640 C.3    67  LYS67       0.1093
     33  NZ        11.0660   11.3160   -3.5430 N.3    67  LYS67      -0.1314
     34  N          1.5470    4.6630   -2.4510 N.3    99  VAL99      -0.1245
     35  CA         1.0700    5.9520   -1.9620 C.3    99  VAL99       0.1561
     36  C          0.6200    6.8160   -3.1410 C.2    99  VAL99       0.2260
     37  O          1.3320    6.9440   -4.1360 O.2    99  VAL99      -0.2867
     38  CB         2.1390    6.6970   -1.1590 C.3    99  VAL99       0.0252
     39  CG1        1.5640    8.0090   -0.6400 C.3    99  VAL99       0.0019
     40  CG2        2.6040    5.8360    0.0100 C.3    99  VAL99       0.0019
     41  N          1.4270   14.0480   -1.5860 N.3   115  MET115     -0.1230
     42  CA         1.0030   12.6470   -1.5080 C.3   115  MET115      0.1702
     43  C         -0.0280   12.4550   -0.3960 C.2   115  MET115      0.2592
     44  O         -0.1280   13.2730    0.5160 O.2   115  MET115     -0.2718
     45  CB         2.2040   11.7170   -1.2290 C.3   115  MET115      0.0401
     46  CG         3.4990   12.0870   -1.9390 C.3   115  MET115      0.0596
     47  SD         3.3220   11.7960   -3.6940 S.3   115  MET115     -0.1393
     48  CE         2.8700   10.0550   -3.6580 C.3   115  MET115      0.0692
     49  N         -0.7780   11.3630   -0.4600 N.am  116  GLU116     -0.1966
     50  CA        -1.6170   10.9830    0.6690 C.3   116  GLU116      0.1733
     51  C         -0.7160   10.8380    1.9140 C.2   116  GLU116      0.2616
     52  O          0.4120   10.3270    1.8310 O.2   116  GLU116     -0.2715
     53  CB        -2.3690    9.6840    0.3640 C.3   116  GLU116      0.0429
     54  CG        -3.2210    9.1460    1.5180 C.3   116  GLU116      0.1163
     55  CD        -3.9740    7.8740    1.1290 C.2   116  GLU116      0.3649
     56  OE1       -4.3750    7.7730   -0.0540 O.co2 116  GLU116     -0.2457
     57  OE2       -4.1480    6.9800    1.9930 O.co2 116  GLU116     -0.2457
     58  N         -1.1930   11.3330    3.0490 N.am  117  TYR117     -0.1960
     59  CA        -0.4850   11.1600    4.3200 C.3   117  TYR117      0.1771
     60  C         -0.7920    9.7840    4.9180 C.2   117  TYR117      0.2619
     61  O         -1.9550    9.4330    5.1130 O.2   117  TYR117     -0.2715
     62  CB        -0.8730   12.2620    5.3020 C.3   117  TYR117      0.0574
     63  CG        -0.3280   12.0830    6.7040 C.ar  117  TYR117     -0.0198
     64  CD1        1.0160   11.7710    6.9160 C.ar  117  TYR117     -0.0009
     65  CD2       -1.1510   12.2340    7.8180 C.ar  117  TYR117     -0.0009
     66  CE1        1.5190   11.6150    8.2010 C.ar  117  TYR117      0.0417
     67  CE2       -0.6500   12.0800    9.1070 C.ar  117  TYR117      0.0417
     68  CZ         0.6840   11.7680    9.2850 C.ar  117  TYR117      0.1957
     69  OH         1.1840   11.6100   10.5510 O.3   117  TYR117     -0.2866
     70  N          0.2490    9.0130    5.2150 N.am  118  VAL118     -0.1977
     71  CA         0.0750    7.6670    5.7520 C.3   118  VAL118      0.1596
     72  C          0.5620    7.6900    7.1910 C.2   118  VAL118      0.2287
     73  O          1.7660    7.6630    7.4410 O.2   118  VAL118     -0.2864
     74  CB         0.8430    6.6030    4.9290 C.3   118  VAL118      0.0276
     75  CG1        0.4400    5.1830    5.3660 C.3   118  VAL118      0.0022
     76  CG2        0.5870    6.7950    3.4410 C.3   118  VAL118      0.0022
     77  N          6.8530    4.5650    9.1930 N.3   122  GLU122     -0.1245
     78  CA         7.6170    3.6260    8.3700 C.3   122  GLU122      0.1567
     79  C          7.6750    2.2370    9.0080 C.2   122  GLU122      0.2260
     80  O          7.8610    2.1080   10.2310 O.2   122  GLU122     -0.2867
     81  CB         9.0520    4.1460    8.1540 C.3   122  GLU122      0.0388
     82  CG         9.1050    5.4880    7.4320 C.3   122  GLU122      0.1160
     83  CD        10.4900    6.1180    7.4190 C.2   122  GLU122      0.3649
     84  OE1       11.4180    5.5560    8.0450 O.co2 122  GLU122     -0.2457
     85  OE2       10.6400    7.1860    6.7830 O.co2 122  GLU122     -0.2457
     86  N          5.2670    2.4880    4.1560 N.3   168  LEU168     -0.1245
     87  CA         4.4900    3.1110    5.2190 C.3   168  LEU168      0.1561
     88  C          3.3080    2.2230    5.6110 C.2   168  LEU168      0.2260
     89  O          2.7470    1.5260    4.7720 O.2   168  LEU168     -0.2867
     90  CB         3.9900    4.4830    4.7730 C.3   168  LEU168      0.0270
     91  CG         5.0770    5.3350    4.0990 C.3   168  LEU168      0.0019
     92  CD1        4.5180    6.6810    3.6440 C.3   168  LEU168      0.0001
     93  CD2        6.2600    5.5280    5.0290 C.3   168  LEU168      0.0001
     94  N          6.3430    4.1200   -0.7820 N.3   178  THR178     -0.1203
     95  CA         6.6620    5.5120   -1.0690 C.3   178  THR178      0.1994
     96  C          8.0680    5.6130   -1.6930 C.2   178  THR178      0.2617
     97  O          8.8530    4.6650   -1.6480 O.2   178  THR178     -0.2717
     98  CB         6.5720    6.3750    0.2010 C.3   178  THR178      0.1784
     99  OG1        6.6910    7.7620   -0.1430 O.3   178  THR178     -0.2211
    100  CG2        7.6810    6.0080    1.1870 C.3   178  THR178      0.0376
    101  N          8.3460    6.7710   -2.2810 N.am  179  ASP179     -0.1973
    102  CA         9.6290    7.1140   -2.9090 C.3   179  ASP179      0.1709
    103  C          9.9120    6.3780   -4.2100 C.2   179  ASP179      0.2293
    104  O         10.5100    5.2910   -4.2210 O.2   179  ASP179     -0.2864
    105  CB        10.7980    6.8820   -1.9600 C.3   179  ASP179      0.1436
    106  CG        12.0580    7.6290   -2.4180 C.2   179  ASP179      0.3671
    107  OD1       12.0720    8.1030   -3.5770 O.co2 179  ASP179     -0.2456
    108  OD2       13.0180    7.7540   -1.6310 O.co2 179  ASP179     -0.2456
    109  N          6.1540    8.9660   13.6140 N.3   321  PHE321     -0.1241
    110  CA         7.3470    9.3830   12.8610 C.3   321  PHE321      0.1605
    111  C          8.3810   10.0100   13.7790 C.2   321  PHE321      0.2264
    112  O          8.0410   10.6320   14.7950 O.2   321  PHE321     -0.2867
    113  CB         6.9900   10.3770   11.7520 C.3   321  PHE321      0.0534
    114  CG         6.1540    9.7900   10.6540 C.ar  321  PHE321     -0.0203
    115  CD1        4.7720    9.7140   10.7820 C.ar  321  PHE321     -0.0042
    116  CD2        6.7470    9.3270    9.4880 C.ar  321  PHE321     -0.0042
    117  CE1        3.9830    9.1720    9.7590 C.ar  321  PHE321     -0.0003
    118  CE2        5.9700    8.7820    8.4580 C.ar  321  PHE321     -0.0003
    119  CZ         4.5840    8.7010    8.5960 C.ar  321  PHE321     -0.0000
@<TRIPOS>BOND
     1   104   103    2
     2   103   102    1
     3    37    36    2
     4    47    48    1
     5    47    46    1
     6   107   106   ar
     7    33    32    1
     8    36    35    1
     9    32    31    1
    10   102   101    1
    11   102   105    1
    12    31    30    1
    13    28    27    2
    14    34    35    1
    15   106   105    1
    16   106   108   ar
    17   101    96   am
    18    30    29    1
    19    35    38    1
    20    46    45    1
    21    29    26    1
    22    96    97    2
    23    96    95    1
    24    41    42    1
    25    27    26    1
    26    42    45    1
    27    42    43    1
    28    38    39    1
    29    38    40    1
    30    95    94    1
    31    95    98    1
    32    26    25    1
    33    49    43   am
    34    49    50    1
    35    43    44    2
    36    99    98    1
    37    56    55   ar
    38    98   100    1
    39    53    50    1
    40    53    54    1
    41    23    22    2
    42    50    51    1
    43    55    54    1
    44    55    57   ar
    45    22    21    1
    46    52    51    2
    47    19    17    1
    48    51    58   am
    49    20    21    1
    50    21    24    1
    51    58    59    1
    52    17    18    1
    53    17    14    1
    54    14    13    1
    55    14    15    1
    56    76    74    1
    57    92    91    1
    58    91    90    1
    59    91    93    1
    60    86    87    1
    61    59    60    1
    62    59    62    1
    63    15    16    2
    64    89    88    2
    65    90    87    1
    66    60    61    2
    67    60    70   am
    68    74    75    1
    69    74    71    1
    70    70    71    1
    71    87    88    1
    72    12    11    2
    73    62    63    1
    74    71    72    1
    75    11    10    1
    76    10     9    1
    77    63    64   ar
    78    63    65   ar
    79     7     6    1
    80    85    83   ar
    81    64    66   ar
    82     9     3   am
    83    72    73    2
    84    83    82    1
    85    83    84   ar
    86    82    81    1
    87     5     6    1
    88     5     2    1
    89    65    67   ar
    90     6     8    1
    91     3     2    1
    92     3     4    2
    93     1     2    1
    94    81    78    1
    95    66    68   ar
    96    78    79    1
    97    78    77    1
    98   118   119   ar
    99   118   116   ar
   100   119   117   ar
   101    79    80    2
   102    67    68   ar
   103    68    69    1
   104   116   114   ar
   105   117   115   ar
   106   114   115   ar
   107   114   113    1
   108   113   110    1
   109   110   109    1
   110   110   111    1
   111   111   112    2
