@<TRIPOS>MOLECULE
tmp/5bx7A00.pdb
 128 119 0 0 0
SMALL
GASTEIGER

@<TRIPOS>ATOM
      1  N        -27.8810   15.1040    8.0830 N.3    44  LEU44      -0.1231
      2  CA       -28.1490   13.6830    8.3020 C.3    44  LEU44       0.1693
      3  C        -26.9500   12.8040    7.9660 C.2    44  LEU44       0.2592
      4  O        -26.8260   11.6810    8.4660 O.2    44  LEU44      -0.2718
      5  CB       -29.3400   13.2440    7.4460 C.3    44  LEU44       0.0284
      6  CG       -30.7010   13.8230    7.8120 C.3    44  LEU44       0.0019
      7  CD1      -31.7320   13.4810    6.7190 C.3    44  LEU44       0.0001
      8  CD2      -31.1210   13.2880    9.1550 C.3    44  LEU44       0.0001
      9  N        -26.0850   13.3150    7.0960 N.am   45  GLY45      -0.1957
     10  CA       -24.9040   12.5940    6.6720 C.3    45  GLY45       0.1869
     11  C        -24.0320   13.4350    5.7590 C.2    45  GLY45       0.2309
     12  O        -24.4640   14.4700    5.2350 O.2    45  GLY45      -0.2863
     13  N        -25.9920   15.5500    3.2200 N.3    52  VAL52      -0.1245
     14  CA       -27.4160   15.2900    3.1200 C.3    52  VAL52       0.1561
     15  C        -28.0770   15.9420    4.3280 C.2    52  VAL52       0.2260
     16  O        -27.6930   15.6850    5.4730 O.2    52  VAL52      -0.2867
     17  CB       -27.7420   13.7970    3.0910 C.3    52  VAL52       0.0252
     18  CG1      -29.2700   13.5940    3.1830 C.3    52  VAL52       0.0019
     19  CG2      -27.1660   13.1430    1.8250 C.3    52  VAL52       0.0019
     20  N        -35.0120   14.5510    2.6810 N.3    65  ALA65      -0.1245
     21  CA       -33.5650   14.5370    2.7870 C.3    65  ALA65       0.1562
     22  C        -32.9850   15.1450    1.5190 C.2    65  ALA65       0.2260
     23  O        -33.2040   14.6390    0.4200 O.2    65  ALA65      -0.2867
     24  CB       -33.0460   13.1240    2.9930 C.3    65  ALA65       0.0290
     25  N        -29.8050   16.1520   -0.6550 N.3    67  LYS67      -0.1245
     26  CA       -28.3900   15.9770   -0.9280 C.3    67  LYS67       0.1561
     27  C        -27.8580   17.2160   -1.6130 C.2    67  LYS67       0.2260
     28  O        -28.3700   17.6120   -2.6490 O.2    67  LYS67      -0.2867
     29  CB       -28.1450   14.7490   -1.8110 C.3    67  LYS67       0.0271
     30  CG       -26.6650   14.4520   -2.0580 C.3    67  LYS67       0.0035
     31  CD       -26.5380   13.0450   -2.6910 C.3    67  LYS67       0.0206
     32  CE       -25.1030   12.6550   -2.9550 C.3    67  LYS67       0.1093
     33  NZ       -25.0130   11.2520   -3.5070 N.3    67  LYS67      -0.1314
     34  N        -34.9120    4.6520   -2.6300 N.3    99  VAL99      -0.1245
     35  CA       -35.3800    5.9360   -2.1190 C.3    99  VAL99       0.1561
     36  C        -35.8590    6.7900   -3.2930 C.2    99  VAL99       0.2260
     37  O        -35.2360    6.7860   -4.3610 O.2    99  VAL99      -0.2867
     38  CB       -34.2740    6.6800   -1.3340 C.3    99  VAL99       0.0252
     39  CG1      -33.1520    7.1090   -2.2560 C.3    99  VAL99       0.0019
     40  CG2      -34.8540    7.8850   -0.6230 C.3    99  VAL99       0.0019
     41  N        -34.8850   14.0830   -1.6880 N.3   115  MET115     -0.1230
     42  CA       -35.3900   12.7250   -1.6620 C.3   115  MET115      0.1702
     43  C        -36.3320   12.5210   -0.4780 C.2   115  MET115      0.2592
     44  O        -36.3890   13.3320    0.4380 O.2   115  MET115     -0.2718
     45  CB       -34.2260   11.7280   -1.6010 C.3   115  MET115      0.0401
     46  CG       -33.3550   11.6880   -2.8820 C.3   115  MET115      0.0596
     47  SD       -31.7470   11.0020   -2.4630 S.3   115  MET115     -0.1393
     48  CE       -31.1710   12.2050   -1.2670 C.3   115  MET115      0.0692
     49  N        -37.0840   11.4320   -0.5200 N.am  116  GLU116     -0.1966
     50  CA       -37.9160   11.0450    0.6070 C.3   116  GLU116      0.1733
     51  C        -37.0530   10.9530    1.8710 C.2   116  GLU116      0.2616
     52  O        -35.9210   10.4660    1.8200 O.2   116  GLU116     -0.2715
     53  CB       -38.6020    9.7130    0.3060 C.3   116  GLU116      0.0429
     54  CG       -39.6270    9.2750    1.3330 C.3   116  GLU116      0.1163
     55  CD       -40.3980    8.0450    0.8750 C.2   116  GLU116      0.3649
     56  OE1      -40.7270    7.9700   -0.3280 O.co2 116  GLU116     -0.2457
     57  OE2      -40.6630    7.1530    1.7120 O.co2 116  GLU116     -0.2457
     58  N        -37.5600   11.4670    2.9880 N.am  117  TYR117     -0.1960
     59  CA       -36.8550   11.3090    4.2630 C.3   117  TYR117      0.1771
     60  C        -37.1770    9.9390    4.8520 C.2   117  TYR117      0.2619
     61  O        -38.3460    9.6060    5.0580 O.2   117  TYR117     -0.2715
     62  CB       -37.2360   12.4060    5.2470 C.3   117  TYR117      0.0574
     63  CG       -36.6380   12.2170    6.6270 C.ar  117  TYR117     -0.0198
     64  CD1      -35.2880   11.9560    6.7810 C.ar  117  TYR117     -0.0009
     65  CD2      -37.4280   12.3040    7.7760 C.ar  117  TYR117     -0.0009
     66  CE1      -34.7300   11.7900    8.0370 C.ar  117  TYR117      0.0417
     67  CE2      -36.8720   12.1360    9.0440 C.ar  117  TYR117      0.0417
     68  CZ       -35.5210   11.8710    9.1550 C.ar  117  TYR117      0.1957
     69  OH       -34.9270   11.6900   10.3870 O.3   117  TYR117     -0.2866
     70  N        -36.1350    9.1510    5.1060 N.am  118  VAL118     -0.1977
     71  CA       -36.2840    7.8130    5.6530 C.3   118  VAL118      0.1596
     72  C        -35.7780    7.8550    7.0920 C.2   118  VAL118      0.2287
     73  O        -34.5700    7.8570    7.3270 O.2   118  VAL118     -0.2864
     74  CB       -35.5100    6.7670    4.8280 C.3   118  VAL118      0.0276
     75  CG1      -35.8410    5.3560    5.2930 C.3   118  VAL118      0.0022
     76  CG2      -35.8200    6.9200    3.3440 C.3   118  VAL118      0.0022
     77  N        -29.5020    4.6110    9.0930 N.3   122  GLU122     -0.1245
     78  CA       -28.7290    3.6920    8.2550 C.3   122  GLU122      0.1567
     79  C        -28.6470    2.2910    8.8730 C.2   122  GLU122      0.2260
     80  O        -28.4680    2.1590   10.0910 O.2   122  GLU122     -0.2867
     81  CB       -27.3060    4.2430    8.0350 C.3   122  GLU122      0.0388
     82  CG       -27.2920    5.6220    7.3980 C.3   122  GLU122      0.1160
     83  CD       -25.9210    6.2780    7.3740 C.2   122  GLU122      0.3649
     84  OE1      -24.9310    5.6740    7.8570 O.co2 122  GLU122     -0.2457
     85  OE2      -25.8460    7.4250    6.8790 O.co2 122  GLU122     -0.2457
     86  N        -23.9250    1.4670    4.9340 N.3   165  GLU165     -0.1245
     87  CA       -24.0150    2.9180    5.0650 C.3   165  GLU165      0.1567
     88  C        -25.0420    3.5080    4.0800 C.2   165  GLU165      0.2260
     89  O        -25.5980    4.5800    4.3290 O.2   165  GLU165     -0.2867
     90  CB       -22.6410    3.5590    4.8470 C.3   165  GLU165      0.0388
     91  CG       -21.6070    3.2150    5.9340 C.3   165  GLU165      0.1160
     92  CD       -20.7170    2.0300    5.5720 C.2   165  GLU165      0.3649
     93  OE1      -21.2550    1.0260    5.0870 O.co2 165  GLU165     -0.2457
     94  OE2      -19.4760    2.1010    5.7840 O.co2 165  GLU165     -0.2457
     95  N        -31.0950    2.4310    4.0660 N.3   168  LEU168     -0.1245
     96  CA       -31.8690    3.0470    5.1380 C.3   168  LEU168      0.1561
     97  C        -33.0520    2.1610    5.5290 C.2   168  LEU168      0.2260
     98  O        -33.6210    1.4670    4.6930 O.2   168  LEU168     -0.2867
     99  CB       -32.3680    4.4240    4.7100 C.3   168  LEU168      0.0270
    100  CG       -31.4100    5.6150    4.8010 C.3   168  LEU168      0.0019
    101  CD1      -29.9970    5.3070    4.3720 C.3   168  LEU168      0.0001
    102  CD2      -31.9700    6.6750    3.9180 C.3   168  LEU168      0.0001
    103  N        -29.9970    4.1820   -0.9180 N.3   178  THR178     -0.1203
    104  CA       -29.6590    5.5620   -1.2590 C.3   178  THR178      0.1994
    105  C        -28.2680    5.6270   -1.8840 C.2   178  THR178      0.2617
    106  O        -27.5210    4.6490   -1.8640 O.2   178  THR178     -0.2717
    107  CB       -29.6860    6.4750   -0.0320 C.3   178  THR178      0.1784
    108  OG1      -28.7060    6.0200    0.9070 O.3   178  THR178     -0.2211
    109  CG2      -31.0430    6.4340    0.6190 C.3   178  THR178      0.0376
    110  N        -27.9320    6.7980   -2.4020 N.am  179  ASP179     -0.1973
    111  CA       -26.6380    7.0780   -3.0320 C.3   179  ASP179      0.1709
    112  C        -26.4200    6.3040   -4.3160 C.2   179  ASP179      0.2293
    113  O        -25.9670    5.1440   -4.3270 O.2   179  ASP179     -0.2864
    114  CB       -25.4800    6.8070   -2.0780 C.3   179  ASP179      0.1436
    115  CG       -24.2250    7.5750   -2.4690 C.2   179  ASP179      0.3671
    116  OD1      -24.1390    8.0470   -3.6300 O.co2 179  ASP179     -0.2456
    117  OD2      -23.3280    7.7050   -1.6150 O.co2 179  ASP179     -0.2456
    118  N        -30.1390    8.9500   13.6620 N.3   321  PHE321     -0.1241
    119  CA       -28.9750    9.3560   12.8760 C.3   321  PHE321      0.1605
    120  C        -27.9240    9.9820   13.7770 C.2   321  PHE321      0.2264
    121  O        -28.2510   10.5800   14.8080 O.2   321  PHE321     -0.2867
    122  CB       -29.3610   10.3550   11.7820 C.3   321  PHE321      0.0534
    123  CG       -30.1920    9.7720   10.6780 C.ar  321  PHE321     -0.0203
    124  CD1      -31.5780    9.7310   10.7760 C.ar  321  PHE321     -0.0042
    125  CD2      -29.5910    9.3140    9.5190 C.ar  321  PHE321     -0.0042
    126  CE1      -32.3450    9.2090    9.7440 C.ar  321  PHE321     -0.0003
    127  CE2      -30.3480    8.7880    8.4860 C.ar  321  PHE321     -0.0003
    128  CZ       -31.7250    8.7360    8.5910 C.ar  321  PHE321     -0.0000
@<TRIPOS>BOND
     1    37    36    2
     2   113   112    2
     3   112   111    1
     4   116   115   ar
     5    33    32    1
     6    36    35    1
     7   111   110    1
     8   111   114    1
     9    32    31    1
    10    46    47    1
    11    46    45    1
    12    31    30    1
    13    28    27    2
    14    34    35    1
    15   115   114    1
    16   115   117   ar
    17    47    48    1
    18   110   105   am
    19    39    38    1
    20    35    38    1
    21    30    29    1
    22   105   106    2
    23   105   104    1
    24    29    26    1
    25    41    42    1
    26    42    45    1
    27    42    43    1
    28    27    26    1
    29    38    40    1
    30   104   103    1
    31   104   107    1
    32    26    25    1
    33    49    43   am
    34    49    50    1
    35    43    44    2
    36    56    55   ar
    37   107   109    1
    38   107   108    1
    39    53    50    1
    40    53    54    1
    41    23    22    2
    42    50    51    1
    43    55    54    1
    44    55    57   ar
    45    22    21    1
    46    52    51    2
    47    19    17    1
    48    51    58   am
    49    20    21    1
    50    21    24    1
    51    58    59    1
    52    17    14    1
    53    17    18    1
    54    14    13    1
    55    14    15    1
    56    76    74    1
    57   102   100    1
    58    95    96    1
    59    88    89    2
    60    88    87    1
    61    59    60    1
    62    59    62    1
    63    15    16    2
    64   101   100    1
    65    98    97    2
    66    99   100    1
    67    99    96    1
    68    74    75    1
    69    74    71    1
    70    90    87    1
    71    90    91    1
    72    60    61    2
    73    60    70   am
    74    86    87    1
    75    93    92   ar
    76    70    71    1
    77    96    97    1
    78    12    11    2
    79    62    63    1
    80    92    94   ar
    81    92    91    1
    82    71    72    1
    83    11    10    1
    84    63    64   ar
    85    63    65   ar
    86    10     9    1
    87     7     6    1
    88    64    66   ar
    89    85    83   ar
    90    72    73    2
    91     9     3   am
    92    83    82    1
    93    83    84   ar
    94    82    81    1
    95     5     6    1
    96     5     2    1
    97    65    67   ar
    98     6     8    1
    99     3     2    1
   100     3     4    2
   101    81    78    1
   102    66    68   ar
   103     1     2    1
   104    78    79    1
   105    78    77    1
   106   127   128   ar
   107   127   125   ar
   108   128   126   ar
   109    79    80    2
   110    67    68   ar
   111    68    69    1
   112   125   123   ar
   113   126   124   ar
   114   123   124   ar
   115   123   122    1
   116   122   119    1
   117   119   118    1
   118   119   120    1
   119   120   121    2
