@<TRIPOS>MOLECULE
tmp/5bxaA03.pdb
 115 110 0 0 0
SMALL
GASTEIGER

@<TRIPOS>ATOM
      1  N        -28.1900    4.9600  -14.8650 N.3   137  GLU137     -0.1245
      2  CA       -28.1320    4.5770  -16.2860 C.3   137  GLU137      0.1567
      3  C        -27.1270    5.3400  -17.1700 C.2   137  GLU137      0.2260
      4  O        -27.5170    5.9260  -18.1800 O.2   137  GLU137     -0.2867
      5  CB       -29.5420    4.6990  -16.8890 C.3   137  GLU137      0.0388
      6  CG       -30.5220    3.7980  -16.1420 C.3   137  GLU137      0.1160
      7  CD       -31.9720    3.9810  -16.5360 C.2   137  GLU137      0.3649
      8  OE1      -32.2920    4.8960  -17.3260 O.co2 137  GLU137     -0.2457
      9  OE2      -32.7920    3.1770  -16.0520 O.co2 137  GLU137     -0.2457
     10  N        -26.9630    5.1740  -21.0220 N.3   140  LEU140     -0.1245
     11  CA       -27.9770    5.8590  -21.8200 C.3   140  LEU140      0.1561
     12  C        -27.6060    7.3110  -22.0410 C.2   140  LEU140      0.2260
     13  O        -27.2070    8.0090  -21.1030 O.2   140  LEU140     -0.2867
     14  CB       -29.3450    5.8080  -21.1420 C.3   140  LEU140      0.0270
     15  CG       -30.1530    4.5210  -21.1530 C.3   140  LEU140      0.0019
     16  CD1      -31.5410    4.7930  -20.5800 C.3   140  LEU140      0.0001
     17  CD2      -30.2560    3.9910  -22.5610 C.3   140  LEU140      0.0001
     18  N        -28.7410   10.2370  -19.7450 N.3   143  PHE143     -0.1241
     19  CA       -28.1530   10.4280  -18.4240 C.3   143  PHE143      0.1605
     20  C        -26.6580   10.7310  -18.4900 C.2   143  PHE143      0.2264
     21  O        -26.0520   11.0560  -17.4720 O.2   143  PHE143     -0.2867
     22  CB       -28.3770    9.1910  -17.5470 C.3   143  PHE143      0.0534
     23  CG       -29.7690    9.0900  -16.9970 C.ar  143  PHE143     -0.0203
     24  CD1      -30.1430    9.8410  -15.8910 C.ar  143  PHE143     -0.0042
     25  CD2      -30.7050    8.2580  -17.5910 C.ar  143  PHE143     -0.0042
     26  CE1      -31.4260    9.7610  -15.3810 C.ar  143  PHE143     -0.0003
     27  CE2      -31.9940    8.1690  -17.0810 C.ar  143  PHE143     -0.0003
     28  CZ       -32.3560    8.9260  -15.9780 C.ar  143  PHE143     -0.0000
     29  N        -29.1090    0.7220  -17.5720 N.3   179  ALA179     -0.1231
     30  CA       -30.3480    0.4700  -18.3050 C.3   179  ALA179      0.1694
     31  C        -30.2760   -0.8560  -19.0490 C.2   179  ALA179      0.2592
     32  O        -29.2400   -1.1960  -19.6060 O.2   179  ALA179     -0.2718
     33  CB       -30.6370    1.5990  -19.2740 C.3   179  ALA179      0.0304
     34  N        -31.3840   -1.5900  -19.0480 N.am  180  PHE180     -0.1976
     35  CA       -31.5020   -2.8710  -19.7390 C.3   180  PHE180      0.1639
     36  C        -30.4650   -3.8470  -19.2040 C.2   180  PHE180      0.2290
     37  O        -30.4200   -4.0730  -17.9990 O.2   180  PHE180     -0.2864
     38  CB       -31.4040   -2.6520  -21.2590 C.3   180  PHE180      0.0560
     39  CG       -32.3820   -1.6300  -21.7540 C.ar  180  PHE180     -0.0200
     40  CD1      -33.7480   -1.8840  -21.6960 C.ar  180  PHE180     -0.0042
     41  CD2      -31.9540   -0.3940  -22.2230 C.ar  180  PHE180     -0.0042
     42  CE1      -34.6720   -0.9460  -22.1340 C.ar  180  PHE180     -0.0003
     43  CE2      -32.8760    0.5550  -22.6590 C.ar  180  PHE180     -0.0003
     44  CZ       -34.2350    0.2780  -22.6190 C.ar  180  PHE180     -0.0000
     45  N        -35.6690   -3.7990  -18.2010 N.3   211  TYR211     -0.1241
     46  CA       -37.0070   -3.6200  -18.7580 C.3   211  TYR211      0.1605
     47  C        -37.1250   -4.4040  -20.0770 C.2   211  TYR211      0.2264
     48  O        -36.2440   -4.3130  -20.9270 O.2   211  TYR211     -0.2867
     49  CB       -37.2940   -2.1330  -19.0100 C.3   211  TYR211      0.0534
     50  CG       -37.4650   -1.2490  -17.7760 C.ar  211  TYR211     -0.0201
     51  CD1      -38.7130   -1.1060  -17.1600 C.ar  211  TYR211     -0.0009
     52  CD2      -36.4020   -0.5150  -17.2680 C.ar  211  TYR211     -0.0009
     53  CE1      -38.8850   -0.2680  -16.0570 C.ar  211  TYR211      0.0417
     54  CE2      -36.5590    0.3090  -16.1680 C.ar  211  TYR211      0.0417
     55  CZ       -37.8050    0.4340  -15.5670 C.ar  211  TYR211      0.1957
     56  OH       -37.9630    1.2640  -14.4820 O.3   211  TYR211     -0.2866
     57  N        -34.4810   -1.2660  -10.8440 N.3   248  GLU248     -0.1245
     58  CA       -35.7050   -0.8570  -11.5510 C.3   248  GLU248      0.1567
     59  C        -36.1960   -1.9530  -12.4970 C.2   248  GLU248      0.2260
     60  O        -35.3990   -2.5930  -13.1680 O.2   248  GLU248     -0.2867
     61  CB       -35.4950    0.4160  -12.3860 C.3   248  GLU248      0.0388
     62  CG       -35.3160    1.6920  -11.6390 C.3   248  GLU248      0.1160
     63  CD       -35.3080    2.8900  -12.5650 C.2   248  GLU248      0.3649
     64  OE1      -35.9430    2.8130  -13.6380 O.co2 248  GLU248     -0.2457
     65  OE2      -34.6760    3.8960  -12.2180 O.co2 248  GLU248     -0.2457
     66  N        -42.5640    3.5070  -26.6900 N.3   260  LEU260     -0.1245
     67  CA       -41.7290    2.3440  -26.3730 C.3   260  LEU260      0.1561
     68  C        -42.5550    1.1420  -25.9290 C.2   260  LEU260      0.2260
     69  O        -42.4620    0.0700  -26.5210 O.2   260  LEU260     -0.2867
     70  CB       -40.6860    2.6620  -25.2950 C.3   260  LEU260      0.0270
     71  CG       -39.5890    3.6550  -25.6530 C.3   260  LEU260      0.0019
     72  CD1      -38.6670    3.8540  -24.4620 C.3   260  LEU260      0.0001
     73  CD2      -38.8150    3.1600  -26.8600 C.3   260  LEU260      0.0001
     74  N        -40.4800   -0.7190  -10.0660 N.3   291  PHE291     -0.1241
     75  CA       -40.7880    0.6480  -10.4500 C.3   291  PHE291      0.1605
     76  C        -42.2900    0.7240  -10.8090 C.2   291  PHE291      0.2264
     77  O        -42.7050    0.1790  -11.8350 O.2   291  PHE291     -0.2867
     78  CB       -39.9150    1.0820  -11.6330 C.3   291  PHE291      0.0534
     79  CG       -39.9620    2.5570  -11.9010 C.ar  291  PHE291     -0.0203
     80  CD1      -40.9430    3.1010  -12.7260 C.ar  291  PHE291     -0.0042
     81  CD2      -39.0500    3.4040  -11.2920 C.ar  291  PHE291     -0.0042
     82  CE1      -40.9890    4.4840  -12.9590 C.ar  291  PHE291     -0.0003
     83  CE2      -39.0920    4.7800  -11.5090 C.ar  291  PHE291     -0.0003
     84  CZ       -40.0650    5.3160  -12.3500 C.ar  291  PHE291     -0.0000
     85  N        -46.2070    8.2220  -20.2040 N.3   303  ARG303     -0.1231
     86  CA       -45.9620    6.8460  -19.7990 C.3   303  ARG303      0.1694
     87  C        -45.5390    6.7460  -18.3340 C.2   303  ARG303      0.2592
     88  O        -46.0330    5.8790  -17.6120 O.2   303  ARG303     -0.2718
     89  CB       -44.9040    6.1880  -20.6820 C.3   303  ARG303      0.0321
     90  CG       -44.5750    4.7660  -20.2400 C.3   303  ARG303      0.0489
     91  CD       -43.7900    4.0160  -21.2940 C.3   303  ARG303      0.2205
     92  NE       -42.6600    4.7880  -21.7980 N.pl3 303  ARG303     -0.0865
     93  CZ       -41.4670    4.8030  -21.2190 C.cat 303  ARG303      0.5346
     94  NH1      -40.4760    5.5180  -21.7320 N.pl3 303  ARG303      0.1354
     95  NH2      -41.2740    4.0970  -20.1250 N.pl3 303  ARG303      0.1354
     96  N        -44.6420    7.6330  -17.8960 N.am  304  ASP304     -0.1974
     97  CA       -44.0650    7.5490  -16.5430 C.3   304  ASP304      0.1709
     98  C        -45.0800    7.7980  -15.4240 C.2   304  ASP304      0.2293
     99  O        -44.8200    7.4880  -14.2620 O.2   304  ASP304     -0.2864
    100  CB       -42.9070    8.5420  -16.3840 C.3   304  ASP304      0.1436
    101  CG       -41.6800    8.1470  -17.1870 C.2   304  ASP304      0.3671
    102  OD1      -41.5090    6.9450  -17.4850 O.co2 304  ASP304     -0.2456
    103  OD2      -40.8820    9.0460  -17.5160 O.co2 304  ASP304     -0.2456
    104  N        -46.8250    3.9030  -13.7080 N.3   307  TYR307     -0.1241
    105  CA       -46.1110    2.7160  -13.2320 C.3   307  TYR307      0.1605
    106  C        -46.4730    2.3410  -11.8040 C.2   307  TYR307      0.2264
    107  O        -45.9670    1.3540  -11.2870 O.2   307  TYR307     -0.2867
    108  CB       -44.5910    2.9140  -13.2710 C.3   307  TYR307      0.0534
    109  CG       -43.9440    2.8050  -14.6350 C.ar  307  TYR307     -0.0201
    110  CD1      -43.7970    3.9260  -15.4360 C.ar  307  TYR307     -0.0009
    111  CD2      -43.4420    1.5940  -15.0930 C.ar  307  TYR307     -0.0009
    112  CE1      -43.1900    3.8490  -16.6860 C.ar  307  TYR307      0.0417
    113  CE2      -42.8160    1.5060  -16.3480 C.ar  307  TYR307      0.0417
    114  CZ       -42.7050    2.6440  -17.1330 C.ar  307  TYR307      0.1957
    115  OH       -42.0970    2.5950  -18.3730 O.3   307  TYR307     -0.2866
@<TRIPOS>BOND
     1    73    71    1
     2    66    67    1
     3    69    68    2
     4    67    68    1
     5    67    70    1
     6    71    70    1
     7    71    72    1
     8    43    44   ar
     9    43    41   ar
    10    44    42   ar
    11    17    15    1
    12    41    39   ar
    13    42    40   ar
    14    12    11    1
    15    12    13    2
    16    11    14    1
    17    11    10    1
    18    92    91    1
    19    92    93    2
    20    39    40   ar
    21    39    38    1
    22    94    93    1
    23    91    90    1
    24    38    35    1
    25    93    95    1
    26    15    14    1
    27    15    16    1
    28    48    47    2
    29    89    90    1
    30    89    86    1
    31    85    86    1
    32    47    46    1
    33    86    87    1
    34    18    19    1
    35    35    36    1
    36    35    34    1
    37    32    31    2
    38    33    30    1
    39    36    37    2
    40    31    34   am
    41    31    30    1
    42    49    46    1
    43    49    50    1
    44    46    45    1
    45    20    19    1
    46    20    21    2
    47    19    22    1
    48   115   114    1
    49    87    96   am
    50    87    88    2
    51    30    29    1
    52     4     3    2
    53    96    97    1
    54    50    52   ar
    55    50    51   ar
    56    25    27   ar
    57    25    23   ar
    58    22    23    1
    59   103   101   ar
    60   102   101   ar
    61     8     7   ar
    62    52    54   ar
    63   101   100    1
    64     3     2    1
    65    51    53   ar
    66   114   112   ar
    67   114   113   ar
    68    27    28   ar
    69    23    24   ar
    70     5     2    1
    71     5     6    1
    72   112   110   ar
    73    97   100    1
    74    97    98    1
    75     7     6    1
    76     7     9   ar
    77   113   111   ar
    78     2     1    1
    79    54    55   ar
    80    53    55   ar
    81    28    26   ar
    82    24    26   ar
    83    55    56    1
    84   110   109   ar
    85    98    99    2
    86   111   109   ar
    87   109   108    1
    88   104   105    1
    89    64    63   ar
    90   108   105    1
    91   105   106    1
    92    60    59    2
    93    82    80   ar
    94    82    84   ar
    95    80    79   ar
    96    63    65   ar
    97    63    62    1
    98    59    58    1
    99    61    62    1
   100    61    58    1
   101    84    83   ar
   102    79    78    1
   103    79    81   ar
   104    77    76    2
   105   106   107    2
   106    78    75    1
   107    58    57    1
   108    83    81   ar
   109    76    75    1
   110    75    74    1
