@<TRIPOS>MOLECULE
tmp/5bxiD00.pdb
 96 91 0 0 0
SMALL
GASTEIGER

@<TRIPOS>ATOM
      1  N         27.7080   -3.6210   22.1380 N.3    12  LYS12      -0.1245
      2  CA        27.8230   -2.1580   22.3220 C.3    12  LYS12       0.1561
      3  C         27.0640   -1.4080   21.2310 C.2    12  LYS12       0.2260
      4  O         26.6030   -2.0140   20.2950 O.2    12  LYS12      -0.2867
      5  CB        29.2810   -1.7660   22.3760 C.3    12  LYS12       0.0271
      6  CG        30.0370   -2.3840   23.5340 C.3    12  LYS12       0.0035
      7  CD        31.4900   -1.9430   23.4000 C.3    12  LYS12       0.0206
      8  CE        32.3610   -2.4440   24.5150 C.3    12  LYS12       0.1093
      9  NZ        33.6980   -1.8100   24.3100 N.3    12  LYS12      -0.1314
     10  N         31.8720    1.7520   34.4430 N.3    52  TYR52      -0.1241
     11  CA        33.2160    2.2190   34.1260 C.3    52  TYR52       0.1605
     12  C         33.8030    3.0840   35.2530 C.2    52  TYR52       0.2264
     13  O         34.6520    3.9400   35.0120 O.2    52  TYR52      -0.2867
     14  CB        33.1750    3.0960   32.8570 C.3    52  TYR52       0.0534
     15  CG        32.8260    2.3670   31.6070 C.ar   52  TYR52      -0.0201
     16  CD1       33.6590    1.3650   31.1050 C.ar   52  TYR52      -0.0009
     17  CD2       31.6980    2.7150   30.8780 C.ar   52  TYR52      -0.0009
     18  CE1       33.3490    0.6920   29.9390 C.ar   52  TYR52       0.0417
     19  CE2       31.3900    2.0630   29.7040 C.ar   52  TYR52       0.0417
     20  CZ        32.2130    1.0720   29.2350 C.ar   52  TYR52       0.1957
     21  OH        31.8930    0.4200   28.0620 O.3    52  TYR52      -0.2866
     22  N         37.4320    4.3260   35.6160 N.3    55  LEU55      -0.1245
     23  CA        37.9730    5.1820   34.5490 C.3    55  LEU55       0.1561
     24  C         37.6620    6.6490   34.7560 C.2    55  LEU55       0.2260
     25  O         38.1130    7.4750   33.9910 O.2    55  LEU55      -0.2867
     26  CB        37.4070    4.7500   33.1870 C.3    55  LEU55       0.0270
     27  CG        37.7230    3.3140   32.7860 C.3    55  LEU55       0.0019
     28  CD1       37.0780    2.9470   31.4600 C.3    55  LEU55       0.0001
     29  CD2       39.2240    3.1360   32.7350 C.3    55  LEU55       0.0001
     30  N         39.4570   10.5300   28.3840 N.3    60  PHE60      -0.1241
     31  CA        38.4510   10.0070   27.4730 C.3    60  PHE60       0.1605
     32  C         37.1320    9.6320   28.1580 C.2    60  PHE60       0.2264
     33  O         36.1890    9.2410   27.4700 O.2    60  PHE60      -0.2867
     34  CB        39.0050    8.7590   26.7500 C.3    60  PHE60       0.0534
     35  CG        39.4240    7.6290   27.6890 C.ar   60  PHE60      -0.0203
     36  CD1       38.4770    6.7750   28.2380 C.ar   60  PHE60      -0.0042
     37  CD2       40.7640    7.4270   28.0110 C.ar   60  PHE60      -0.0042
     38  CE1       38.8530    5.7410   29.0960 C.ar   60  PHE60      -0.0003
     39  CE2       41.1420    6.3870   28.8600 C.ar   60  PHE60      -0.0003
     40  CZ        40.1870    5.5570   29.3970 C.ar   60  PHE60      -0.0000
     41  N         33.4810    8.5720   26.4690 N.3    64  LEU64      -0.1245
     42  CA        33.1270    7.1410   26.5680 C.3    64  LEU64       0.1561
     43  C         31.6840    7.0070   27.0120 C.2    64  LEU64       0.2260
     44  O         30.9010    6.2420   26.4330 O.2    64  LEU64      -0.2867
     45  CB        34.0580    6.4200   27.5430 C.3    64  LEU64       0.0270
     46  CG        33.6460    5.0050   27.9380 C.3    64  LEU64       0.0019
     47  CD1       33.6440    4.0990   26.7120 C.3    64  LEU64       0.0001
     48  CD2       34.5730    4.4880   29.0180 C.3    64  LEU64       0.0001
     49  N         29.3380    8.1550   24.1960 N.3    67  TYR67      -0.1227
     50  CA        29.3150    7.1260   23.1810 C.3    67  TYR67       0.1736
     51  C         28.4380    5.9300   23.5890 C.2    67  TYR67       0.2595
     52  O         27.6020    5.4280   22.8200 O.2    67  TYR67      -0.2718
     53  CB        30.7190    6.6210   22.9030 C.3    67  TYR67       0.0548
     54  CG        30.6330    5.4960   21.9550 C.ar   67  TYR67      -0.0200
     55  CD1       30.1810    5.7250   20.6730 C.ar   67  TYR67      -0.0009
     56  CD2       30.9220    4.2090   22.3340 C.ar   67  TYR67      -0.0009
     57  CE1       30.0240    4.7060   19.7790 C.ar   67  TYR67       0.0417
     58  CE2       30.7650    3.1520   21.4250 C.ar   67  TYR67       0.0417
     59  CZ        30.3120    3.4110   20.1710 C.ar   67  TYR67       0.1957
     60  OH        30.1550    2.4300   19.2080 O.3    67  TYR67      -0.2866
     61  N         28.6280    5.4680   24.8100 N.am   68  MET68      -0.1979
     62  CA        27.8740    4.3140   25.2990 C.3    68  MET68       0.1605
     63  C         26.3800    4.5700   25.5530 C.2    68  MET68       0.2287
     64  O         25.6380    3.6330   25.7950 O.2    68  MET68      -0.2864
     65  CB        28.5500    3.7270   26.5370 C.3    68  MET68       0.0413
     66  CG        29.8560    3.0300   26.1840 C.3    68  MET68       0.0598
     67  SD        29.6700    1.5870   25.1060 S.3    68  MET68      -0.1393
     68  CE        28.7710    0.4560   26.1730 C.3    68  MET68       0.0692
     69  N         41.2490   -7.3000   23.0130 N.3    94  THR94      -0.1218
     70  CA        40.6030   -6.0100   23.2450 C.3    94  THR94       0.1862
     71  C         40.6390   -5.1380   21.9910 C.2    94  THR94       0.2287
     72  O         39.6320   -4.5500   21.5560 O.2    94  THR94      -0.2866
     73  CB        41.3500   -5.2820   24.3800 C.3    94  THR94       0.1770
     74  OG1       41.3850   -6.1100   25.5580 O.3    94  THR94      -0.2211
     75  CG2       40.7160   -3.9770   24.7060 C.3    94  THR94       0.0375
     76  N         39.6450    0.1270   18.3640 N.3   112  VAL112     -0.1231
     77  CA        39.4110   -0.3780   19.7070 C.3   112  VAL112      0.1692
     78  C         38.2050    0.3170   20.3570 C.2   112  VAL112      0.2592
     79  O         37.4590   -0.2980   21.1310 O.2   112  VAL112     -0.2718
     80  CB        40.6680   -0.3110   20.5990 C.3   112  VAL112      0.0266
     81  CG1       41.0710    1.1240   20.9040 C.3   112  VAL112      0.0020
     82  CG2       40.4150   -1.0520   21.8980 C.3   112  VAL112      0.0020
     83  N         37.9700    1.5680   19.9830 N.am  113  GLY113     -0.1957
     84  CA        36.8340    2.3100   20.5180 C.3   113  GLY113      0.1869
     85  C         35.5180    1.9770   19.8680 C.2   113  GLY113      0.2309
     86  O         34.4640    2.5120   20.2790 O.2   113  GLY113     -0.2863
     87  N         31.4410   -6.3990   24.5500 N.3   118  HIS118     -0.1241
     88  CA        32.1680   -6.5090   25.8110 C.3   118  HIS118      0.1621
     89  C         31.9040   -7.9000   26.3970 C.2   118  HIS118      0.2264
     90  O         30.7820   -8.3760   26.3170 O.2   118  HIS118     -0.2867
     91  CB        31.6310   -5.4940   26.8250 C.3   118  HIS118      0.0745
     92  CG        31.9730   -5.8330   28.2470 C.ar  118  HIS118      0.0817
     93  ND1       33.1870   -5.5220   28.8220 N.ar  118  HIS118     -0.2268
     94  CD2       31.2710   -6.5040   29.1920 C.ar  118  HIS118      0.1154
     95  CE1       33.2180   -5.9880   30.0630 C.ar  118  HIS118      0.1986
     96  NE2       32.0690   -6.5870   30.3090 N.ar  118  HIS118     -0.2212
@<TRIPOS>BOND
     1    76    77    1
     2    60    59    1
     3    77    78    1
     4    77    80    1
     5    57    59   ar
     6    57    55   ar
     7    85    86    2
     8    85    84    1
     9    83    78   am
    10    83    84    1
    11    59    58   ar
    12     4     3    2
    13    78    79    2
    14    80    81    1
    15    80    82    1
    16    55    54   ar
    17     3     2    1
    18    58    56   ar
    19    72    71    2
    20    54    56   ar
    21    54    53    1
    22    71    70    1
    23     1     2    1
    24     2     5    1
    25     5     6    1
    26    52    51    2
    27    53    50    1
    28    69    70    1
    29    50    51    1
    30    50    49    1
    31    70    73    1
    32     7     6    1
    33     7     8    1
    34    51    61   am
    35     9     8    1
    36    73    75    1
    37    73    74    1
    38    87    88    1
    39    61    62    1
    40    67    68    1
    41    67    66    1
    42    62    63    1
    43    62    65    1
    44    63    64    2
    45    88    89    1
    46    88    91    1
    47    66    65    1
    48    90    89    2
    49    44    43    2
    50    41    42    1
    51    42    43    1
    52    42    45    1
    53    47    46    1
    54    34    31    1
    55    34    35    1
    56    91    92    1
    57    33    32    2
    58    31    32    1
    59    31    30    1
    60    45    46    1
    61    35    37   ar
    62    35    36   ar
    63    46    48    1
    64    37    39   ar
    65    21    20    1
    66    36    38   ar
    67    92    93   ar
    68    92    94   ar
    69    93    95   ar
    70    39    40   ar
    71    38    40   ar
    72    94    96   ar
    73    20    19   ar
    74    20    18   ar
    75    19    17   ar
    76    18    16   ar
    77    95    96   ar
    78    17    15   ar
    79    16    15   ar
    80    28    27    1
    81    15    14    1
    82    29    27    1
    83    27    26    1
    84    14    11    1
    85    26    23    1
    86    25    24    2
    87    11    10    1
    88    11    12    1
    89    23    24    1
    90    23    22    1
    91    13    12    2
