@<TRIPOS>MOLECULE
tmp/5bxjA00.pdb
 105 104 0 0 0
SMALL
GASTEIGER

@<TRIPOS>ATOM
      1  N         -2.5230   -9.2370  -10.7920 N.3    45  TYR45      -0.1241
      2  CA        -2.6460  -10.6680  -10.9330 C.3    45  TYR45       0.1605
      3  C         -1.6830  -11.2510  -11.9490 C.2    45  TYR45       0.2264
      4  O         -1.1530  -10.5650  -12.8250 O.2    45  TYR45      -0.2867
      5  CB        -4.0730  -11.0180  -11.3710 C.3    45  TYR45       0.0534
      6  CG        -4.3660  -10.7230  -12.8280 C.ar   45  TYR45      -0.0201
      7  CD1       -4.6740   -9.4400  -13.2390 C.ar   45  TYR45      -0.0009
      8  CD2       -4.3150  -11.7250  -13.8020 C.ar   45  TYR45      -0.0009
      9  CE1       -4.9360   -9.1590  -14.5640 C.ar   45  TYR45       0.0417
     10  CE2       -4.5710  -11.4430  -15.1310 C.ar   45  TYR45       0.0417
     11  CZ        -4.8820  -10.1550  -15.5040 C.ar   45  TYR45       0.1957
     12  OH        -5.1420   -9.8170  -16.8180 O.3    45  TYR45      -0.2866
     13  N         -0.1500  -16.9640  -18.9980 N.3    55  PHE55      -0.1227
     14  CA        -0.9310  -16.4360  -20.1020 C.3    55  PHE55       0.1736
     15  C         -1.3220  -14.9800  -19.9180 C.2    55  PHE55       0.2595
     16  O         -1.7550  -14.3350  -20.8730 O.2    55  PHE55      -0.2718
     17  CB        -2.1720  -17.3010  -20.3660 C.3    55  PHE55       0.0547
     18  CG        -3.1670  -17.3160  -19.2420 C.ar   55  PHE55      -0.0202
     19  CD1       -4.1410  -16.3440  -19.1410 C.ar   55  PHE55      -0.0042
     20  CD2       -3.1550  -18.3320  -18.3020 C.ar   55  PHE55      -0.0042
     21  CE1       -5.0580  -16.3600  -18.1020 C.ar   55  PHE55      -0.0003
     22  CE2       -4.0760  -18.3530  -17.2780 C.ar   55  PHE55      -0.0003
     23  CZ        -5.0310  -17.3670  -17.1870 C.ar   55  PHE55      -0.0000
     24  N         -1.1450  -14.4470  -18.7130 N.am   56  ASP56      -0.1974
     25  CA        -1.5160  -13.0730  -18.4370 C.3    56  ASP56       0.1709
     26  C         -0.8250  -12.5820  -17.1740 C.2    56  ASP56       0.2293
     27  O         -0.5970  -13.3600  -16.2360 O.2    56  ASP56      -0.2864
     28  CB        -3.0240  -13.0160  -18.2390 C.3    56  ASP56       0.1436
     29  CG        -3.6160  -11.7290  -18.6830 C.2    56  ASP56       0.3671
     30  OD1       -2.8450  -10.7880  -18.9620 O.co2  56  ASP56      -0.2456
     31  OD2       -4.8610  -11.6500  -18.7230 O.co2  56  ASP56      -0.2456
     32  N          2.3340   -5.5360  -17.3840 N.3    61  ARG61      -0.1245
     33  CA         1.7690   -4.3900  -18.1000 C.3    61  ARG61       0.1563
     34  C          1.9460   -3.0580  -17.3630 C.2    61  ARG61       0.2260
     35  O          1.6110   -2.0160  -17.8960 O.2    61  ARG61      -0.2867
     36  CB         0.2750   -4.6260  -18.3420 C.3    61  ARG61       0.0307
     37  CG        -0.0600   -5.6690  -19.3930 C.3    61  ARG61       0.0489
     38  CD        -1.5230   -5.5470  -19.7930 C.3    61  ARG61       0.2205
     39  NE        -2.4060   -5.9640  -18.7180 N.pl3  61  ARG61      -0.0865
     40  CZ        -2.8310   -7.2150  -18.5450 C.cat  61  ARG61       0.5346
     41  NH1       -2.4590   -8.1650  -19.3880 N.pl3  61  ARG61       0.1354
     42  NH2       -3.6300   -7.5220  -17.5350 N.pl3  61  ARG61       0.1354
     43  N         -5.5800   -4.2860  -13.2250 N.3    65  PHE65      -0.1241
     44  CA        -6.7760   -4.6190  -13.9660 C.3    65  PHE65       0.1605
     45  C         -7.9530   -4.1460  -13.1370 C.2    65  PHE65       0.2264
     46  O         -8.0120   -4.3600  -11.9150 O.2    65  PHE65      -0.2867
     47  CB        -6.8270   -6.1150  -14.2310 C.3    65  PHE65       0.0534
     48  CG        -7.9770   -6.5310  -15.0780 C.ar   65  PHE65      -0.0203
     49  CD1       -7.9270   -6.4280  -16.4550 C.ar   65  PHE65      -0.0042
     50  CD2       -9.1200   -7.0330  -14.4960 C.ar   65  PHE65      -0.0042
     51  CE1       -9.0150   -6.8150  -17.2320 C.ar   65  PHE65      -0.0003
     52  CE2      -10.1970   -7.4150  -15.2590 C.ar   65  PHE65      -0.0003
     53  CZ       -10.1460   -7.3070  -16.6240 C.ar   65  PHE65      -0.0000
     54  N        -15.6380  -10.4480  -15.8330 N.3    74  VAL74      -0.1231
     55  CA       -14.5070  -11.3530  -15.6700 C.3    74  VAL74       0.1692
     56  C        -15.1050  -12.7440  -15.5350 C.2    74  VAL74       0.2591
     57  O        -16.3350  -12.8810  -15.4290 O.2    74  VAL74      -0.2718
     58  CB       -13.6890  -11.0170  -14.4200 C.3    74  VAL74       0.0266
     59  CG1      -12.9620   -9.7050  -14.6000 C.3    74  VAL74       0.0020
     60  CG2      -14.5830  -10.9540  -13.1960 C.3    74  VAL74       0.0020
     61  N        -14.2530  -13.7660  -15.5400 N.am   75  ILE75      -0.1980
     62  CA       -14.7400  -15.1250  -15.3560 C.3    75  ILE75       0.1595
     63  C        -15.4220  -15.2840  -14.0000 C.2    75  ILE75       0.2287
     64  O        -15.1370  -14.5440  -13.0460 O.2    75  ILE75      -0.2864
     65  CB       -13.6260  -16.1920  -15.5260 C.3    75  ILE75       0.0276
     66  CG1      -12.4830  -15.9500  -14.5260 C.3    75  ILE75       0.0022
     67  CG2      -13.1350  -16.2060  -16.9820 C.3    75  ILE75       0.0022
     68  CD1      -11.4490  -17.0390  -14.5050 C.3    75  ILE75       0.0001
     69  N        -13.4440  -15.2950  -10.7470 N.3    78  TRP78      -0.1241
     70  CA       -13.0160  -13.9800  -10.2650 C.3    78  TRP78       0.1605
     71  C        -14.1200  -13.2150   -9.5740 C.2    78  TRP78       0.2264
     72  O        -13.8750  -12.5880   -8.5410 O.2    78  TRP78      -0.2867
     73  CB       -12.4690  -13.1260  -11.3920 C.3    78  TRP78       0.0550
     74  CG       -11.0690  -13.3690  -11.7100 C.ar   78  TRP78       0.0003
     75  CD1      -10.4050  -14.5710  -11.7440 C.ar   78  TRP78       0.0946
     76  CD2      -10.1110  -12.3680  -12.0290 C.ar   78  TRP78       0.0152
     77  NE1       -9.0950  -14.3600  -12.0740 N.ar   78  TRP78      -0.2442
     78  CE2       -8.8880  -13.0170  -12.2610 C.ar   78  TRP78       0.0810
     79  CE3      -10.1680  -10.9790  -12.1400 C.ar   78  TRP78       0.0012
     80  CZ2       -7.7330  -12.3260  -12.5990 C.ar   78  TRP78       0.0191
     81  CZ3       -9.0190  -10.2930  -12.4900 C.ar   78  TRP78       0.0001
     82  CH2       -7.8250  -10.9650  -12.7170 C.ar   78  TRP78       0.0015
     83  N        -13.2610  -20.4730  -18.7240 N.3   101  TYR101     -0.1241
     84  CA       -13.6130  -20.3420  -20.1490 C.3   101  TYR101      0.1605
     85  C        -14.2020  -21.6140  -20.7640 C.2   101  TYR101      0.2264
     86  O        -14.4410  -21.6670  -21.9720 O.2   101  TYR101     -0.2867
     87  CB       -12.3940  -19.8760  -20.9510 C.3   101  TYR101      0.0534
     88  CG       -11.9210  -18.5210  -20.5200 C.ar  101  TYR101     -0.0201
     89  CD1      -12.5550  -17.3720  -20.9650 C.ar  101  TYR101     -0.0009
     90  CD2      -10.8380  -18.3840  -19.6610 C.ar  101  TYR101     -0.0009
     91  CE1      -12.1280  -16.1270  -20.5540 C.ar  101  TYR101      0.0417
     92  CE2      -10.4070  -17.1380  -19.2520 C.ar  101  TYR101      0.0417
     93  CZ       -11.0550  -16.0210  -19.6990 C.ar  101  TYR101      0.1957
     94  OH       -10.6150  -14.7880  -19.2950 O.3   101  TYR101     -0.2866
     95  N         -4.5510  -18.6020  -10.6740 N.3   118  PHE118     -0.1241
     96  CA        -4.2740  -17.1750  -10.5340 C.3   118  PHE118      0.1605
     97  C         -3.6860  -16.8520   -9.1740 C.2   118  PHE118      0.2264
     98  O         -4.0790  -17.4220   -8.1770 O.2   118  PHE118     -0.2867
     99  CB        -5.5530  -16.3350  -10.6820 C.3   118  PHE118      0.0534
    100  CG        -6.1770  -16.3820  -12.0480 C.ar  118  PHE118     -0.0203
    101  CD1       -5.7890  -15.4920  -13.0440 C.ar  118  PHE118     -0.0042
    102  CD2       -7.1830  -17.2950  -12.3350 C.ar  118  PHE118     -0.0042
    103  CE1       -6.3880  -15.5270  -14.2910 C.ar  118  PHE118     -0.0003
    104  CE2       -7.7790  -17.3340  -13.5810 C.ar  118  PHE118     -0.0003
    105  CZ        -7.3770  -16.4530  -14.5570 C.ar  118  PHE118     -0.0000
@<TRIPOS>BOND
     1    86    85    2
     2    89    91   ar
     3    89    88   ar
     4    87    88    1
     5    87    84    1
     6    16    15    2
     7    85    84    1
     8    91    93   ar
     9    88    90   ar
    10    17    14    1
    11    17    18    1
    12    84    83    1
    13    14    15    1
    14    14    13    1
    15    15    24   am
    16    38    37    1
    17    38    39    1
    18    93    94    1
    19    93    92   ar
    20    90    92   ar
    21    37    36    1
    22    41    40    1
    23    18    19   ar
    24    18    20   ar
    25    19    21   ar
    26    30    29   ar
    27    31    29   ar
    28    39    40    2
    29    24    25    1
    30    29    28    1
    31    40    42    1
    32    25    28    1
    33    25    26    1
    34    36    33    1
    35    20    22   ar
    36    21    23   ar
    37    33    32    1
    38    33    34    1
    39    35    34    2
    40    22    23   ar
    41    51    53   ar
    42    51    49   ar
    43    26    27    2
    44    67    65    1
    45    12    11    1
    46    53    52   ar
    47    49    48   ar
    48    54    55    1
    49    55    56    1
    50    55    58    1
    51    61    56   am
    52    61    62    1
    53    56    57    2
    54    65    62    1
    55    65    66    1
    56    11    10   ar
    57    11     9   ar
    58    62    63    1
    59    52    50   ar
    60    10     8   ar
    61    48    50   ar
    62    48    47    1
    63    59    58    1
    64     9     7   ar
    65   105   103   ar
    66   105   104   ar
    67    66    68    1
    68    58    60    1
    69   103   101   ar
    70    47    44    1
    71    63    64    2
    72    44    43    1
    73    44    45    1
    74     8     6   ar
    75   104   102   ar
    76     7     6   ar
    77    45    46    2
    78   101   100   ar
    79     6     5    1
    80     4     3    2
    81    82    80   ar
    82    82    81   ar
    83    80    78   ar
    84    81    79   ar
    85   102   100   ar
    86    78    77   ar
    87    78    76   ar
    88    79    76   ar
    89    77    75   ar
    90   100    99    1
    91    76    74   ar
    92     3     2    1
    93    75    74   ar
    94    74    73    1
    95    73    70    1
    96     5     2    1
    97     2     1    1
    98    69    70    1
    99    99    96    1
   100    95    96    1
   101    96    97    1
   102    70    71    1
   103    71    72    2
   104    97    98    2
