@<TRIPOS>MOLECULE
tmp/5bxoA00.pdb
 175 170 0 0 0
SMALL
GASTEIGER

@<TRIPOS>ATOM
      1  N         -1.9240  -14.3820  -25.2790 N.3    35  ASP35      -0.1239
      2  CA        -1.6000  -13.1280  -25.9310 C.3    35  ASP35       0.1674
      3  C         -0.1040  -12.9020  -25.8880 C.2    35  ASP35       0.2266
      4  O          0.4040  -12.1980  -24.9920 O.2    35  ASP35      -0.2867
      5  CB        -2.2920  -12.0190  -25.1870 C.3    35  ASP35       0.1410
      6  CG        -2.1550  -10.6750  -25.8380 C.2    35  ASP35       0.3668
      7  OD1       -1.7680  -10.5990  -27.0420 O.co2  35  ASP35      -0.2456
      8  OD2       -2.4470   -9.6790  -25.1670 O.co2  35  ASP35      -0.2456
      9  N          0.7650   -9.6770  -22.1820 N.3    39  ARG39      -0.1245
     10  CA         1.1960  -10.3360  -20.9440 C.3    39  ARG39       0.1563
     11  C          0.7980  -11.7990  -20.8530 C.2    39  ARG39       0.2260
     12  O          0.7150  -12.3580  -19.7870 O.2    39  ARG39      -0.2867
     13  CB         0.8500   -9.5290  -19.6950 C.3    39  ARG39       0.0307
     14  CG        -0.5830   -9.0990  -19.5790 C.3    39  ARG39       0.0489
     15  CD        -0.7910   -8.2370  -18.3350 C.3    39  ARG39       0.2205
     16  NE        -0.4840   -9.0100  -17.1120 N.pl3  39  ARG39      -0.0865
     17  CZ         0.5510   -8.8300  -16.3030 C.cat  39  ARG39       0.5346
     18  NH1        1.4130   -7.8410  -16.5130 N.pl3  39  ARG39       0.1354
     19  NH2        0.7370   -9.6580  -15.2740 N.pl3  39  ARG39       0.1354
     20  N         -1.9980  -13.1700  -21.5110 N.3    41  SER41      -0.1217
     21  CA        -3.3800  -13.4010  -21.1130 C.3    41  SER41       0.1889
     22  C         -4.1170  -14.3280  -22.0470 C.2    41  SER41       0.2288
     23  O         -3.9080  -14.3070  -23.2450 O.2    41  SER41      -0.2866
     24  CB        -4.1500  -12.0810  -21.0330 C.3    41  SER41       0.2089
     25  OG        -3.7180  -11.2470  -19.9700 O.3    41  SER41      -0.2183
     26  N         -8.9160  -14.2970  -19.2610 N.3    45  HIS45      -0.1226
     27  CA        -8.3460  -13.2000  -18.5030 C.3    45  HIS45       0.1752
     28  C         -8.9490  -11.9140  -19.0120 C.2    45  HIS45       0.2596
     29  O         -9.2390  -11.0160  -18.2240 O.2    45  HIS45      -0.2718
     30  CB        -6.8350  -13.0810  -18.6700 C.3    45  HIS45       0.0759
     31  CG        -6.0100  -14.1190  -17.9800 C.ar   45  HIS45       0.0818
     32  ND1       -5.4470  -13.9650  -16.7420 N.ar   45  HIS45      -0.2268
     33  CD2       -5.6140  -15.3330  -18.4230 C.ar   45  HIS45       0.1154
     34  CE1       -4.7440  -15.0490  -16.4420 C.ar   45  HIS45       0.1986
     35  NE2       -4.8090  -15.8710  -17.4600 N.ar   45  HIS45      -0.2212
     36  N         -9.0360  -11.7620  -20.3250 N.am   46  PHE46      -0.1976
     37  CA        -9.5750  -10.5350  -20.9040 C.3    46  PHE46       0.1639
     38  C        -11.0440  -10.3510  -20.5760 C.2    46  PHE46       0.2290
     39  O        -11.4590   -9.2680  -20.1550 O.2    46  PHE46      -0.2864
     40  CB        -9.4160  -10.4910  -22.4410 C.3    46  PHE46       0.0560
     41  CG        -8.0450  -10.0360  -22.8790 C.ar   46  PHE46      -0.0200
     42  CD1       -7.7130   -8.6820  -22.8230 C.ar   46  PHE46      -0.0042
     43  CD2       -7.1280  -10.9260  -23.3850 C.ar   46  PHE46      -0.0042
     44  CE1       -6.4690   -8.2430  -23.2370 C.ar   46  PHE46      -0.0003
     45  CE2       -5.8860  -10.4820  -23.8300 C.ar   46  PHE46      -0.0003
     46  CZ        -5.5730   -9.1430  -23.7310 C.ar   46  PHE46      -0.0000
     47  N        -11.2070   -9.4170  -16.8050 N.3    49  GLY49      -0.1210
     48  CA       -10.7530   -8.0740  -16.4860 C.3    49  GLY49       0.1956
     49  C        -11.6210   -6.9650  -17.0090 C.2    49  GLY49       0.2611
     50  O        -11.6790   -5.8850  -16.3680 O.2    49  GLY49      -0.2717
     51  N        -12.2490   -7.1960  -18.1560 N.am   50  TYR50      -0.1976
     52  CA       -13.0430   -6.1460  -18.7930 C.3    50  TYR50       0.1639
     53  C        -14.5280   -6.3600  -18.5240 C.2    50  TYR50       0.2290
     54  O        -15.3560   -5.7320  -19.1560 O.2    50  TYR50      -0.2864
     55  CB       -12.7190   -6.0720  -20.2980 C.3    50  TYR50       0.0560
     56  CG       -11.3470   -5.5020  -20.5530 C.ar   50  TYR50      -0.0198
     57  CD1      -11.1450   -4.1290  -20.4950 C.ar   50  TYR50      -0.0009
     58  CD2      -10.2420   -6.2940  -20.8120 C.ar   50  TYR50      -0.0009
     59  CE1       -9.8990   -3.5710  -20.6840 C.ar   50  TYR50       0.0417
     60  CE2       -8.9910   -5.7640  -20.9970 C.ar   50  TYR50       0.0417
     61  CZ        -8.8230   -4.3840  -20.9200 C.ar   50  TYR50       0.1957
     62  OH        -7.5780   -3.8070  -21.1300 O.3    50  TYR50      -0.2866
     63  N         -1.1280  -15.6980  -16.2670 N.3    70  ASP70      -0.1225
     64  CA        -0.5320  -14.7520  -17.2380 C.3    70  ASP70       0.1805
     65  C          0.9650  -14.6800  -16.8650 C.2    70  ASP70       0.2597
     66  O          1.3990  -15.4090  -15.9600 O.2    70  ASP70      -0.2718
     67  CB        -1.2450  -13.4270  -17.3370 C.3    70  ASP70       0.1424
     68  CG        -0.9810  -12.5060  -16.1970 C.2    70  ASP70       0.3668
     69  OD1       -0.2290  -12.8200  -15.2760 O.co2  70  ASP70      -0.2456
     70  OD2       -1.5700  -11.3850  -16.2360 O.co2  70  ASP70      -0.2456
     71  N          1.7230  -13.7900  -17.5230 N.am   71  LYS71      -0.1979
     72  CA         3.1870  -13.7660  -17.3000 C.3    71  LYS71       0.1596
     73  C          3.5770  -13.3870  -15.8550 C.2    71  LYS71       0.2287
     74  O          4.6770  -13.6820  -15.4250 O.2    71  LYS71      -0.2864
     75  CB         3.8880  -12.8280  -18.3010 C.3    71  LYS71       0.0298
     76  CG         3.8790  -11.3460  -17.9710 C.3    71  LYS71       0.0038
     77  CD         4.5050  -10.5230  -19.0890 C.3    71  LYS71       0.0206
     78  CE         4.3550   -9.0310  -18.8800 C.3    71  LYS71       0.1093
     79  NZ         4.4570   -8.3190  -20.1810 N.3    71  LYS71      -0.1314
     80  N         -0.8560  -14.0770  -12.6560 N.3    74  LEU74      -0.1245
     81  CA        -2.2580  -13.7740  -12.3940 C.3    74  LEU74       0.1561
     82  C         -3.1560  -14.7670  -13.0540 C.2    74  LEU74       0.2260
     83  O         -3.0050  -15.0380  -14.2370 O.2    74  LEU74      -0.2867
     84  CB        -2.6260  -12.3720  -12.8970 C.3    74  LEU74       0.0270
     85  CG        -1.8500  -11.1570  -12.3630 C.3    74  LEU74       0.0019
     86  CD1       -2.2320   -9.8910  -13.1120 C.3    74  LEU74       0.0001
     87  CD2       -2.0070  -10.9670  -10.8680 C.3    74  LEU74       0.0001
     88  N         -7.7870  -13.1330  -10.2740 N.3    78  HIS78      -0.1226
     89  CA        -7.1020  -11.9090   -9.8950 C.3    78  HIS78       0.1752
     90  C         -7.5670  -10.6860  -10.6690 C.2    78  HIS78       0.2596
     91  O         -7.7390   -9.5690  -10.0780 O.2    78  HIS78      -0.2718
     92  CB        -5.5840  -11.9630  -10.1060 C.3    78  HIS78       0.0759
     93  CG        -4.8060  -12.8710   -9.2040 C.ar   78  HIS78       0.0818
     94  ND1       -4.3290  -12.5520   -7.9550 N.ar   78  HIS78      -0.2268
     95  CD2       -4.2440  -14.0600   -9.5240 C.ar   78  HIS78       0.1154
     96  CE1       -3.5760  -13.5600   -7.5120 C.ar   78  HIS78       0.1986
     97  NE2       -3.4910  -14.4690   -8.4580 N.ar   78  HIS78      -0.2212
     98  N         -7.7620  -10.8120  -11.9810 N.am   79  ASN79      -0.1974
     99  CA        -8.1810   -9.6480  -12.7700 C.3    79  ASN79       0.1688
    100  C         -9.5800   -9.1970  -12.3750 C.2    79  ASN79       0.2292
    101  O         -9.8810   -8.0040  -12.2770 O.2    79  ASN79      -0.2864
    102  CB        -8.1810   -9.9510  -14.2600 C.3    79  ASN79       0.1181
    103  CG        -6.7890  -10.1220  -14.8250 C.2    79  ASN79       0.2629
    104  OD1       -6.6220  -10.6090  -15.9460 O.2    79  ASN79      -0.2716
    105  ND2       -5.7940   -9.6930  -14.0830 N.am   79  ASN79      -0.0877
    106  N         -9.1220   -7.3890   -8.9170 N.3    82  SER82      -0.1202
    107  CA        -8.3860   -6.1320   -8.9530 C.3    82  SER82       0.2020
    108  C         -9.1790   -5.0670   -9.6720 C.2    82  SER82       0.2618
    109  O         -9.0480   -3.8900   -9.3440 O.2    82  SER82      -0.2717
    110  CB        -7.0170   -6.2830   -9.5650 C.3    82  SER82       0.2103
    111  OG        -7.0940   -6.4560  -10.9040 O.3    82  SER82      -0.2182
    112  N        -10.0400   -5.4230  -10.6180 N.am   83  TYR83      -0.1975
    113  CA       -10.8480   -4.4240  -11.3230 C.3    83  TYR83       0.1639
    114  C        -12.3020   -4.3440  -10.8250 C.2    83  TYR83       0.2290
    115  O        -13.1120   -3.6300  -11.4000 O.2    83  TYR83      -0.2864
    116  CB       -10.8110   -4.6480  -12.8250 C.3    83  TYR83       0.0560
    117  CG        -9.4470   -4.4190  -13.4110 C.ar   83  TYR83      -0.0198
    118  CD1       -8.9540   -3.1230  -13.4730 C.ar   83  TYR83      -0.0009
    119  CD2       -8.6580   -5.4450  -13.9080 C.ar   83  TYR83      -0.0009
    120  CE1       -7.6980   -2.8870  -14.0210 C.ar   83  TYR83       0.0417
    121  CE2       -7.3990   -5.2300  -14.4170 C.ar   83  TYR83       0.0417
    122  CZ        -6.9580   -3.9330  -14.5280 C.ar   83  TYR83       0.1957
    123  OH        -5.6980   -3.6660  -15.0490 O.3    83  TYR83      -0.2866
    124  N        -14.9410   -6.5920  -10.4570 N.3    85  HIS85      -0.1241
    125  CA       -16.0450   -7.1880  -11.1890 C.3    85  HIS85       0.1621
    126  C        -16.6260   -8.3950  -10.4620 C.2    85  HIS85       0.2264
    127  O        -16.1360   -9.5370  -10.5760 O.2    85  HIS85      -0.2867
    128  CB       -15.5860   -7.5840  -12.5820 C.3    85  HIS85       0.0745
    129  CG       -14.9820   -6.4390  -13.3340 C.ar   85  HIS85       0.0817
    130  ND1      -15.4900   -5.1500  -13.3000 N.ar   85  HIS85      -0.2268
    131  CD2      -13.8950   -6.3950  -14.1340 C.ar   85  HIS85       0.1154
    132  CE1      -14.7470   -4.3780  -14.0650 C.ar   85  HIS85       0.1986
    133  NE2      -13.7570   -5.1020  -14.5630 N.ar   85  HIS85      -0.2212
    134  N         -0.0760  -15.0000   -7.0670 N.3   103  ASP103     -0.1239
    135  CA         0.7030  -14.6510   -8.2470 C.3   103  ASP103      0.1674
    136  C          2.1920  -14.7520   -7.9090 C.2   103  ASP103      0.2266
    137  O          2.5610  -15.1890   -6.8240 O.2   103  ASP103     -0.2867
    138  CB         0.3350  -13.2790   -8.8060 C.3   103  ASP103      0.1410
    139  CG         0.7840  -12.0760   -7.9490 C.2   103  ASP103      0.3668
    140  OD1        1.3140  -12.2660   -6.8500 O.co2 103  ASP103     -0.2456
    141  OD2        0.5590  -10.9180   -8.4050 O.co2 103  ASP103     -0.2456
    142  N          4.2120  -12.5380   -6.9720 N.3   105  TRP105     -0.1241
    143  CA         4.4760  -11.6290   -5.8330 C.3   105  TRP105      0.1605
    144  C          3.8110  -12.1200   -4.5420 C.2   105  TRP105      0.2264
    145  O          3.8500  -11.4410   -3.5380 O.2   105  TRP105     -0.2867
    146  CB         3.9590  -10.2290   -6.1620 C.3   105  TRP105      0.0550
    147  CG         4.5250   -9.6140   -7.3910 C.ar  105  TRP105      0.0003
    148  CD1        4.2060   -9.8760   -8.6890 C.ar  105  TRP105      0.0946
    149  CD2        5.4960   -8.5830   -7.4190 C.ar  105  TRP105      0.0152
    150  NE1        4.9190   -9.0850   -9.5140 N.ar  105  TRP105     -0.2442
    151  CE2        5.7380   -8.2820   -8.7560 C.ar  105  TRP105      0.0810
    152  CE3        6.1980   -7.9050   -6.4370 C.ar  105  TRP105      0.0012
    153  CZ2        6.6940   -7.3250   -9.1500 C.ar  105  TRP105      0.0191
    154  CZ3        7.1430   -6.9680   -6.8300 C.ar  105  TRP105      0.0001
    155  CH2        7.3630   -6.6680   -8.1360 C.ar  105  TRP105      0.0015
    156  N          0.6030  -12.2060   -4.0660 N.3   107  PHE107     -0.1241
    157  CA        -0.7100  -11.5590   -3.9080 C.3   107  PHE107      0.1605
    158  C         -1.7800  -12.5710   -4.2810 C.2   107  PHE107      0.2264
    159  O         -1.6950  -13.1970   -5.3380 O.2   107  PHE107     -0.2867
    160  CB        -0.8870  -10.3540   -4.8480 C.3   107  PHE107      0.0534
    161  CG        -0.1810   -9.0840   -4.3950 C.ar  107  PHE107     -0.0203
    162  CD1        1.2110   -9.0320   -4.2700 C.ar  107  PHE107     -0.0042
    163  CD2       -0.9080   -7.9300   -4.1630 C.ar  107  PHE107     -0.0042
    164  CE1        1.8400   -7.8420   -3.9310 C.ar  107  PHE107     -0.0003
    165  CE2       -0.2820   -6.7390   -3.8430 C.ar  107  PHE107     -0.0003
    166  CZ         1.0880   -6.7140   -3.7340 C.ar  107  PHE107     -0.0000
    167  N         -6.1790   -8.2880   -3.5540 N.3   112  GLU112     -0.1245
    168  CA        -6.6870   -7.3610   -4.5830 C.3   112  GLU112      0.1567
    169  C         -8.0340   -6.7740   -4.2090 C.2   112  GLU112      0.2260
    170  O         -8.2430   -5.5380   -4.2560 O.2   112  GLU112     -0.2867
    171  CB        -6.7950   -8.1020   -5.9230 C.3   112  GLU112      0.0388
    172  CG        -5.4400   -8.5600   -6.4440 C.3   112  GLU112      0.1160
    173  CD        -4.5800   -7.4490   -7.0390 C.2   112  GLU112      0.3649
    174  OE1       -5.0210   -6.2800   -7.1300 O.co2 112  GLU112     -0.2457
    175  OE2       -3.4490   -7.7790   -7.4650 O.co2 112  GLU112     -0.2457
@<TRIPOS>BOND
     1     7     6   ar
     2     2     3    1
     3     2     1    1
     4     2     5    1
     5     3     4    2
     6     6     5    1
     7     6     8   ar
     8    45    46   ar
     9    45    43   ar
    10    46    44   ar
    11    43    41   ar
    12    23    22    2
    13    44    42   ar
    14    41    42   ar
    15    41    40    1
    16    40    37    1
    17     9    10    1
    18    22    21    1
    19    20    21    1
    20    62    61    1
    21    21    24    1
    22    24    25    1
    23    60    61   ar
    24    60    58   ar
    25    10    11    1
    26    10    13    1
    27    61    59   ar
    28    37    38    1
    29    37    36    1
    30    11    12    2
    31    58    56   ar
    32    59    57   ar
    33    38    39    2
    34    56    57   ar
    35    56    55    1
    36    36    28   am
    37    55    52    1
    38    79    78    1
    39    13    14    1
    40    14    15    1
    41    26    27    1
    42    54    53    2
    43    77    78    1
    44    77    76    1
    45    28    27    1
    46    28    29    2
    47    52    53    1
    48    52    51    1
    49    30    27    1
    50    30    31    1
    51    33    31   ar
    52    33    35   ar
    53    15    16    1
    54    75    76    1
    55    75    72    1
    56    51    49   am
    57    31    32   ar
    58    71    72    1
    59    71    65   am
    60    35    34   ar
    61    67    64    1
    62    67    68    1
    63    72    73    1
    64    64    65    1
    65    64    63    1
    66    16    17    2
    67    49    48    1
    68    49    50    2
    69    65    66    2
    70    47    48    1
    71    32    34   ar
    72    18    17    1
    73    17    19    1
    74    70    68   ar
    75    68    69   ar
    76   104   103    2
    77    73    74    2
    78   123   122    1
    79   103   102    1
    80   103   105   am
    81   133   131   ar
    82   133   132   ar
    83   122   121   ar
    84   122   120   ar
    85   121   119   ar
    86   102    99    1
    87    83    82    2
    88   131   129   ar
    89   132   130   ar
    90   120   118   ar
    91   119   117   ar
    92   118   117   ar
    93   117   116    1
    94   129   130   ar
    95   129   128    1
    96    86    85    1
    97    82    81    1
    98    84    81    1
    99    84    85    1
   100   116   113    1
   101    99   100    1
   102    99    98    1
   103    80    81    1
   104   128   125    1
   105   100   101    2
   106    85    87    1
   107    98    90   am
   108   115   114    2
   109   113   114    1
   110   113   112    1
   111   125   126    1
   112   125   124    1
   113   111   110    1
   114    90    91    2
   115    90    89    1
   116   112   108   am
   117   127   126    2
   118    88    89    1
   119    92    89    1
   120    92    93    1
   121   108   109    2
   122   108   107    1
   123   110   107    1
   124    95    93   ar
   125    95    97   ar
   126   150   151   ar
   127   150   148   ar
   128    93    94   ar
   129   153   151   ar
   130   153   155   ar
   131   107   106    1
   132   138   135    1
   133   138   139    1
   134   151   149   ar
   135   148   147   ar
   136    97    96   ar
   137   141   139   ar
   138   135   136    1
   139   135   134    1
   140   155   154   ar
   141    94    96   ar
   142   139   140   ar
   143   136   137    2
   144   175   173   ar
   145   149   147   ar
   146   149   152   ar
   147   147   146    1
   148   174   173   ar
   149   173   172    1
   150   142   143    1
   151   154   152   ar
   152   172   171    1
   153   146   143    1
   154   171   168    1
   155   143   144    1
   156   159   158    2
   157   160   161    1
   158   160   157    1
   159   168   169    1
   160   168   167    1
   161   144   145    2
   162   161   162   ar
   163   161   163   ar
   164   158   157    1
   165   162   164   ar
   166   170   169    2
   167   163   165   ar
   168   156   157    1
   169   164   166   ar
   170   165   166   ar
