@<TRIPOS>MOLECULE
tmp/5bxpA01.pdb
 130 130 0 0 0
SMALL
GASTEIGER

@<TRIPOS>ATOM
      1  N         73.0380   10.4490   -6.1280 N.3   232  ASN232     -0.1240
      2  CA        73.3230    9.0800   -5.9990 C.3   232  ASN232      0.1653
      3  C         73.2310    8.4250   -7.3840 C.2   232  ASN232      0.2266
      4  O         72.2960    8.7240   -8.1330 O.2   232  ASN232     -0.2867
      5  CB        72.3440    8.3640   -5.0990 C.3   232  ASN232      0.1155
      6  CG        72.8710    7.1200   -4.4950 C.2   232  ASN232      0.2627
      7  OD1       73.8570    6.4950   -4.8800 O.2   232  ASN232     -0.2716
      8  ND2       72.1380    6.6620   -3.4100 N.am  232  ASN232     -0.0877
      9  N         69.5270    4.0390   -6.9000 N.3   236  HIS236     -0.1241
     10  CA        68.7070    5.0780   -6.3180 C.3   236  HIS236      0.1621
     11  C         68.4810    6.2970   -7.1900 C.2   236  HIS236      0.2264
     12  O         68.3760    7.4000   -6.7230 O.2   236  HIS236     -0.2867
     13  CB        69.3000    5.5510   -4.9490 C.3   236  HIS236      0.0745
     14  CG        69.1310    4.5570   -3.8880 C.ar  236  HIS236      0.0817
     15  ND1       67.8790    4.1670   -3.4340 N.ar  236  HIS236     -0.2268
     16  CD2       70.0440    3.8060   -3.2220 C.ar  236  HIS236      0.1154
     17  CE1       68.0390    3.2230   -2.5180 C.ar  236  HIS236      0.1986
     18  NE2       69.3330    3.0050   -2.3590 N.ar  236  HIS236     -0.2212
     19  N         75.6710    3.5840   -3.5040 N.3   293  ASP293     -0.1225
     20  CA        75.0340    2.5790   -2.6210 C.3   293  ASP293      0.1805
     21  C         73.8930    1.8390   -3.2890 C.2   293  ASP293      0.2597
     22  O         73.1620    2.3820   -4.1440 O.2   293  ASP293     -0.2718
     23  CB        74.5480    3.2120   -1.2450 C.3   293  ASP293      0.1424
     24  CG        73.4010    4.1170   -1.4080 C.2   293  ASP293      0.3668
     25  OD1       73.5220    5.0920   -2.1430 O.co2 293  ASP293     -0.2456
     26  OD2       72.2140    3.9270   -0.8490 O.co2 293  ASP293     -0.2456
     27  N         73.8280    0.5200   -3.0300 N.am  294  GLU294     -0.1979
     28  CA        72.5550   -0.2340   -3.1970 C.3   294  GLU294      0.1602
     29  C         72.1320   -0.2770   -4.6410 C.2   294  GLU294      0.2287
     30  O         70.9210   -0.3180   -4.9660 O.2   294  GLU294     -0.2864
     31  CB        71.4590    0.3410   -2.3520 C.3   294  GLU294      0.0415
     32  CG        71.7160    0.0520   -0.9070 C.3   294  GLU294      0.1163
     33  CD        70.7290    0.5940    0.0370 C.2   294  GLU294      0.3649
     34  OE1       69.8110    1.4820   -0.2710 O.co2 294  GLU294     -0.2457
     35  OE2       70.8140    0.0850    1.1840 O.co2 294  GLU294     -0.2457
     36  N         79.8680    5.9880   -0.9220 N.3   346  TRP346     -0.1241
     37  CA        79.5780    5.1120    0.1700 C.3   346  TRP346      0.1605
     38  C         80.3400    3.7770    0.0540 C.2   346  TRP346      0.2264
     39  O         80.6460    3.3800   -1.1000 O.2   346  TRP346     -0.2867
     40  CB        78.0760    4.8110    0.1290 C.3   346  TRP346      0.0550
     41  CG        77.1890    5.9690    0.2670 C.ar  346  TRP346      0.0003
     42  CD1       76.2920    6.3600   -0.6190 C.ar  346  TRP346      0.0946
     43  CD2       77.0420    6.8350    1.3940 C.ar  346  TRP346      0.0152
     44  NE1       75.5670    7.4100   -0.1720 N.ar  346  TRP346     -0.2442
     45  CE2       76.0510    7.7570    1.0670 C.ar  346  TRP346      0.0810
     46  CE3       77.7320    6.9840    2.5860 C.ar  346  TRP346      0.0012
     47  CZ2       75.7020    8.7730    1.9040 C.ar  346  TRP346      0.0191
     48  CZ3       77.3550    8.0000    3.4590 C.ar  346  TRP346      0.0001
     49  CH2       76.3790    8.8750    3.1060 C.ar  346  TRP346      0.0015
     50  N         79.3420    3.2260    6.0040 N.3   367  TRP367     -0.1241
     51  CA        78.1390    3.0010    6.7250 C.3   367  TRP367      0.1605
     52  C         77.7230    1.5580    6.8720 C.2   367  TRP367      0.2264
     53  O         76.9600    1.2580    7.7780 O.2   367  TRP367     -0.2867
     54  CB        77.0030    3.7820    6.0000 C.3   367  TRP367      0.0550
     55  CG        76.5440    3.1110    4.6590 C.ar  367  TRP367      0.0003
     56  CD1       77.1060    3.2450    3.4460 C.ar  367  TRP367      0.0946
     57  CD2       75.4470    2.2060    4.4690 C.ar  367  TRP367      0.0152
     58  NE1       76.4580    2.4980    2.4970 N.ar  367  TRP367     -0.2442
     59  CE2       75.4160    1.8800    3.0980 C.ar  367  TRP367      0.0810
     60  CE3       74.5050    1.6510    5.3300 C.ar  367  TRP367      0.0012
     61  CZ2       74.5080    0.9810    2.5640 C.ar  367  TRP367      0.0191
     62  CZ3       73.5940    0.7520    4.8010 C.ar  367  TRP367      0.0001
     63  CH2       73.6130    0.4280    3.4500 C.ar  367  TRP367      0.0015
     64  N         75.7180    3.3360   10.8080 N.3   389  GLN389     -0.1245
     65  CA        74.2720    3.2600   11.0720 C.3   389  GLN389      0.1566
     66  C         73.8740    3.5550   12.4710 C.2   389  GLN389      0.2260
     67  O         72.6730    3.8470   12.7040 O.2   389  GLN389     -0.2867
     68  CB        73.8290    1.8520   10.6160 C.3   389  GLN389      0.0367
     69  CG        73.9490    1.5500    9.1640 C.3   389  GLN389      0.0905
     70  CD        73.5950    0.1590    8.7850 C.2   389  GLN389      0.2608
     71  OE1       72.4170   -0.2850    8.9120 O.2   389  GLN389     -0.2717
     72  NE2       74.5870   -0.6300    8.4240 N.am  389  GLN389     -0.0878
     73  N         72.2970    6.9500   12.4450 N.3   392  TYR392     -0.1241
     74  CA        71.1710    7.2040   11.5540 C.3   392  TYR392      0.1605
     75  C         69.8930    7.4940   12.2710 C.2   392  TYR392      0.2264
     76  O         69.5350    6.8360   13.3100 O.2   392  TYR392     -0.2867
     77  CB        70.8480    5.9040   10.7480 C.3   392  TYR392      0.0534
     78  CG        71.7010    5.6450    9.5250 C.ar  392  TYR392     -0.0201
     79  CD1       73.0250    6.1700    9.3110 C.ar  392  TYR392     -0.0009
     80  CD2       71.1870    4.8300    8.5560 C.ar  392  TYR392     -0.0009
     81  CE1       73.7200    5.8840    8.1470 C.ar  392  TYR392      0.0417
     82  CE2       71.8490    4.5170    7.4130 C.ar  392  TYR392      0.0417
     83  CZ        73.1460    5.0480    7.1780 C.ar  392  TYR392      0.1957
     84  OH        73.8340    4.8130    6.0110 O.3   392  TYR392     -0.2866
     85  N         61.8730    4.1020    9.5560 N.3   397  ALA397     -0.1245
     86  CA        62.5890    2.9100    9.9600 C.3   397  ALA397      0.1562
     87  C         62.9920    3.0820   11.4280 C.2   397  ALA397      0.2260
     88  O         64.0000    3.7040   11.7290 O.2   397  ALA397     -0.2867
     89  CB        63.7260    2.6500    9.0700 C.3   397  ALA397      0.0290
     90  N         66.3360    2.8100   13.0390 N.3   400  TYR400     -0.1241
     91  CA        67.2870    3.9750   12.8840 C.3   400  TYR400      0.1605
     92  C         66.8330    5.1620   13.7050 C.2   400  TYR400      0.2264
     93  O         66.1300    6.0960   13.1790 O.2   400  TYR400     -0.2867
     94  CB        67.4520    4.3080   11.4250 C.3   400  TYR400      0.0534
     95  CG        68.1370    3.2660   10.5660 C.ar  400  TYR400     -0.0201
     96  CD1       69.2950    2.5800   10.9980 C.ar  400  TYR400     -0.0009
     97  CD2       67.7160    3.0350    9.2880 C.ar  400  TYR400     -0.0009
     98  CE1       69.9100    1.6940   10.2010 C.ar  400  TYR400      0.0417
     99  CE2       68.3550    2.1510    8.4710 C.ar  400  TYR400      0.0417
    100  CZ        69.4350    1.4450    8.9680 C.ar  400  TYR400      0.1957
    101  OH        70.1140    0.5840    8.0960 O.3   400  TYR400     -0.2866
    102  N         67.5640   10.6910    7.3610 N.3   438  TRP438     -0.1228
    103  CA        66.9540   10.0710    6.1580 C.3   438  TRP438      0.1722
    104  C         65.4260   10.1640    6.2630 C.2   438  TRP438      0.2437
    105  O         64.8570    9.9840    7.3570 O.2   438  TRP438     -0.2733
    106  CB        67.2620    8.5720    6.1200 C.3   438  TRP438      0.0563
    107  CG        68.7430    8.2620    6.1080 C.ar  438  TRP438      0.0003
    108  CD1       69.4790    7.7410    7.0900 C.ar  438  TRP438      0.0946
    109  CD2       69.6180    8.4250    5.0150 C.ar  438  TRP438      0.0152
    110  NE1       70.7260    7.5340    6.6820 N.ar  438  TRP438     -0.2442
    111  CE2       70.8600    7.9230    5.4040 C.ar  438  TRP438      0.0810
    112  CE3       69.4710    8.8660    3.7030 C.ar  438  TRP438      0.0012
    113  CZ2       71.9600    7.9470    4.5510 C.ar  438  TRP438      0.0191
    114  CZ3       70.5360    8.9050    2.8520 C.ar  438  TRP438      0.0001
    115  CH2       71.7980    8.4040    3.2690 C.ar  438  TRP438      0.0015
    116  N         64.7500   10.4150    5.1480 N.am  439  PRO439     -0.2718
    117  CA        63.2680   10.5920    5.2340 C.3   439  PRO439      0.1535
    118  C         62.5460    9.2330    5.1660 C.2   439  PRO439      0.2598
    119  O         61.6690    9.0440    5.9440 O.2   439  PRO439     -0.2715
    120  CB        62.9400   11.4890    4.0270 C.3   439  PRO439      0.0310
    121  CG        64.0320   11.3440    3.1030 C.3   439  PRO439      0.0237
    122  CD        65.2970   10.8560    3.8600 C.3   439  PRO439      0.0939
    123  N         62.9490    8.3590    4.2600 N.am  440  ASP440     -0.1972
    124  CA        62.2560    7.1060    3.9900 C.3   440  ASP440      0.1709
    125  C         60.7510    7.3620    3.9350 C.2   440  ASP440      0.2293
    126  O         60.3570    8.3000    3.2600 O.2   440  ASP440     -0.2864
    127  CB        62.6970    6.1130    5.0100 C.3   440  ASP440      0.1436
    128  CG        64.1680    5.7410    4.8650 C.2   440  ASP440      0.3671
    129  OD1       64.7720    5.7710    3.7610 O.co2 440  ASP440     -0.2456
    130  OD2       64.7630    5.5130    5.9560 O.co2 440  ASP440     -0.2456
@<TRIPOS>BOND
     1     4     3    2
     2     3     2    1
     3    11    12    2
     4    11    10    1
     5     9    10    1
     6    10    13    1
     7     1     2    1
     8     2     5    1
     9     5     6    1
    10    30    29    2
    11    13    14    1
    12     7     6    2
    13    29    28    1
    14     6     8   am
    15    22    21    2
    16    14    15   ar
    17    14    16   ar
    18    19    20    1
    19    15    17   ar
    20    21    27   am
    21    21    20    1
    22    16    18   ar
    23    28    27    1
    24    28    31    1
    25    20    23    1
    26    17    18   ar
    27    31    32    1
    28    25    24   ar
    29    24    23    1
    30    24    26   ar
    31    39    38    2
    32    36    37    1
    33    32    33    1
    34    42    44   ar
    35    42    41   ar
    36    34    33   ar
    37    44    45   ar
    38    33    35   ar
    39    38    37    1
    40    40    37    1
    41    40    41    1
    42    41    43   ar
    43    45    43   ar
    44    45    47   ar
    45    43    46   ar
    46    47    49   ar
    47    58    59   ar
    48    58    56   ar
    49    61    59   ar
    50    61    63   ar
    51    46    48   ar
    52   114   115   ar
    53   114   112   ar
    54    59    57   ar
    55   121   122    1
    56   121   120    1
    57    49    48   ar
    58   126   125    2
    59   115   113   ar
    60    56    55   ar
    61    63    62   ar
    62   112   109   ar
    63   129   128   ar
    64   122   116    1
    65   125   124    1
    66   124   123    1
    67   124   127    1
    68   120   117    1
    69   123   118   am
    70    57    55   ar
    71    57    60   ar
    72   113   111   ar
    73    55    54    1
    74    62    60   ar
    75   128   127    1
    76   128   130   ar
    77   109   111   ar
    78   109   107   ar
    79   116   117    1
    80   116   104   am
    81   118   117    1
    82   118   119    2
    83   111   110   ar
    84    54    51    1
    85    50    51    1
    86    84    83    1
    87   107   106    1
    88   107   108   ar
    89   106   103    1
    90   103   104    1
    91   103   102    1
    92   104   105    2
    93   110   108   ar
    94    51    52    1
    95    52    53    2
    96    83    82   ar
    97    83    81   ar
    98    82    80   ar
    99   101   100    1
   100    81    79   ar
   101    72    70   am
   102    99   100   ar
   103    99    97   ar
   104    80    78   ar
   105    70    71    2
   106    70    69    1
   107   100    98   ar
   108    89    86    1
   109    69    68    1
   110    97    95   ar
   111    79    78   ar
   112    78    77    1
   113    85    86    1
   114    86    87    1
   115    98    96   ar
   116    95    96   ar
   117    95    94    1
   118    68    65    1
   119    77    74    1
   120    64    65    1
   121    65    66    1
   122    94    91    1
   123    87    88    2
   124    74    75    1
   125    74    73    1
   126    75    76    2
   127    66    67    2
   128    91    90    1
   129    91    92    1
   130    93    92    2
