@<TRIPOS>MOLECULE
tmp/5bxrB01.pdb
 121 122 0 0 0
SMALL
GASTEIGER

@<TRIPOS>ATOM
      1  N         42.8990    9.0110   61.1890 N.3   232  ASN232     -0.1240
      2  CA        42.7780    7.6030   61.0110 C.3   232  ASN232      0.1653
      3  C         42.9360    6.8740   62.3670 C.2   232  ASN232      0.2266
      4  O         43.7670    7.2970   63.1610 O.2   232  ASN232     -0.2867
      5  CB        43.8720    7.0730   60.1370 C.3   232  ASN232      0.1155
      6  CG        43.5150    5.7080   59.5460 C.2   232  ASN232      0.2627
      7  OD1       42.5550    5.0310   59.9030 O.2   232  ASN232     -0.2716
      8  ND2       44.2530    5.2920   58.5070 N.am  232  ASN232     -0.0877
      9  N         47.1100    2.9600   61.7100 N.3   236  HIS236     -0.1241
     10  CA        47.7620    4.1860   61.1690 C.3   236  HIS236      0.1621
     11  C         47.8520    5.3750   62.0140 C.2   236  HIS236      0.2264
     12  O         47.8170    6.5020   61.5910 O.2   236  HIS236     -0.2867
     13  CB        47.2100    4.5190   59.7450 C.3   236  HIS236      0.0745
     14  CG        47.5510    3.5020   58.7140 C.ar  236  HIS236      0.0817
     15  ND1       48.8480    3.2490   58.2950 N.ar  236  HIS236     -0.2268
     16  CD2       46.7730    2.6050   58.0440 C.ar  236  HIS236      0.1154
     17  CE1       48.8450    2.3320   57.3410 C.ar  236  HIS236      0.1986
     18  NE2       47.5940    1.9270   57.1650 N.ar  236  HIS236     -0.2212
     19  N         41.1240    1.7360   58.2730 N.3   293  ASP293     -0.1225
     20  CA        41.7890    0.7900   57.3610 C.3   293  ASP293      0.1805
     21  C         43.0060    0.2030   58.0200 C.2   293  ASP293      0.2597
     22  O         43.6820    0.8530   58.8600 O.2   293  ASP293     -0.2718
     23  CB        42.2030    1.5940   56.0880 C.3   293  ASP293      0.1424
     24  CG        43.1220    2.6240   56.3250 C.2   293  ASP293      0.3668
     25  OD1       42.8890    3.6170   57.1440 O.co2 293  ASP293     -0.2456
     26  OD2       44.2800    2.6830   55.7540 O.co2 293  ASP293     -0.2456
     27  N         43.2620   -1.0790   57.6840 N.am  294  GLU294     -0.1979
     28  CA        44.5750   -1.6940   57.9180 C.3   294  GLU294      0.1602
     29  C         44.9680   -1.7030   59.3680 C.2   294  GLU294      0.2287
     30  O         46.1450   -1.6130   59.7050 O.2   294  GLU294     -0.2864
     31  CB        45.6160   -0.9490   57.0720 C.3   294  GLU294      0.0415
     32  CG        45.3540   -1.1300   55.5700 C.3   294  GLU294      0.1163
     33  CD        46.5410   -0.6980   54.6840 C.2   294  GLU294      0.3649
     34  OE1       47.3230    0.2520   55.0690 O.co2 294  GLU294     -0.2457
     35  OE2       46.7020   -1.2960   53.5360 O.co2 294  GLU294     -0.2457
     36  N         36.6530    3.7450   55.8740 N.3   346  TRP346     -0.1241
     37  CA        37.0870    2.8060   54.8690 C.3   346  TRP346      0.1605
     38  C         36.4780    1.4330   55.1170 C.2   346  TRP346      0.2264
     39  O         36.2320    1.0960   56.3320 O.2   346  TRP346     -0.2867
     40  CB        38.6240    2.7260   54.9050 C.3   346  TRP346      0.0550
     41  CG        39.3670    3.9710   54.5940 C.ar  346  TRP346      0.0003
     42  CD1       40.2700    4.6680   55.3960 C.ar  346  TRP346      0.0946
     43  CD2       39.2720    4.7690   53.3950 C.ar  346  TRP346      0.0152
     44  NE1       40.7720    5.7480   54.7440 N.ar  346  TRP346     -0.2442
     45  CE2       40.1890    5.8220   53.5050 C.ar  346  TRP346      0.0810
     46  CE3       38.6190    4.6000   52.1750 C.ar  346  TRP346      0.0012
     47  CZ2       40.3970    6.7230   52.5160 C.ar  346  TRP346      0.0191
     48  CZ3       38.8300    5.5480   51.1490 C.ar  346  TRP346      0.0001
     49  CH2       39.7270    6.5880   51.3180 C.ar  346  TRP346      0.0015
     50  N         37.2760    0.7210   49.0390 N.3   367  TRP367     -0.1241
     51  CA        38.5350    0.7240   48.2450 C.3   367  TRP367      0.1605
     52  C         39.1390   -0.6470   47.9790 C.2   367  TRP367      0.2264
     53  O         39.8550   -0.8340   47.0030 O.2   367  TRP367     -0.2867
     54  CB        39.5800    1.5810   48.8980 C.3   367  TRP367      0.0550
     55  CG        40.1400    0.9720   50.1620 C.ar  367  TRP367      0.0003
     56  CD1       39.5940    0.9830   51.4280 C.ar  367  TRP367      0.0946
     57  CD2       41.4320    0.3380   50.3000 C.ar  367  TRP367      0.0152
     58  NE1       40.4210    0.3360   52.3010 N.ar  367  TRP367     -0.2442
     59  CE2       41.5560   -0.0430   51.6280 C.ar  367  TRP367      0.0810
     60  CE3       42.4800    0.0990   49.4430 C.ar  367  TRP367      0.0012
     61  CZ2       42.6660   -0.7130   52.1190 C.ar  367  TRP367      0.0191
     62  CZ3       43.6110   -0.5540   49.9570 C.ar  367  TRP367      0.0001
     63  CH2       43.6960   -0.9370   51.3000 C.ar  367  TRP367      0.0015
     64  N         43.7150    5.2170   42.3550 N.3   392  TYR392     -0.1241
     65  CA        44.7280    5.5950   43.3040 C.3   392  TYR392      0.1605
     66  C         46.0040    6.0560   42.5610 C.2   392  TYR392      0.2264
     67  O         46.4440    5.4740   41.5410 O.2   392  TYR392     -0.2867
     68  CB        45.1310    4.3930   44.1090 C.3   392  TYR392      0.0534
     69  CG        44.3500    4.0670   45.3650 C.ar  392  TYR392     -0.0201
     70  CD1       43.1100    4.4570   45.5640 C.ar  392  TYR392     -0.0009
     71  CD2       44.9280    3.2920   46.3330 C.ar  392  TYR392     -0.0009
     72  CE1       42.4260    4.2490   46.7640 C.ar  392  TYR392      0.0417
     73  CE2       44.2540    2.9950   47.4900 C.ar  392  TYR392      0.0417
     74  CZ        42.9820    3.4350   47.7340 C.ar  392  TYR392      0.1957
     75  OH        42.3160    3.2300   48.9340 O.3   392  TYR392     -0.2866
     76  N         54.3970    3.6480   45.3660 N.3   397  ALA397     -0.1245
     77  CA        53.8060    2.3640   44.9780 C.3   397  ALA397      0.1562
     78  C         53.4080    2.4300   43.5320 C.2   397  ALA397      0.2260
     79  O         52.3480    3.0030   43.1830 O.2   397  ALA397     -0.2867
     80  CB        52.6310    2.0290   45.8410 C.3   397  ALA397      0.0290
     81  N         50.1050    1.8310   41.8660 N.3   400  TYR400     -0.1241
     82  CA        49.0750    2.8820   41.9290 C.3   400  TYR400      0.1605
     83  C         49.3670    4.1150   41.1100 C.2   400  TYR400      0.2264
     84  O         49.9080    5.0380   41.6060 O.2   400  TYR400     -0.2867
     85  CB        48.7550    3.2310   43.3910 C.3   400  TYR400      0.0534
     86  CG        48.2460    2.1040   44.2670 C.ar  400  TYR400     -0.0201
     87  CD1       47.2270    1.2760   43.8280 C.ar  400  TYR400     -0.0009
     88  CD2       48.7530    1.8990   45.5220 C.ar  400  TYR400     -0.0009
     89  CE1       46.7280    0.3020   44.6570 C.ar  400  TYR400      0.0417
     90  CE2       48.2440    0.9330   46.3490 C.ar  400  TYR400      0.0417
     91  CZ        47.2440    0.1580   45.9030 C.ar  400  TYR400      0.1957
     92  OH        46.7360   -0.8380   46.7400 O.3   400  TYR400     -0.2866
     93  N         47.8840    9.4690   47.5050 N.3   438  TRP438     -0.1228
     94  CA        48.5730    8.9780   48.6790 C.3   438  TRP438      0.1722
     95  C         50.0860    9.2730   48.5500 C.2   438  TRP438      0.2437
     96  O         50.6790    9.0510   47.4710 O.2   438  TRP438     -0.2733
     97  CB        48.4290    7.4660   48.7470 C.3   438  TRP438      0.0563
     98  CG        47.0510    6.9950   48.7710 C.ar  438  TRP438      0.0003
     99  CD1       46.3880    6.4020   47.7630 C.ar  438  TRP438      0.0946
    100  CD2       46.1680    7.0760   49.8950 C.ar  438  TRP438      0.0152
    101  NE1       45.1350    6.0560   48.2300 N.ar  438  TRP438     -0.2442
    102  CE2       44.9640    6.4730   49.5230 C.ar  438  TRP438      0.0810
    103  CE3       46.2700    7.5810   51.1730 C.ar  438  TRP438      0.0012
    104  CZ2       43.9010    6.3520   50.4550 C.ar  438  TRP438      0.0191
    105  CZ3       45.2180    7.4130   52.1240 C.ar  438  TRP438      0.0001
    106  CH2       44.0440    6.8350   51.7150 C.ar  438  TRP438      0.0015
    107  N         50.7330    9.6850   49.6490 N.am  439  PRO439     -0.2718
    108  CA        52.1820    9.9700   49.5840 C.3   439  PRO439      0.1535
    109  C         53.0170    8.6960   49.6700 C.2   439  PRO439      0.2598
    110  O         53.9950    8.5670   48.9040 O.2   439  PRO439     -0.2715
    111  CB        52.3660   10.9180   50.7190 C.3   439  PRO439      0.0310
    112  CG        51.3560   10.5450   51.7400 C.3   439  PRO439      0.0237
    113  CD        50.1680   10.0590   50.9510 C.3   439  PRO439      0.0939
    114  N         52.7040    7.8220   50.6500 N.am  440  ASP440     -0.1972
    115  CA        53.5700    6.6400   50.8330 C.3   440  ASP440      0.1709
    116  C         55.0630    7.1060   50.9640 C.2   440  ASP440      0.2293
    117  O         55.3240    8.0670   51.6200 O.2   440  ASP440     -0.2864
    118  CB        53.2660    5.5670   49.8180 C.3   440  ASP440      0.1436
    119  CG        51.8210    4.9970   50.0190 C.2   440  ASP440      0.3671
    120  OD1       51.2400    5.0420   51.1320 O.co2 440  ASP440     -0.2456
    121  OD2       51.2710    4.6340   48.9550 O.co2 440  ASP440     -0.2456
@<TRIPOS>BOND
     1    83    84    2
     2    83    82    1
     3    67    66    2
     4    81    82    1
     5    82    85    1
     6    64    65    1
     7    66    65    1
     8    79    78    2
     9    65    68    1
    10    85    86    1
    11    78    77    1
    12    87    86   ar
    13    87    89   ar
    14    68    69    1
    15    86    88   ar
    16    89    91   ar
    17    77    76    1
    18    77    80    1
    19    69    70   ar
    20    69    71   ar
    21    88    90   ar
    22    70    72   ar
    23    91    90   ar
    24    91    92    1
    25    71    73   ar
    26    72    74   ar
    27    53    52    2
    28    96    95    2
    29    73    74   ar
    30    93    94    1
    31    74    75    1
    32    99   101   ar
    33    99    98   ar
    34    52    51    1
    35   101   102   ar
    36    51    54    1
    37    51    50    1
    38    95    94    1
    39    95   107   am
    40    94    97    1
    41    97    98    1
    42    98   100   ar
    43    54    55    1
    44   110   109    2
    45   121   119   ar
    46    60    62   ar
    47    60    57   ar
    48   102   100   ar
    49   102   104   ar
    50   108   107    1
    51   108   109    1
    52   108   111    1
    53   107   113    1
    54   109   114   am
    55   118   119    1
    56   118   115    1
    57   100   103   ar
    58    62    63   ar
    59   119   120   ar
    60    55    57   ar
    61    55    56   ar
    62    57    59   ar
    63   104   106   ar
    64   114   115    1
    65   111   112    1
    66   115   116    1
    67   113   112    1
    68   116   117    2
    69    48    49   ar
    70    48    46   ar
    71   103   105   ar
    72    63    61   ar
    73    49    47   ar
    74    56    58   ar
    75    59    61   ar
    76    59    58   ar
    77   106   105   ar
    78    46    43   ar
    79    47    45   ar
    80    43    45   ar
    81    43    41   ar
    82    45    44   ar
    83    35    33   ar
    84    41    40    1
    85    41    42   ar
    86    33    34   ar
    87    33    32    1
    88    44    42   ar
    89    37    40    1
    90    37    38    1
    91    37    36    1
    92    38    39    2
    93    32    31    1
    94    26    24   ar
    95    23    24    1
    96    23    20    1
    97    24    25   ar
    98    31    28    1
    99    18    17   ar
   100    18    16   ar
   101    17    15   ar
   102    20    21    1
   103    20    19    1
   104    27    28    1
   105    27    21   am
   106    28    29    1
   107    21    22    2
   108    16    14   ar
   109    15    14   ar
   110     8     6   am
   111    14    13    1
   112    29    30    2
   113     6     7    2
   114     6     5    1
   115    13    10    1
   116     5     2    1
   117     2     1    1
   118     2     3    1
   119    10     9    1
   120    10    11    1
   121    12    11    2
   122     3     4    2
