@<TRIPOS>MOLECULE
tmp/5bxrB00.pdb
 133 129 0 0 0
SMALL
GASTEIGER

@<TRIPOS>ATOM
      1  N         45.7130   12.8310   50.9480 N.3   160  CYS160     -0.1235
      2  CA        46.3000   12.5130   52.2050 C.3   160  CYS160      0.1677
      3  C         47.4620   13.4620   52.4390 C.2   160  CYS160      0.2270
      4  O         48.5170   13.2960   51.8480 O.2   160  CYS160     -0.2867
      5  CB        46.7370   11.0580   52.1650 C.3   160  CYS160      0.0956
      6  SG        47.0220   10.2390   53.7660 S.3   160  CYS160     -0.0801
      7  N         49.2880   13.8750   54.9420 N.3   162  CYS162     -0.1221
      8  CA        49.4410   13.0500   56.1080 C.3   162  CYS162      0.1808
      9  C         50.8900   12.5810   56.3000 C.2   162  CYS162      0.2601
     10  O         51.5010   12.1190   55.3450 O.2   162  CYS162     -0.2717
     11  CB        48.5220   11.8800   55.9410 C.3   162  CYS162      0.0970
     12  SG        48.8870   10.9030   54.4290 S.3   162  CYS162     -0.0800
     13  N         51.4170   12.7540   57.4900 N.am  163  GLN163     -0.1979
     14  CA        52.8040   12.5110   57.8350 C.3   163  GLN163      0.1601
     15  C         53.6640   13.5780   57.2100 C.2   163  GLN163      0.2287
     16  O         54.3110   14.3780   57.8970 O.2   163  GLN163     -0.2864
     17  CB        53.2730   11.0730   57.5900 C.3   163  GLN163      0.0394
     18  CG        52.3120    9.9790   58.0900 C.3   163  GLN163      0.0908
     19  CD        52.9920    8.6780   58.2440 C.2   163  GLN163      0.2608
     20  OE1       54.0510    8.5800   58.7890 O.2   163  GLN163     -0.2717
     21  NE2       52.3340    7.6430   57.8300 N.am  163  GLN163     -0.0878
     22  N         42.9010   13.7900   54.9780 N.3   189  GLU189     -0.1245
     23  CA        43.6180   13.2080   56.1230 C.3   189  GLU189      0.1567
     24  C         44.8060   14.0830   56.5040 C.2   189  GLU189      0.2260
     25  O         45.6840   14.2750   55.6480 O.2   189  GLU189     -0.2867
     26  CB        43.9860   11.8050   55.8470 C.3   189  GLU189      0.0388
     27  CG        44.6580   11.1580   57.0810 C.3   189  GLU189      0.1160
     28  CD        45.0920    9.7310   56.9480 C.2   189  GLU189      0.3649
     29  OE1       44.7410    9.1290   55.9960 O.co2 189  GLU189     -0.2457
     30  OE2       45.7450    9.2700   57.9890 O.co2 189  GLU189     -0.2457
     31  N         40.0080   13.7090   58.2420 N.3   230  GLU230     -0.1245
     32  CA        40.1800   12.3310   58.7070 C.3   230  GLU230      0.1567
     33  C         41.2890   12.2950   59.6920 C.2   230  GLU230      0.2260
     34  O         42.3680   12.9160   59.5180 O.2   230  GLU230     -0.2867
     35  CB        40.4910   11.3420   57.5760 C.3   230  GLU230      0.0388
     36  CG        40.8380    9.9510   58.1390 C.3   230  GLU230      0.1160
     37  CD        41.3690    8.9610   57.1130 C.2   230  GLU230      0.3649
     38  OE1       41.2080    9.0690   55.8670 O.co2 230  GLU230     -0.2457
     39  OE2       42.0680    8.0490   57.6030 O.co2 230  GLU230     -0.2457
     40  N         42.8990    9.0110   61.1890 N.3   232  ASN232     -0.1240
     41  CA        42.7780    7.6030   61.0110 C.3   232  ASN232      0.1653
     42  C         42.9360    6.8740   62.3670 C.2   232  ASN232      0.2266
     43  O         43.7670    7.2970   63.1610 O.2   232  ASN232     -0.2867
     44  CB        43.8720    7.0730   60.1370 C.3   232  ASN232      0.1155
     45  CG        43.5150    5.7080   59.5460 C.2   232  ASN232      0.2627
     46  OD1       42.5550    5.0310   59.9030 O.2   232  ASN232     -0.2716
     47  ND2       44.2530    5.2920   58.5070 N.am  232  ASN232     -0.0877
     48  N         47.1100    2.9600   61.7100 N.3   236  HIS236     -0.1241
     49  CA        47.7620    4.1860   61.1690 C.3   236  HIS236      0.1621
     50  C         47.8520    5.3750   62.0140 C.2   236  HIS236      0.2264
     51  O         47.8170    6.5020   61.5910 O.2   236  HIS236     -0.2867
     52  CB        47.2100    4.5190   59.7450 C.3   236  HIS236      0.0745
     53  CG        47.5510    3.5020   58.7140 C.ar  236  HIS236      0.0817
     54  ND1       48.8480    3.2490   58.2950 N.ar  236  HIS236     -0.2268
     55  CD2       46.7730    2.6050   58.0440 C.ar  236  HIS236      0.1154
     56  CE1       48.8450    2.3320   57.3410 C.ar  236  HIS236      0.1986
     57  NE2       47.5940    1.9270   57.1650 N.ar  236  HIS236     -0.2212
     58  N         50.4760    6.2210   64.0540 N.3   238  ASN238     -0.1240
     59  CA        51.8310    6.6180   64.4660 C.3   238  ASN238      0.1653
     60  C         52.0540    8.0610   64.7410 C.2   238  ASN238      0.2266
     61  O         52.5970    8.4690   65.7630 O.2   238  ASN238     -0.2867
     62  CB        52.8560    6.1130   63.4240 C.3   238  ASN238      0.1155
     63  CG        52.6770    6.6610   62.0160 C.2   238  ASN238      0.2627
     64  OD1       51.6620    7.1600   61.6010 O.2   238  ASN238     -0.2716
     65  ND2       53.7090    6.5590   61.2990 N.am  238  ASN238     -0.0877
     66  N         41.1240    1.7360   58.2730 N.3   293  ASP293     -0.1225
     67  CA        41.7890    0.7900   57.3610 C.3   293  ASP293      0.1805
     68  C         43.0060    0.2030   58.0200 C.2   293  ASP293      0.2597
     69  O         43.6820    0.8530   58.8600 O.2   293  ASP293     -0.2718
     70  CB        42.2030    1.5940   56.0880 C.3   293  ASP293      0.1424
     71  CG        43.1220    2.6240   56.3250 C.2   293  ASP293      0.3668
     72  OD1       42.8890    3.6170   57.1440 O.co2 293  ASP293     -0.2456
     73  OD2       44.2800    2.6830   55.7540 O.co2 293  ASP293     -0.2456
     74  N         43.2620   -1.0790   57.6840 N.am  294  GLU294     -0.1979
     75  CA        44.5750   -1.6940   57.9180 C.3   294  GLU294      0.1602
     76  C         44.9680   -1.7030   59.3680 C.2   294  GLU294      0.2287
     77  O         46.1450   -1.6130   59.7050 O.2   294  GLU294     -0.2864
     78  CB        45.6160   -0.9490   57.0720 C.3   294  GLU294      0.0415
     79  CG        45.3540   -1.1300   55.5700 C.3   294  GLU294      0.1163
     80  CD        46.5410   -0.6980   54.6840 C.2   294  GLU294      0.3649
     81  OE1       47.3230    0.2520   55.0690 O.co2 294  GLU294     -0.2457
     82  OE2       46.7020   -1.2960   53.5360 O.co2 294  GLU294     -0.2457
     83  N         36.6530    3.7450   55.8740 N.3   346  TRP346     -0.1241
     84  CA        37.0870    2.8060   54.8690 C.3   346  TRP346      0.1605
     85  C         36.4780    1.4330   55.1170 C.2   346  TRP346      0.2264
     86  O         36.2320    1.0960   56.3320 O.2   346  TRP346     -0.2867
     87  CB        38.6240    2.7260   54.9050 C.3   346  TRP346      0.0550
     88  CG        39.3670    3.9710   54.5940 C.ar  346  TRP346      0.0003
     89  CD1       40.2700    4.6680   55.3960 C.ar  346  TRP346      0.0946
     90  CD2       39.2720    4.7690   53.3950 C.ar  346  TRP346      0.0152
     91  NE1       40.7720    5.7480   54.7440 N.ar  346  TRP346     -0.2442
     92  CE2       40.1890    5.8220   53.5050 C.ar  346  TRP346      0.0810
     93  CE3       38.6190    4.6000   52.1750 C.ar  346  TRP346      0.0012
     94  CZ2       40.3970    6.7230   52.5160 C.ar  346  TRP346      0.0191
     95  CZ3       38.8300    5.5480   51.1490 C.ar  346  TRP346      0.0001
     96  CH2       39.7270    6.5880   51.3180 C.ar  346  TRP346      0.0015
     97  N         47.8840    9.4690   47.5050 N.3   438  TRP438     -0.1228
     98  CA        48.5730    8.9780   48.6790 C.3   438  TRP438      0.1722
     99  C         50.0860    9.2730   48.5500 C.2   438  TRP438      0.2437
    100  O         50.6790    9.0510   47.4710 O.2   438  TRP438     -0.2733
    101  CB        48.4290    7.4660   48.7470 C.3   438  TRP438      0.0563
    102  CG        47.0510    6.9950   48.7710 C.ar  438  TRP438      0.0003
    103  CD1       46.3880    6.4020   47.7630 C.ar  438  TRP438      0.0946
    104  CD2       46.1680    7.0760   49.8950 C.ar  438  TRP438      0.0152
    105  NE1       45.1350    6.0560   48.2300 N.ar  438  TRP438     -0.2442
    106  CE2       44.9640    6.4730   49.5230 C.ar  438  TRP438      0.0810
    107  CE3       46.2700    7.5810   51.1730 C.ar  438  TRP438      0.0012
    108  CZ2       43.9010    6.3520   50.4550 C.ar  438  TRP438      0.0191
    109  CZ3       45.2180    7.4130   52.1240 C.ar  438  TRP438      0.0001
    110  CH2       44.0440    6.8350   51.7150 C.ar  438  TRP438      0.0015
    111  N         50.7330    9.6850   49.6490 N.am  439  PRO439     -0.2718
    112  CA        52.1820    9.9700   49.5840 C.3   439  PRO439      0.1535
    113  C         53.0170    8.6960   49.6700 C.2   439  PRO439      0.2598
    114  O         53.9950    8.5670   48.9040 O.2   439  PRO439     -0.2715
    115  CB        52.3660   10.9180   50.7190 C.3   439  PRO439      0.0310
    116  CG        51.3560   10.5450   51.7400 C.3   439  PRO439      0.0237
    117  CD        50.1680   10.0590   50.9510 C.3   439  PRO439      0.0939
    118  N         52.7040    7.8220   50.6500 N.am  440  ASP440     -0.1972
    119  CA        53.5700    6.6400   50.8330 C.3   440  ASP440      0.1709
    120  C         55.0630    7.1060   50.9640 C.2   440  ASP440      0.2293
    121  O         55.3240    8.0670   51.6200 O.2   440  ASP440     -0.2864
    122  CB        53.2660    5.5670   49.8180 C.3   440  ASP440      0.1436
    123  CG        51.8210    4.9970   50.0190 C.2   440  ASP440      0.3671
    124  OD1       51.2400    5.0420   51.1320 O.co2 440  ASP440     -0.2456
    125  OD2       51.2710    4.6340   48.9550 O.co2 440  ASP440     -0.2456
    126  N         57.5930    8.5820   56.5000 N.3   547  LEU547     -0.1245
    127  CA        57.4730    8.3690   55.0880 C.3   547  LEU547      0.1561
    128  C         58.7950    8.7010   54.3190 C.2   547  LEU547      0.2260
    129  O         58.7440    9.1080   53.1350 O.2   547  LEU547     -0.2867
    130  CB        56.2760    9.1140   54.4790 C.3   547  LEU547      0.0270
    131  CG        54.9310    8.7290   55.0490 C.3   547  LEU547      0.0019
    132  CD1       53.8260    9.4630   54.3460 C.3   547  LEU547      0.0001
    133  CD2       54.6180    7.2450   55.0910 C.3   547  LEU547      0.0001
@<TRIPOS>BOND
     1   100    99    2
     2    97    98    1
     3   103   105   ar
     4   103   102   ar
     5   105   106   ar
     6    99    98    1
     7    99   111   am
     8    98   101    1
     9   101   102    1
    10   102   104   ar
    11   114   113    2
    12   125   123   ar
    13   106   104   ar
    14   106   108   ar
    15   112   111    1
    16   112   113    1
    17   112   115    1
    18   111   117    1
    19   113   118   am
    20   122   123    1
    21   122   119    1
    22   104   107   ar
    23   123   124   ar
    24   108   110   ar
    25   118   119    1
    26   115   116    1
    27   119   120    1
    28     1     2    1
    29   117   116    1
    30   120   121    2
    31    95    96   ar
    32    95    93   ar
    33   107   109   ar
    34    96    94   ar
    35   110   109   ar
    36     4     3    2
    37     5     2    1
    38     5     6    1
    39    93    90   ar
    40     2     3    1
    41    94    92   ar
    42   129   128    2
    43    90    92   ar
    44    90    88   ar
    45    92    91   ar
    46    82    80   ar
    47     6    12    1
    48   128   127    1
    49   132   131    1
    50    12    11    1
    51   130   131    1
    52   130   127    1
    53    88    87    1
    54    88    89   ar
    55    80    81   ar
    56    80    79    1
    57    91    89   ar
    58    84    87    1
    59    84    85    1
    60    84    83    1
    61     7     8    1
    62    22    23    1
    63   131   133    1
    64   127   126    1
    65    85    86    2
    66    10     9    2
    67    79    78    1
    68    25    24    2
    69    73    71   ar
    70    26    23    1
    71    26    27    1
    72    38    37   ar
    73    11     8    1
    74    29    28   ar
    75    70    71    1
    76    70    67    1
    77     8     9    1
    78    23    24    1
    79     9    13   am
    80    71    72   ar
    81    28    27    1
    82    28    30   ar
    83    78    75    1
    84    37    39   ar
    85    37    36    1
    86    57    56   ar
    87    57    55   ar
    88    15    14    1
    89    15    16    2
    90    56    54   ar
    91    67    68    1
    92    67    66    1
    93    13    14    1
    94    35    36    1
    95    35    32    1
    96    17    14    1
    97    17    18    1
    98    74    75    1
    99    74    68   am
   100    21    19   am
   101    75    76    1
   102    68    69    2
   103    55    53   ar
   104    18    19    1
   105    31    32    1
   106    19    20    2
   107    54    53   ar
   108    47    45   am
   109    32    33    1
   110    53    52    1
   111    76    77    2
   112    34    33    2
   113    45    46    2
   114    45    44    1
   115    52    49    1
   116    44    41    1
   117    41    40    1
   118    41    42    1
   119    49    48    1
   120    49    50    1
   121    65    63   am
   122    51    50    2
   123    64    63    2
   124    63    62    1
   125    42    43    2
   126    62    59    1
   127    58    59    1
   128    59    60    1
   129    60    61    2
