@<TRIPOS>MOLECULE
tmp/5bxsB01.pdb
 127 127 0 0 0
SMALL
GASTEIGER

@<TRIPOS>ATOM
      1  N         42.6580    8.6810   61.1240 N.3   230  ASN230     -0.1240
      2  CA        42.4390    7.2570   60.9430 C.3   230  ASN230      0.1653
      3  C         42.5780    6.6090   62.2850 C.2   230  ASN230      0.2266
      4  O         43.4460    6.9820   63.0300 O.2   230  ASN230     -0.2867
      5  CB        43.5550    6.7240   60.0860 C.3   230  ASN230      0.1155
      6  CG        43.2070    5.4730   59.4360 C.2   230  ASN230      0.2627
      7  OD1       42.1770    4.8600   59.7380 O.2   230  ASN230     -0.2716
      8  ND2       44.0300    5.0840   58.4650 N.am  230  ASN230     -0.0877
      9  N         46.8660    2.7590   61.8330 N.3   234  HIS234     -0.1241
     10  CA        47.6470    3.8230   61.2420 C.3   234  HIS234      0.1621
     11  C         47.7020    5.0280   62.1050 C.2   234  HIS234      0.2264
     12  O         47.5170    6.0910   61.5860 O.2   234  HIS234     -0.2867
     13  CB        47.0710    4.2330   59.8690 C.3   234  HIS234      0.0745
     14  CG        47.4650    3.2990   58.7530 C.ar  234  HIS234      0.0817
     15  ND1       48.7810    3.1730   58.3110 N.ar  234  HIS234     -0.2268
     16  CD2       46.7370    2.4080   58.0350 C.ar  234  HIS234      0.1154
     17  CE1       48.8320    2.2740   57.3440 C.ar  234  HIS234      0.1986
     18  NE2       47.6160    1.7670   57.1800 N.ar  234  HIS234     -0.2212
     19  N         40.8390    1.5880   58.6240 N.3   291  ASP291     -0.1225
     20  CA        41.5370    0.7460   57.5940 C.3   291  ASP291      0.1805
     21  C         42.8350    0.1840   58.1490 C.2   291  ASP291      0.2597
     22  O         43.5640    0.8620   58.9270 O.2   291  ASP291     -0.2718
     23  CB        41.8850    1.5550   56.2850 C.3   291  ASP291      0.1424
     24  CG        42.9380    2.6480   56.5210 C.2   291  ASP291      0.3668
     25  OD1       42.6960    3.6190   57.3200 O.co2 291  ASP291     -0.2456
     26  OD2       44.0750    2.5780   55.9850 O.co2 291  ASP291     -0.2456
     27  N         43.1260   -1.0640   57.7580 N.am  292  GLU292     -0.1979
     28  CA        44.4170   -1.7180   57.9970 C.3   292  GLU292      0.1602
     29  C         44.8760   -1.7340   59.4730 C.2   292  GLU292      0.2287
     30  O         46.1050   -1.6550   59.7540 O.2   292  GLU292     -0.2864
     31  CB        45.5000   -1.1020   57.0660 C.3   292  GLU292      0.0415
     32  CG        45.2040   -1.2220   55.5440 C.3   292  GLU292      0.1163
     33  CD        46.3020   -0.6270   54.6710 C.2   292  GLU292      0.3649
     34  OE1       47.0370    0.2770   55.1430 O.co2 292  GLU292     -0.2457
     35  OE2       46.4470   -1.0520   53.4940 O.co2 292  GLU292     -0.2457
     36  N         36.3470    3.5620   55.9310 N.3   344  TRP344     -0.1241
     37  CA        36.7430    2.6730   54.8450 C.3   344  TRP344      0.1605
     38  C         36.1430    1.3000   55.0410 C.2   344  TRP344      0.2264
     39  O         35.8030    0.8900   56.1470 O.2   344  TRP344     -0.2867
     40  CB        38.2620    2.5650   54.7790 C.3   344  TRP344      0.0550
     41  CG        38.9940    3.8720   54.6730 C.ar  344  TRP344      0.0003
     42  CD1       39.8310    4.4060   55.6020 C.ar  344  TRP344      0.0946
     43  CD2       39.0520    4.7580   53.5420 C.ar  344  TRP344      0.0152
     44  NE1       40.3720    5.5780   55.1330 N.ar  344  TRP344     -0.2442
     45  CE2       39.9200    5.8090   53.8710 C.ar  344  TRP344      0.0810
     46  CE3       38.4720    4.7550   52.2840 C.ar  344  TRP344      0.0012
     47  CZ2       40.1890    6.8660   53.0060 C.ar  344  TRP344      0.0191
     48  CZ3       38.7170    5.8390   51.4320 C.ar  344  TRP344      0.0001
     49  CH2       39.5830    6.8640   51.7910 C.ar  344  TRP344      0.0015
     50  N         37.0660    0.8030   49.0050 N.3   365  TRP365     -0.1241
     51  CA        38.3440    0.7950   48.2720 C.3   365  TRP365      0.1605
     52  C         38.9480   -0.6080   48.0220 C.2   365  TRP365      0.2264
     53  O         39.6810   -0.7730   47.0810 O.2   365  TRP365     -0.2867
     54  CB        39.3670    1.6810   48.9900 C.3   365  TRP365      0.0550
     55  CG        39.9280    1.0950   50.2910 C.ar  365  TRP365      0.0003
     56  CD1       39.3480    1.1520   51.5260 C.ar  365  TRP365      0.0946
     57  CD2       41.1580    0.3700   50.4690 C.ar  365  TRP365      0.0152
     58  NE1       40.1290    0.5150   52.4490 N.ar  365  TRP365     -0.2442
     59  CE2       41.2450    0.0200   51.8340 C.ar  365  TRP365      0.0810
     60  CE3       42.1990    0.0040   49.6190 C.ar  365  TRP365      0.0012
     61  CZ2       42.3280   -0.6870   52.3650 C.ar  365  TRP365      0.0191
     62  CZ3       43.2780   -0.7090   50.1370 C.ar  365  TRP365      0.0001
     63  CH2       43.3390   -1.0510   51.4960 C.ar  365  TRP365      0.0015
     64  N         43.6180    5.2770   42.4500 N.3   390  TYR390     -0.1241
     65  CA        44.6840    5.6220   43.4030 C.3   390  TYR390      0.1605
     66  C         45.9040    6.1270   42.7070 C.2   390  TYR390      0.2264
     67  O         46.3070    5.5570   41.7000 O.2   390  TYR390     -0.2867
     68  CB        45.0940    4.3680   44.1930 C.3   390  TYR390      0.0534
     69  CG        44.3120    4.0820   45.4030 C.ar  390  TYR390     -0.0201
     70  CD1       43.0700    4.6200   45.5980 C.ar  390  TYR390     -0.0009
     71  CD2       44.7800    3.1800   46.3220 C.ar  390  TYR390     -0.0009
     72  CE1       42.3500    4.3350   46.7160 C.ar  390  TYR390      0.0417
     73  CE2       44.0850    2.8860   47.4500 C.ar  390  TYR390      0.0417
     74  CZ        42.8590    3.4450   47.6460 C.ar  390  TYR390      0.1957
     75  OH        42.1760    3.1970   48.8210 O.3   390  TYR390     -0.2866
     76  N         49.9570    6.7580   44.1700 N.3   392  SER392     -0.1217
     77  CA        50.9790    6.7730   45.2360 C.3   392  SER392      0.1889
     78  C         52.2620    7.3680   44.6820 C.2   392  SER392      0.2288
     79  O         52.6310    7.0870   43.5580 O.2   392  SER392     -0.2866
     80  CB        51.3000    5.3440   45.6670 C.3   392  SER392      0.2089
     81  OG        52.3140    5.3610   46.6530 O.3   392  SER392     -0.2183
     82  N         54.4580    3.6540   45.4320 N.3   395  ALA395     -0.1245
     83  CA        53.8960    2.3750   44.9560 C.3   395  ALA395      0.1562
     84  C         53.4460    2.4580   43.5190 C.2   395  ALA395      0.2260
     85  O         52.3490    2.9680   43.2120 O.2   395  ALA395     -0.2867
     86  CB        52.7270    1.9520   45.8510 C.3   395  ALA395      0.0290
     87  N         50.0980    1.7390   41.9190 N.3   398  TYR398     -0.1241
     88  CA        49.0310    2.7470   41.9830 C.3   398  TYR398      0.1605
     89  C         49.2840    4.0280   41.2140 C.2   398  TYR398      0.2264
     90  O         49.7660    5.0300   41.7650 O.2   398  TYR398     -0.2867
     91  CB        48.8020    3.1430   43.4230 C.3   398  TYR398      0.0534
     92  CG        48.2990    2.0500   44.2640 C.ar  398  TYR398     -0.0201
     93  CD1       47.0860    1.4800   43.9900 C.ar  398  TYR398     -0.0009
     94  CD2       49.0410    1.5490   45.3110 C.ar  398  TYR398     -0.0009
     95  CE1       46.5790    0.4900   44.7470 C.ar  398  TYR398      0.0417
     96  CE2       48.5510    0.5250   46.0840 C.ar  398  TYR398      0.0417
     97  CZ        47.2960    0.0320   45.7880 C.ar  398  TYR398      0.1957
     98  OH        46.7520   -0.9760   46.4930 O.3   398  TYR398     -0.2866
     99  N         47.9180    9.5060   47.5450 N.3   436  TRP436     -0.1228
    100  CA        48.6530    8.9910   48.6850 C.3   436  TRP436      0.1722
    101  C         50.1310    9.2800   48.5530 C.2   436  TRP436      0.2437
    102  O         50.6950    9.0800   47.4830 O.2   436  TRP436     -0.2733
    103  CB        48.5100    7.4780   48.7820 C.3   436  TRP436      0.0563
    104  CG        47.1340    6.9790   48.8430 C.ar  436  TRP436      0.0003
    105  CD1       46.4720    6.3560   47.8320 C.ar  436  TRP436      0.0946
    106  CD2       46.2350    7.0720   49.9350 C.ar  436  TRP436      0.0152
    107  NE1       45.1830    6.0460   48.2290 N.ar  436  TRP436     -0.2442
    108  CE2       45.0230    6.4500   49.5330 C.ar  436  TRP436      0.0810
    109  CE3       46.3390    7.5700   51.2400 C.ar  436  TRP436      0.0012
    110  CZ2       43.9090    6.3930   50.3460 C.ar  436  TRP436      0.0191
    111  CZ3       45.2360    7.4920   52.0790 C.ar  436  TRP436      0.0001
    112  CH2       44.0310    6.8910   51.6240 C.ar  436  TRP436      0.0015
    113  N         50.7810    9.7050   49.6530 N.am  437  PRO437     -0.2718
    114  CA        52.1920    9.9940   49.5330 C.3   437  PRO437      0.1535
    115  C         53.0610    8.7570   49.6920 C.2   437  PRO437      0.2598
    116  O         54.0470    8.6370   49.0030 O.2   437  PRO437     -0.2715
    117  CB        52.4460   10.9670   50.6850 C.3   437  PRO437      0.0310
    118  CG        51.4680   10.5630   51.7370 C.3   437  PRO437      0.0237
    119  CD        50.2530   10.0640   50.9830 C.3   437  PRO437      0.0939
    120  N         52.7030    7.8300   50.5940 N.am  438  ASP438     -0.1972
    121  CA        53.5770    6.6730   50.8870 C.3   438  ASP438      0.1709
    122  C         55.0880    7.1180   50.9870 C.2   438  ASP438      0.2293
    123  O         55.4070    8.1430   51.6520 O.2   438  ASP438     -0.2864
    124  CB        53.3160    5.5760   49.8600 C.3   438  ASP438      0.1436
    125  CG        51.9190    4.9630   50.0080 C.2   438  ASP438      0.3671
    126  OD1       51.3630    4.9760   51.1240 O.co2 438  ASP438     -0.2456
    127  OD2       51.3470    4.5650   48.9880 O.co2 438  ASP438     -0.2456
@<TRIPOS>BOND
     1    89    90    2
     2    89    88    1
     3    67    66    2
     4    87    88    1
     5    88    91    1
     6    64    65    1
     7    66    65    1
     8    85    84    2
     9    65    68    1
    10    91    92    1
    11    84    83    1
    12    79    78    2
    13    93    92   ar
    14    93    95   ar
    15    76    77    1
    16    68    69    1
    17    92    94   ar
    18    78    77    1
    19    95    97   ar
    20    83    82    1
    21    83    86    1
    22    77    80    1
    23    94    96   ar
    24    69    70   ar
    25    69    71   ar
    26    70    72   ar
    27    80    81    1
    28    97    96   ar
    29    97    98    1
    30    71    73   ar
    31    72    74   ar
    32    53    52    2
    33    73    74   ar
    34   102   101    2
    35    99   100    1
    36    74    75    1
    37   105   107   ar
    38   105   104   ar
    39    52    51    1
    40   107   108   ar
    41    51    54    1
    42    51    50    1
    43   101   100    1
    44   101   113   am
    45   100   103    1
    46   103   104    1
    47   104   106   ar
    48   127   125   ar
    49    54    55    1
    50   116   115    2
    51   108   106   ar
    52   108   110   ar
    53   114   113    1
    54   114   115    1
    55   114   117    1
    56    60    62   ar
    57    60    57   ar
    58   113   119    1
    59   115   120   am
    60   124   125    1
    61   124   121    1
    62   106   109   ar
    63   125   126   ar
    64    62    63   ar
    65    55    57   ar
    66    55    56   ar
    67   110   112   ar
    68    57    59   ar
    69   120   121    1
    70   117   118    1
    71   121   122    1
    72   119   118    1
    73   122   123    2
    74   109   111   ar
    75    48    49   ar
    76    48    46   ar
    77    63    61   ar
    78    56    58   ar
    79   112   111   ar
    80    49    47   ar
    81    59    61   ar
    82    59    58   ar
    83    46    43   ar
    84    47    45   ar
    85    35    33   ar
    86    43    45   ar
    87    43    41   ar
    88    45    44   ar
    89    33    34   ar
    90    33    32    1
    91    41    40    1
    92    41    42   ar
    93    40    37    1
    94    37    38    1
    95    37    36    1
    96    38    39    2
    97    44    42   ar
    98    32    31    1
    99    26    24   ar
   100    23    24    1
   101    23    20    1
   102    24    25   ar
   103    31    28    1
   104    18    17   ar
   105    18    16   ar
   106    17    15   ar
   107    20    21    1
   108    20    19    1
   109    27    28    1
   110    27    21   am
   111    28    29    1
   112    16    14   ar
   113    21    22    2
   114    15    14   ar
   115     8     6   am
   116    14    13    1
   117     6     7    2
   118     6     5    1
   119    29    30    2
   120    13    10    1
   121     5     2    1
   122     2     1    1
   123     2     3    1
   124    10     9    1
   125    10    11    1
   126    12    11    2
   127     3     4    2
