@<TRIPOS>MOLECULE
tmp/5bxtA00.pdb
 127 127 0 0 0
SMALL
GASTEIGER

@<TRIPOS>ATOM
      1  N         72.9710   10.6060   -6.2520 N.3   230  ASN230     -0.1240
      2  CA        73.2950    9.2030   -6.1160 C.3   230  ASN230      0.1653
      3  C         73.2480    8.5450   -7.5020 C.2   230  ASN230      0.2266
      4  O         72.3030    8.7800   -8.2590 O.2   230  ASN230     -0.2867
      5  CB        72.3050    8.5070   -5.2240 C.3   230  ASN230      0.1155
      6  CG        72.8310    7.2430   -4.6320 C.2   230  ASN230      0.2627
      7  OD1       73.8730    6.6720   -5.0150 O.2   230  ASN230     -0.2716
      8  ND2       72.0600    6.7360   -3.6580 N.am  230  ASN230     -0.0877
      9  N         69.5300    4.1660   -7.0160 N.3   234  HIS234     -0.1241
     10  CA        68.7130    5.2160   -6.4210 C.3   234  HIS234      0.1621
     11  C         68.4940    6.4130   -7.2950 C.2   234  HIS234      0.2264
     12  O         68.4050    7.5240   -6.8190 O.2   234  HIS234     -0.2867
     13  CB        69.2740    5.6030   -5.0250 C.3   234  HIS234      0.0745
     14  CG        69.0250    4.5710   -3.9740 C.ar  234  HIS234      0.0817
     15  ND1       67.7460    4.2500   -3.5400 N.ar  234  HIS234     -0.2268
     16  CD2       69.8770    3.7690   -3.2780 C.ar  234  HIS234      0.1154
     17  CE1       67.8250    3.2850   -2.6310 C.ar  234  HIS234      0.1986
     18  NE2       69.1050    2.9900   -2.4350 N.ar  234  HIS234     -0.2212
     19  N         75.7240    3.6580   -3.5850 N.3   291  ASP291     -0.1225
     20  CA        75.1150    2.6520   -2.6630 C.3   291  ASP291      0.1805
     21  C         73.9710    1.9580   -3.3300 C.2   291  ASP291      0.2597
     22  O         73.2030    2.5780   -4.1280 O.2   291  ASP291     -0.2718
     23  CB        74.6060    3.2820   -1.3090 C.3   291  ASP291      0.1424
     24  CG        73.5200    4.3160   -1.5010 C.2   291  ASP291      0.3668
     25  OD1       73.7620    5.3160   -2.2200 O.co2 291  ASP291     -0.2456
     26  OD2       72.3760    4.1850   -0.9320 O.co2 291  ASP291     -0.2456
     27  N         73.8420    0.6680   -3.0280 N.am  292  GLU292     -0.1979
     28  CA        72.5640   -0.0850   -3.2160 C.3   292  GLU292      0.1602
     29  C         72.1580   -0.1020   -4.6650 C.2   292  GLU292      0.2287
     30  O         70.9590   -0.1510   -4.9690 O.2   292  GLU292     -0.2864
     31  CB        71.4110    0.4570   -2.3350 C.3   292  GLU292      0.0415
     32  CG        71.5970    0.1990   -0.8570 C.3   292  GLU292      0.1163
     33  CD        70.4570    0.5900   -0.0010 C.2   292  GLU292      0.3649
     34  OE1       69.5710    1.4620   -0.3690 O.co2 292  GLU292     -0.2457
     35  OE2       70.4020   -0.0330    1.0760 O.co2 292  GLU292     -0.2457
     36  N         79.8440    6.1240   -0.9170 N.3   344  TRP344     -0.1241
     37  CA        79.5380    5.1970    0.0870 C.3   344  TRP344      0.1605
     38  C         80.3070    3.8350   -0.0840 C.2   344  TRP344      0.2264
     39  O         80.6030    3.4380   -1.2120 O.2   344  TRP344     -0.2867
     40  CB        78.0500    4.8960    0.0960 C.3   344  TRP344      0.0550
     41  CG        77.1470    6.0990    0.3310 C.ar  344  TRP344      0.0003
     42  CD1       76.2240    6.6240   -0.5470 C.ar  344  TRP344      0.0946
     43  CD2       77.0380    6.8720    1.5140 C.ar  344  TRP344      0.0152
     44  NE1       75.6080    7.6670    0.0060 N.ar  344  TRP344     -0.2442
     45  CE2       76.0870    7.8520    1.2740 C.ar  344  TRP344      0.0810
     46  CE3       77.7210    6.9100    2.7090 C.ar  344  TRP344      0.0012
     47  CZ2       75.7460    8.7850    2.2220 C.ar  344  TRP344      0.0191
     48  CZ3       77.3370    7.8180    3.6960 C.ar  344  TRP344      0.0001
     49  CH2       76.3800    8.7460    3.4250 C.ar  344  TRP344      0.0015
     50  N         79.3880    3.2030    5.9650 N.3   365  TRP365     -0.1241
     51  CA        78.1640    3.0100    6.6910 C.3   365  TRP365      0.1605
     52  C         77.7810    1.5430    6.8550 C.2   365  TRP365      0.2264
     53  O         77.0200    1.1940    7.7630 O.2   365  TRP365     -0.2867
     54  CB        77.0410    3.7280    5.9440 C.3   365  TRP365      0.0550
     55  CG        76.5900    3.0870    4.6630 C.ar  365  TRP365      0.0003
     56  CD1       77.1330    3.2380    3.4510 C.ar  365  TRP365      0.0946
     57  CD2       75.4160    2.2590    4.4860 C.ar  365  TRP365      0.0152
     58  NE1       76.4230    2.5010    2.5060 N.ar  365  TRP365     -0.2442
     59  CE2       75.3460    1.9290    3.1130 C.ar  365  TRP365      0.0810
     60  CE3       74.4600    1.7150    5.3730 C.ar  365  TRP365      0.0012
     61  CZ2       74.3930    1.0900    2.6050 C.ar  365  TRP365      0.0191
     62  CZ3       73.4620    0.8780    4.8570 C.ar  365  TRP365      0.0001
     63  CH2       73.4220    0.5920    3.4760 C.ar  365  TRP365      0.0015
     64  N         72.4540    6.9770   12.4180 N.3   390  TYR390     -0.1241
     65  CA        71.2520    7.1830   11.5580 C.3   390  TYR390      0.1605
     66  C         69.9860    7.5060   12.3070 C.2   390  TYR390      0.2264
     67  O         69.6320    6.8670   13.3340 O.2   390  TYR390     -0.2867
     68  CB        70.9590    5.9080   10.7580 C.3   390  TYR390      0.0534
     69  CG        71.8270    5.6710    9.5400 C.ar  390  TYR390     -0.0201
     70  CD1       73.1040    6.2670    9.3890 C.ar  390  TYR390     -0.0009
     71  CD2       71.3880    4.8520    8.5390 C.ar  390  TYR390     -0.0009
     72  CE1       73.8850    6.0300    8.2390 C.ar  390  TYR390      0.0417
     73  CE2       72.1280    4.5990    7.3880 C.ar  390  TYR390      0.0417
     74  CZ        73.3890    5.1870    7.2250 C.ar  390  TYR390      0.1957
     75  OH        74.1020    5.0120    6.0330 O.3   390  TYR390     -0.2866
     76  N         65.8820    7.7180   10.6950 N.3   392  SER392     -0.1217
     77  CA        64.9320    7.5950    9.5980 C.3   392  SER392      0.1889
     78  C         63.5710    8.0140   10.1080 C.2   392  SER392      0.2288
     79  O         63.2360    7.7030   11.2560 O.2   392  SER392     -0.2866
     80  CB        64.8750    6.1430    9.1380 C.3   392  SER392      0.2089
     81  OG        63.8130    5.9380    8.1980 O.3   392  SER392     -0.2183
     82  N         61.9340    4.0670    9.5280 N.3   395  ALA395     -0.1245
     83  CA        62.6690    2.8750    9.9310 C.3   395  ALA395      0.1562
     84  C         63.1280    3.0500   11.3860 C.2   395  ALA395      0.2260
     85  O         64.1550    3.6670   11.6590 O.2   395  ALA395     -0.2867
     86  CB        63.7900    2.5660    8.9890 C.3   395  ALA395      0.0290
     87  N         66.4800    2.7830   13.0130 N.3   398  TYR398     -0.1241
     88  CA        67.4440    3.9080   12.8600 C.3   398  TYR398      0.1605
     89  C         66.9960    5.1120   13.6770 C.2   398  TYR398      0.2264
     90  O         66.2910    5.9930   13.1570 O.2   398  TYR398     -0.2867
     91  CB        67.5700    4.2540   11.4020 C.3   398  TYR398      0.0534
     92  CG        68.2350    3.1980   10.5650 C.ar  398  TYR398     -0.0201
     93  CD1       69.4170    2.6070   10.9310 C.ar  398  TYR398     -0.0009
     94  CD2       67.6020    2.7080    9.4690 C.ar  398  TYR398     -0.0009
     95  CE1       70.0040    1.6090   10.1810 C.ar  398  TYR398      0.0417
     96  CE2       68.1400    1.6900    8.7350 C.ar  398  TYR398      0.0417
     97  CZ        69.3720    1.1800    9.0800 C.ar  398  TYR398      0.1957
     98  OH        69.8780    0.1870    8.3020 O.3   398  TYR398     -0.2866
     99  N         67.6940   10.6550    7.3090 N.3   436  TRP436     -0.1228
    100  CA        67.0820   10.0240    6.1610 C.3   436  TRP436      0.1722
    101  C         65.5310   10.1500    6.2760 C.2   436  TRP436      0.2437
    102  O         64.9390    9.9700    7.3830 O.2   436  TRP436     -0.2733
    103  CB        67.3910    8.5460    6.1090 C.3   436  TRP436      0.0563
    104  CG        68.8210    8.2000    6.0670 C.ar  436  TRP436      0.0003
    105  CD1       69.5580    7.7100    7.0750 C.ar  436  TRP436      0.0946
    106  CD2       69.6900    8.3900    4.9930 C.ar  436  TRP436      0.0152
    107  NE1       70.8410    7.5070    6.6770 N.ar  436  TRP436     -0.2442
    108  CE2       70.9680    7.9200    5.3960 C.ar  436  TRP436      0.0810
    109  CE3       69.5390    8.8710    3.7010 C.ar  436  TRP436      0.0012
    110  CZ2       72.0740    7.9500    4.5750 C.ar  436  TRP436      0.0191
    111  CZ3       70.6710    8.8690    2.8300 C.ar  436  TRP436      0.0001
    112  CH2       71.9090    8.4140    3.2760 C.ar  436  TRP436      0.0015
    113  N         64.8660   10.4400    5.1420 N.am  437  PRO437     -0.2718
    114  CA        63.3960   10.6000    5.1850 C.3   437  PRO437      0.1535
    115  C         62.6710    9.2550    5.1300 C.2   437  PRO437      0.2598
    116  O         61.8140    9.0510    5.9040 O.2   437  PRO437     -0.2715
    117  CB        63.0970   11.5090    3.9990 C.3   437  PRO437      0.0310
    118  CG        64.2610   11.3100    3.0640 C.3   437  PRO437      0.0237
    119  CD        65.4520   10.7790    3.8380 C.3   437  PRO437      0.0939
    120  N         63.0740    8.3940    4.2150 N.am  438  ASP438     -0.1972
    121  CA        62.4130    7.0700    3.9800 C.3   438  ASP438      0.1709
    122  C         60.9050    7.3260    3.8610 C.2   438  ASP438      0.2293
    123  O         60.5410    8.3140    3.2570 O.2   438  ASP438     -0.2864
    124  CB        62.8480    6.0840    4.9930 C.3   438  ASP438      0.1436
    125  CG        64.3320    5.7300    4.8700 C.2   438  ASP438      0.3671
    126  OD1       64.9550    5.8300    3.7590 O.co2 438  ASP438     -0.2456
    127  OD2       64.9580    5.4680    5.9350 O.co2 438  ASP438     -0.2456
@<TRIPOS>BOND
     1     4     3    2
     2     3     2    1
     3    11    12    2
     4    11    10    1
     5     9    10    1
     6    10    13    1
     7     1     2    1
     8     2     5    1
     9     5     6    1
    10    13    14    1
    11     7     6    2
    12    30    29    2
    13    29    28    1
    14     6     8   am
    15    22    21    2
    16    14    15   ar
    17    14    16   ar
    18    19    20    1
    19    15    17   ar
    20    21    27   am
    21    21    20    1
    22    16    18   ar
    23    28    27    1
    24    28    31    1
    25    20    23    1
    26    17    18   ar
    27    31    32    1
    28    25    24   ar
    29    24    23    1
    30    24    26   ar
    31    39    38    2
    32    36    37    1
    33    32    33    1
    34    42    44   ar
    35    42    41   ar
    36    34    33   ar
    37    38    37    1
    38    33    35   ar
    39    44    45   ar
    40    37    40    1
    41    40    41    1
    42    41    43   ar
    43    45    43   ar
    44    45    47   ar
    45    43    46   ar
    46    47    49   ar
    47    58    59   ar
    48    58    56   ar
    49    61    59   ar
    50    61    63   ar
    51    46    48   ar
    52   111   112   ar
    53   111   109   ar
    54   118   119    1
    55   118   117    1
    56    59    57   ar
    57   123   122    2
    58   112   110   ar
    59    49    48   ar
    60    56    55   ar
    61    63    62   ar
    62   109   106   ar
    63   126   125   ar
    64   119   113    1
    65   122   121    1
    66   121   120    1
    67   121   124    1
    68   117   114    1
    69   120   115   am
    70    57    55   ar
    71    57    60   ar
    72   110   108   ar
    73    55    54    1
    74    62    60   ar
    75   125   124    1
    76   125   127   ar
    77   106   108   ar
    78   106   104   ar
    79   115   114    1
    80   115   116    2
    81   113   114    1
    82   113   101   am
    83   108   107   ar
    84    54    51    1
    85    50    51    1
    86    75    74    1
    87   104   103    1
    88   104   105   ar
    89   103   100    1
    90   100   101    1
    91   100    99    1
    92   101   102    2
    93   107   105   ar
    94    51    52    1
    95    52    53    2
    96    74    73   ar
    97    74    72   ar
    98    73    71   ar
    99    81    80    1
   100    72    70   ar
   101    98    97    1
   102    71    69   ar
   103    96    97   ar
   104    96    94   ar
   105    86    83    1
   106    97    95   ar
   107    80    77    1
   108    70    69   ar
   109    94    92   ar
   110    82    83    1
   111    69    68    1
   112    77    78    1
   113    77    76    1
   114    83    84    1
   115    78    79    2
   116    95    93   ar
   117    92    93   ar
   118    92    91    1
   119    68    65    1
   120    84    85    2
   121    91    88    1
   122    65    66    1
   123    65    64    1
   124    66    67    2
   125    88    87    1
   126    88    89    1
   127    90    89    2
