@<TRIPOS>MOLECULE
tmp/5bxuA00.pdb
 197 190 0 0 0
SMALL
GASTEIGER

@<TRIPOS>ATOM
      1  N         11.7320   -3.0900  -25.3870 N.3    36  ASP36      -0.1239
      2  CA        13.0120   -2.8450  -24.6680 C.3    36  ASP36       0.1674
      3  C         13.3370   -4.1510  -23.9450 C.2    36  ASP36       0.2266
      4  O         13.0200   -4.3270  -22.7910 O.2    36  ASP36      -0.2867
      5  CB        12.8200   -1.6810  -23.7170 C.3    36  ASP36       0.1410
      6  CG        14.0200   -1.2370  -23.0030 C.2    36  ASP36       0.3668
      7  OD1       15.1220   -1.3260  -23.6310 O.co2  36  ASP36      -0.2456
      8  OD2       13.9190   -0.8550  -21.8580 O.co2  36  ASP36      -0.2456
      9  N         15.1220   -4.0520  -20.4420 N.3    39  GLY39      -0.1210
     10  CA        14.4270   -3.3370  -19.3760 C.3    39  GLY39       0.1956
     11  C         13.2680   -4.2350  -18.9400 C.2    39  GLY39       0.2611
     12  O         13.4610   -5.3740  -18.4980 O.2    39  GLY39      -0.2717
     13  N         12.0410   -3.7860  -19.1930 N.am   40  ARG40      -0.1979
     14  CA        10.8170   -4.5350  -18.8870 C.3    40  ARG40       0.1597
     15  C          9.9290   -4.6400  -20.0870 C.2    40  ARG40       0.2287
     16  O          8.7100   -4.8160  -19.9480 O.2    40  ARG40      -0.2864
     17  CB        10.0980   -3.8900  -17.7240 C.3    40  ARG40       0.0334
     18  CG         9.7650   -2.4460  -17.8880 C.3    40  ARG40       0.0492
     19  CD         8.9970   -1.8980  -16.7120 C.3    40  ARG40       0.2205
     20  NE         7.6470   -2.5200  -16.6100 N.pl3  40  ARG40      -0.0865
     21  CZ         7.2090   -3.4070  -15.7250 C.cat  40  ARG40       0.5346
     22  NH1        8.1000   -3.9250  -14.8160 N.pl3  40  ARG40       0.1354
     23  NH2        5.9620   -3.8600  -15.8110 N.pl3  40  ARG40       0.1354
     24  N          9.0930   -2.5490  -22.4310 N.3    42  SER42      -0.1217
     25  CA         8.3360   -1.4100  -22.8660 C.3    42  SER42       0.1889
     26  C          8.4690   -1.1970  -24.3590 C.2    42  SER42       0.2288
     27  O          9.5720   -1.3070  -24.9510 O.2    42  SER42      -0.2866
     28  CB         8.7150   -0.1760  -22.1890 C.3    42  SER42       0.2089
     29  OG         8.3350   -0.1920  -20.8340 O.3    42  SER42      -0.2183
     30  N          4.8710    2.8290  -24.6570 N.3    46  HIS46      -0.1226
     31  CA         4.9500    2.7430  -23.1730 C.3    46  HIS46       0.1752
     32  C          5.8480    3.8630  -22.6690 C.2    46  HIS46       0.2596
     33  O          5.5880    4.5540  -21.6890 O.2    46  HIS46      -0.2718
     34  CB         5.4730    1.4690  -22.6430 C.3    46  HIS46       0.0759
     35  CG         4.6160    0.2750  -22.7750 C.ar   46  HIS46       0.0818
     36  ND1        3.7180   -0.1590  -21.8100 N.ar   46  HIS46      -0.2268
     37  CD2        4.5900   -0.6440  -23.7440 C.ar   46  HIS46       0.1154
     38  CE1        3.1710   -1.2920  -22.2300 C.ar   46  HIS46       0.1986
     39  NE2        3.6720   -1.5800  -23.4210 N.ar   46  HIS46      -0.2212
     40  N          7.0510    3.9910  -23.3010 N.am   47  PHE47      -0.1976
     41  CA         7.9950    5.0080  -22.8480 C.3    47  PHE47       0.1639
     42  C          7.4660    6.4380  -22.9980 C.2    47  PHE47       0.2290
     43  O          7.5870    7.2800  -22.1460 O.2    47  PHE47      -0.2864
     44  CB         9.3480    4.8800  -23.5420 C.3    47  PHE47       0.0560
     45  CG        10.2800    3.8770  -22.9540 C.ar   47  PHE47      -0.0200
     46  CD1       10.7140    4.0630  -21.6730 C.ar   47  PHE47      -0.0042
     47  CD2       10.7470    2.7710  -23.6540 C.ar   47  PHE47      -0.0042
     48  CE1       11.6880    3.1860  -21.0780 C.ar   47  PHE47      -0.0003
     49  CE2       11.6790    1.8740  -23.0640 C.ar   47  PHE47      -0.0003
     50  CZ        12.0620    2.0840  -21.7890 C.ar   47  PHE47      -0.0000
     51  N          4.7330    7.0690  -20.4650 N.3    50  GLY50      -0.1210
     52  CA         5.2350    7.1780  -19.0930 C.3    50  GLY50       0.1956
     53  C          6.0230    8.4660  -18.8310 C.2    50  GLY50       0.2611
     54  O          6.0620    8.9520  -17.7000 O.2    50  GLY50      -0.2717
     55  N          6.7430    8.9260  -19.8440 N.am   51  TYR51      -0.1976
     56  CA         7.5860   10.0670  -19.7210 C.3    51  TYR51       0.1639
     57  C          6.9290   11.3200  -20.2630 C.2    51  TYR51       0.2290
     58  O          7.5490   12.4160  -20.3250 O.2    51  TYR51      -0.2864
     59  CB         8.9330    9.8520  -20.4420 C.3    51  TYR51       0.0560
     60  CG         9.8670    8.9960  -19.6490 C.ar   51  TYR51      -0.0198
     61  CD1        9.8810    7.6100  -19.7370 C.ar   51  TYR51      -0.0009
     62  CD2       10.7760    9.5690  -18.7880 C.ar   51  TYR51      -0.0009
     63  CE1       10.7420    6.8020  -18.9530 C.ar   51  TYR51       0.0417
     64  CE2       11.6390    8.7840  -18.0220 C.ar   51  TYR51       0.0417
     65  CZ        11.6050    7.3880  -18.0990 C.ar   51  TYR51       0.1957
     66  OH        12.4850    6.6700  -17.3100 O.3    51  TYR51      -0.2866
     67  N          3.6540   -4.7950  -21.5140 N.3    71  ASP71      -0.1225
     68  CA         5.0640   -4.9550  -21.0770 C.3    71  ASP71       0.1805
     69  C          5.1930   -6.2630  -20.2550 C.2    71  ASP71       0.2597
     70  O          4.2330   -7.0470  -20.1460 O.2    71  ASP71      -0.2718
     71  CB         5.5720   -3.7360  -20.3750 C.3    71  ASP71       0.1424
     72  CG         5.0430   -3.5320  -18.9720 C.2    71  ASP71       0.3668
     73  OD1        4.3020   -4.3870  -18.4400 O.co2  71  ASP71      -0.2456
     74  OD2        5.3750   -2.5130  -18.3360 O.co2  71  ASP71      -0.2456
     75  N          6.3530   -6.4620  -19.6490 N.am   72  LYS72      -0.1979
     76  CA         6.5360   -7.7380  -18.9370 C.3    72  LYS72       0.1596
     77  C          5.5370   -8.0220  -17.7860 C.2    72  LYS72       0.2287
     78  O          5.2670   -9.1970  -17.4920 O.2    72  LYS72      -0.2864
     79  CB         7.9650   -7.8240  -18.4070 C.3    72  LYS72       0.0298
     80  CG         8.2850   -6.9120  -17.2450 C.3    72  LYS72       0.0038
     81  CD         9.7130   -7.1570  -16.8060 C.3    72  LYS72       0.0206
     82  CE         9.9620   -6.6290  -15.4000 C.3    72  LYS72       0.1093
     83  NZ         8.9430   -7.1770  -14.4320 N.3    72  LYS72      -0.1314
     84  N          1.3850   -4.3780  -18.1710 N.3    75  LEU75      -0.1245
     85  CA         0.9840   -2.9740  -18.2500 C.3    75  LEU75       0.1561
     86  C          0.8330   -2.6190  -19.7060 C.2    75  LEU75       0.2260
     87  O          1.6820   -2.9390  -20.5280 O.2    75  LEU75      -0.2867
     88  CB         1.9970   -2.0220  -17.6210 C.3    75  LEU75       0.0270
     89  CG         2.2810   -2.1120  -16.1880 C.3    75  LEU75       0.0019
     90  CD1        3.2300   -0.9620  -15.7800 C.3    75  LEU75       0.0001
     91  CD2        1.1240   -1.9810  -15.3160 C.3    75  LEU75       0.0001
     92  N         -1.6700    2.3900  -18.4770 N.3    79  HIS79      -0.1226
     93  CA        -1.1730    2.2480  -17.0860 C.3    79  HIS79       0.1752
     94  C         -0.0490    3.2540  -16.8300 C.2    79  HIS79       0.2596
     95  O         -0.0440    3.9020  -15.7720 O.2    79  HIS79      -0.2718
     96  CB        -0.6300    0.8610  -16.7690 C.3    79  HIS79       0.0759
     97  CG        -1.6590   -0.2140  -16.6780 C.ar   79  HIS79       0.0818
     98  ND1       -2.4310   -0.5080  -15.5440 N.ar   79  HIS79      -0.2268
     99  CD2       -1.9160   -1.1670  -17.5630 C.ar   79  HIS79       0.1154
    100  CE1       -3.1150   -1.6310  -15.7880 C.ar   79  HIS79       0.1986
    101  NE2       -2.8320   -2.0170  -17.0210 N.ar   79  HIS79      -0.2212
    102  N          0.9140    3.3020  -17.7610 N.am   80  ASN80      -0.1974
    103  CA         2.0780    4.1760  -17.5420 C.3    80  ASN80       0.1688
    104  C          1.6410    5.6040  -17.4350 C.2    80  ASN80       0.2292
    105  O          2.1030    6.2900  -16.5450 O.2    80  ASN80      -0.2864
    106  CB         3.1050    4.0400  -18.7110 C.3    80  ASN80       0.1181
    107  CG         3.6290    2.6470  -18.9170 C.2    80  ASN80       0.2629
    108  OD1        4.8740    2.3340  -18.6140 O.2    80  ASN80      -0.2716
    109  ND2        2.7910    1.8030  -19.3730 N.am   80  ASN80      -0.0877
    110  N         -0.1240    6.0820  -13.9630 N.3    83  SER83      -0.1202
    111  CA         0.8000    5.9900  -12.8250 C.3    83  SER83       0.2020
    112  C          1.4920    7.3190  -12.6120 C.2    83  SER83       0.2618
    113  O          1.6260    7.8440  -11.4860 O.2    83  SER83      -0.2717
    114  CB         1.8360    4.9050  -13.0990 C.3    83  SER83       0.2103
    115  OG         1.2300    3.6430  -13.0840 O.3    83  SER83      -0.2182
    116  N          1.9640    7.8780  -13.7160 N.am   84  TYR84      -0.1975
    117  CA         2.8300    9.0520  -13.6500 C.3    84  TYR84       0.1639
    118  C          2.1300   10.3410  -13.8190 C.2    84  TYR84       0.2290
    119  O          2.7760   11.4010  -13.8370 O.2    84  TYR84      -0.2864
    120  CB         4.0690    8.8580  -14.5940 C.3    84  TYR84       0.0560
    121  CG         4.8710    7.6350  -14.1750 C.ar   84  TYR84      -0.0198
    122  CD1        5.6030    7.6910  -12.9840 C.ar   84  TYR84      -0.0009
    123  CD2        4.8910    6.4620  -14.8360 C.ar   84  TYR84      -0.0009
    124  CE1        6.3080    6.5920  -12.5510 C.ar   84  TYR84       0.0417
    125  CE2        5.5550    5.3440  -14.4300 C.ar   84  TYR84       0.0417
    126  CZ         6.2780    5.3950  -13.2430 C.ar   84  TYR84       0.1957
    127  OH         6.9680    4.2740  -12.7960 O.3    84  TYR84      -0.2866
    128  N         -0.0460   11.7250  -16.2470 N.3    86  HIS86      -0.1241
    129  CA         0.0170   12.4610  -17.5040 C.3    86  HIS86       0.1621
    130  C         -1.3460   12.4570  -18.1900 C.2    86  HIS86       0.2264
    131  O         -1.7200   11.5630  -18.8910 O.2    86  HIS86      -0.2867
    132  CB         1.1070   11.8280  -18.3890 C.3    86  HIS86       0.0745
    133  CG         2.4350   11.8000  -17.7280 C.ar   86  HIS86       0.0817
    134  ND1        2.9280   12.8420  -16.9600 N.ar   86  HIS86      -0.2268
    135  CD2        3.3910   10.8540  -17.7330 C.ar   86  HIS86       0.1154
    136  CE1        4.1150   12.5020  -16.4940 C.ar   86  HIS86       0.1986
    137  NE2        4.4080   11.2790  -16.9200 N.ar   86  HIS86      -0.2212
    138  N         -3.5290   -5.4700  -15.5550 N.3   104  ASP104     -0.1239
    139  CA        -2.2180   -6.0920  -15.6890 C.3   104  ASP104      0.1674
    140  C         -2.2140   -7.4960  -15.0790 C.2   104  ASP104      0.2266
    141  O         -3.2560   -8.0480  -14.7330 O.2   104  ASP104     -0.2867
    142  CB        -1.1380   -5.1350  -15.0930 C.3   104  ASP104      0.1410
    143  CG        -1.0300   -5.2000  -13.5960 C.2   104  ASP104      0.3668
    144  OD1       -1.8530   -5.8770  -12.9460 O.co2 104  ASP104     -0.2456
    145  OD2       -0.1240   -4.5260  -13.1010 O.co2 104  ASP104     -0.2456
    146  N         -1.4240   -8.5680  -12.3310 N.3   106  TRP106     -0.1241
    147  CA        -1.7800   -8.4780  -10.8980 C.3   106  TRP106      0.1605
    148  C         -3.1940   -7.9140  -10.7710 C.2   106  TRP106      0.2264
    149  O         -3.6520   -7.6480   -9.6660 O.2   106  TRP106     -0.2867
    150  CB        -0.8030   -7.6210  -10.1210 C.3   106  TRP106      0.0550
    151  CG         0.5790   -8.2760   -9.9300 C.ar  106  TRP106      0.0003
    152  CD1        1.4320   -8.7170  -10.9290 C.ar  106  TRP106      0.0946
    153  CD2        1.2270   -8.5730   -8.6910 C.ar  106  TRP106      0.0152
    154  NE1        2.5860   -9.2510  -10.3540 N.ar  106  TRP106     -0.2442
    155  CE2        2.4820   -9.1280   -8.9910 C.ar  106  TRP106      0.0810
    156  CE3        0.9030   -8.3420   -7.3600 C.ar  106  TRP106      0.0012
    157  CZ2        3.3660   -9.5480   -7.9940 C.ar  106  TRP106      0.0191
    158  CZ3        1.8140   -8.7110   -6.3820 C.ar  106  TRP106      0.0001
    159  CH2        3.0220   -9.3080   -6.7160 C.ar  106  TRP106      0.0015
    160  N         -4.2460   -5.0320  -11.5680 N.3   108  PHE108     -0.1241
    161  CA        -4.2840   -3.6090  -11.3520 C.3   108  PHE108      0.1605
    162  C         -4.7760   -2.9720  -12.6500 C.2   108  PHE108      0.2264
    163  O         -4.2420   -3.2370  -13.7600 O.2   108  PHE108     -0.2867
    164  CB        -2.8980   -3.0900  -11.0420 C.3   108  PHE108      0.0534
    165  CG        -2.4160   -3.2540   -9.6200 C.ar  108  PHE108     -0.0203
    166  CD1       -2.2590   -4.5050   -9.0570 C.ar  108  PHE108     -0.0042
    167  CD2       -2.1470   -2.1180   -8.9070 C.ar  108  PHE108     -0.0042
    168  CE1       -1.7400   -4.6290   -7.7600 C.ar  108  PHE108     -0.0003
    169  CE2       -1.6510   -2.2490   -7.5700 C.ar  108  PHE108     -0.0003
    170  CZ        -1.4880   -3.4930   -7.0950 C.ar  108  PHE108     -0.0000
    171  N         -3.7190    2.3690  -10.4130 N.3   113  GLU113     -0.1245
    172  CA        -2.4460    3.1120  -10.5020 C.3   113  GLU113      0.1567
    173  C         -2.5960    4.5750  -10.1410 C.2   113  GLU113      0.2260
    174  O         -1.8180    5.1200   -9.3650 O.2   113  GLU113     -0.2867
    175  CB        -1.8380    2.9630  -11.8980 C.3   113  GLU113      0.0388
    176  CG        -1.1680    1.6170  -12.1360 C.3   113  GLU113      0.1160
    177  CD         0.2910    1.6310  -11.6390 C.2   113  GLU113      0.3649
    178  OE1        0.6420    2.4350  -10.7310 O.co2 113  GLU113     -0.2457
    179  OE2        1.0960    0.8420  -12.1590 O.co2 113  GLU113     -0.2457
    180  N         -1.0490    6.3900   -6.6770 N.3   117  LYS117     -0.1245
    181  CA        -0.0740    7.4390   -6.9140 C.3   117  LYS117      0.1561
    182  C         -0.6290    8.7950   -6.6430 C.2   117  LYS117      0.2260
    183  O          0.0780    9.7580   -6.8290 O.2   117  LYS117     -0.2867
    184  CB         0.4770    7.2850   -8.3370 C.3   117  LYS117      0.0271
    185  CG         1.1740    5.9520   -8.6150 C.3   117  LYS117      0.0035
    186  CD         2.5440    5.9250   -7.9450 C.3   117  LYS117      0.0206
    187  CE         3.7050    5.4670   -8.7610 C.3   117  LYS117      0.1093
    188  NZ         3.9880    6.3630   -9.9180 N.3   117  LYS117     -0.1314
    189  N         -3.1300   10.6310   -7.9660 N.3   119  LYS119     -0.1245
    190  CA        -3.4040   11.4490   -9.1560 C.3   119  LYS119      0.1561
    191  C         -4.8860   11.7020   -9.2960 C.2   119  LYS119      0.2260
    192  O         -5.5860   10.9900  -10.0000 O.2   119  LYS119     -0.2867
    193  CB        -2.8250   10.7880  -10.3940 C.3   119  LYS119      0.0271
    194  CG        -1.3320   10.4400  -10.2810 C.3   119  LYS119      0.0035
    195  CD        -0.4260   11.6470  -10.0440 C.3   119  LYS119      0.0206
    196  CE         1.0580   11.1970  -10.0030 C.3   119  LYS119      0.1093
    197  NZ         1.7790   12.4020   -9.4930 N.3   119  LYS119     -0.1314
@<TRIPOS>BOND
     1     1     2    1
     2    27    26    2
     3     2     3    1
     4     2     5    1
     5    30    31    1
     6    26    25    1
     7     3     4    2
     8    37    39   ar
     9    37    35   ar
    10     5     6    1
    11    47    49   ar
    12    47    45   ar
    13     7     6   ar
    14    44    45    1
    15    44    41    1
    16    39    38   ar
    17    40    41    1
    18    40    32   am
    19    31    32    1
    20    31    34    1
    21    49    50   ar
    22     6     8   ar
    23    42    41    1
    24    42    43    2
    25    45    46   ar
    26    25    24    1
    27    25    28    1
    28    35    34    1
    29    35    36   ar
    30    32    33    2
    31    38    36   ar
    32    28    29    1
    33    50    48   ar
    34    46    48   ar
    35    67    68    1
    36    68    71    1
    37    68    69    1
    38    87    86    2
    39    51    52    1
    40    59    56    1
    41    59    60    1
    42     9    10    1
    43    71    72    1
    44    58    57    2
    45    57    56    1
    46    69    70    2
    47    69    75   am
    48    15    16    2
    49    15    14    1
    50    55    56    1
    51    55    53   am
    52    61    60   ar
    53    61    63   ar
    54    86    85    1
    55    60    62   ar
    56    75    76    1
    57    10    11    1
    58   109   107   am
    59    13    11   am
    60    13    14    1
    61    52    53    1
    62    72    73   ar
    63    72    74   ar
    64    63    65   ar
    65    11    12    2
    66    76    79    1
    67    76    77    1
    68   107   106    1
    69   107   108    2
    70   131   130    2
    71    14    17    1
    72    53    54    2
    73    62    64   ar
    74   106   103    1
    75    92    93    1
    76    79    80    1
    77   132   133    1
    78   132   129    1
    79    85    84    1
    80    85    88    1
    81   130   129    1
    82    65    64   ar
    83    65    66    1
    84    18    17    1
    85    18    19    1
    86    77    78    2
    87   102   103    1
    88   102    94   am
    89   135   133   ar
    90   135   137   ar
    91   133   134   ar
    92    88    89    1
    93    99   101   ar
    94    99    97   ar
    95   103   104    1
    96   129   128    1
    97   104   105    2
    98    80    81    1
    99    93    94    1
   100    93    96    1
   101   101   100   ar
   102   134   136   ar
   103   137   136   ar
   104    94    95    2
   105    81    82    1
   106    96    97    1
   107    19    20    1
   108    97    98   ar
   109    20    21    2
   110    89    90    1
   111    89    91    1
   112    23    21    1
   113   100    98   ar
   114    21    22    1
   115   139   138    1
   116   139   142    1
   117   139   140    1
   118    82    83    1
   119   142   143    1
   120   140   141    2
   121   123   125   ar
   122   123   121   ar
   123   120   121    1
   124   120   117    1
   125   125   126   ar
   126   121   122   ar
   127   110   111    1
   128   119   118    2
   129   118   117    1
   130   163   162    2
   131   116   117    1
   132   116   112   am
   133   143   145   ar
   134   143   144   ar
   135   126   127    1
   136   126   124   ar
   137   114   115    1
   138   114   111    1
   139   122   124   ar
   140   111   112    1
   141   162   161    1
   142   112   113    2
   143   146   147    1
   144   179   177   ar
   145   176   175    1
   146   176   177    1
   147   175   172    1
   148   177   178   ar
   149   160   161    1
   150   161   164    1
   151   164   165    1
   152   152   154   ar
   153   152   151   ar
   154   147   148    1
   155   147   150    1
   156   148   149    2
   157   172   171    1
   158   172   173    1
   159   193   194    1
   160   193   190    1
   161   154   155   ar
   162   194   195    1
   163   173   174    2
   164   150   151    1
   165   195   196    1
   166   196   197    1
   167   192   191    2
   168   151   153   ar
   169   188   187    1
   170   165   166   ar
   171   165   167   ar
   172   191   190    1
   173   190   189    1
   174   166   168   ar
   175   155   153   ar
   176   155   157   ar
   177   167   169   ar
   178   187   186    1
   179   153   156   ar
   180   185   184    1
   181   185   186    1
   182   184   181    1
   183   157   159   ar
   184   168   170   ar
   185   169   170   ar
   186   156   158   ar
   187   181   180    1
   188   181   182    1
   189   183   182    2
   190   159   158   ar
