@<TRIPOS>MOLECULE
tmp/5bxyA00.pdb
 196 194 0 0 0
SMALL
GASTEIGER

@<TRIPOS>ATOM
      1  N         24.8620   14.8600   57.7850 N.3     1  VAL1       -0.1231
      2  CA        23.7370   15.4200   57.0130 C.3     1  VAL1        0.1678
      3  C         23.9880   16.9180   56.7620 C.2     1  VAL1        0.2434
      4  O         24.0500   17.6990   57.7190 O.2     1  VAL1       -0.2733
      5  CB        22.3710   15.2400   57.7170 C.3     1  VAL1        0.0265
      6  CG1       21.2220   15.6390   56.7860 C.3     1  VAL1        0.0020
      7  CG2       22.1830   13.8160   58.2050 C.3     1  VAL1        0.0020
      8  N         24.1310   17.3270   55.4830 N.am    2  PRO2       -0.2718
      9  CA        24.4380   18.7320   55.2090 C.3     2  PRO2        0.1535
     10  C         23.2140   19.6200   55.3890 C.2     2  PRO2        0.2599
     11  O         22.1020   19.1220   55.2770 O.2     2  PRO2       -0.2715
     12  CB        24.8540   18.7130   53.7350 C.3     2  PRO2        0.0310
     13  CG        24.0640   17.5980   53.1380 C.3     2  PRO2        0.0237
     14  CD        23.9690   16.5510   54.2320 C.3     2  PRO2        0.0939
     15  N         23.4160   20.9190   55.6270 N.am    3  TYR3       -0.1960
     16  CA        22.3130   21.8860   55.5360 C.3     3  TYR3        0.1771
     17  C         22.0250   22.2830   54.0780 C.2     3  TYR3        0.2619
     18  O         22.6160   23.2370   53.5420 O.2     3  TYR3       -0.2715
     19  CB        22.5130   23.1460   56.4200 C.3     3  TYR3        0.0574
     20  CG        21.3750   24.1220   56.2140 C.ar    3  TYR3       -0.0198
     21  CD1       20.0670   23.7550   56.4980 C.ar    3  TYR3       -0.0009
     22  CD2       21.5930   25.3830   55.6230 C.ar    3  TYR3       -0.0009
     23  CE1       19.0080   24.6330   56.2570 C.ar    3  TYR3        0.0417
     24  CE2       20.5290   26.2550   55.3730 C.ar    3  TYR3        0.0417
     25  CZ        19.2450   25.8810   55.7050 C.ar    3  TYR3        0.1957
     26  OH        18.1760   26.7230   55.4560 O.3     3  TYR3       -0.2866
     27  N         21.1220   21.5360   53.4580 N.am    4  VAL4       -0.1964
     28  CA        20.4690   21.9260   52.1940 C.3     4  VAL4        0.1712
     29  C         18.9760   21.7230   52.4350 C.2     4  VAL4        0.2458
     30  O         18.5800   20.5880   52.7090 O.2     4  VAL4       -0.2730
     31  CB        20.9210   21.0690   50.9910 C.3     4  VAL4        0.0289
     32  CG1       20.1440   21.4540   49.7280 C.3     4  VAL4        0.0023
     33  CG2       22.4200   21.2100   50.7640 C.3     4  VAL4        0.0023
     34  N         18.1730   22.8160   52.4150 N.am    5  PRO5       -0.2716
     35  CA        16.7960   22.7230   52.8760 C.3     5  PRO5        0.1536
     36  C         15.8650   22.0830   51.8740 C.2     5  PRO5        0.2599
     37  O         16.1510   22.0570   50.6750 O.2     5  PRO5       -0.2715
     38  CB        16.4190   24.1970   53.1520 C.3     5  PRO5        0.0310
     39  CG        17.2860   24.9780   52.2670 C.3     5  PRO5        0.0237
     40  CD        18.5840   24.2240   52.2510 C.3     5  PRO5        0.0939
     41  N         14.7230   21.6340   52.3710 N.am    6  THR6       -0.1951
     42  CA        13.6270   21.1810   51.5230 C.3     6  THR6        0.1897
     43  C         12.9920   22.4170   50.8600 C.2     6  THR6        0.2313
     44  O         12.6390   23.3730   51.5610 O.2     6  THR6       -0.2863
     45  CB        12.5690   20.4320   52.3590 C.3     6  THR6        0.1794
     46  OG1       13.1810   19.2790   52.9380 O.3     6  THR6       -0.2208
     47  CG2       11.4140   19.9930   51.5060 C.3     6  THR6        0.0378
     48  N         10.2990   18.2680   63.7560 N.3    27  ASP27      -0.1225
     49  CA        11.1720   18.1860   62.6140 C.3    27  ASP27       0.1805
     50  C         12.5660   17.8610   63.1590 C.2    27  ASP27       0.2598
     51  O         13.1570   18.6490   63.9260 O.2    27  ASP27      -0.2718
     52  CB        11.1650   19.4620   61.7670 C.3    27  ASP27       0.1424
     53  CG        11.9890   19.3120   60.4890 C.2    27  ASP27       0.3668
     54  OD1       12.1810   18.1740   59.9840 O.co2  27  ASP27      -0.2456
     55  OD2       12.4280   20.3530   59.9530 O.co2  27  ASP27      -0.2456
     56  N         13.0390   16.6720   62.8130 N.am   28  LEU28      -0.1966
     57  CA        14.3100   16.1460   63.3000 C.3    28  LEU28       0.1728
     58  C         15.4300   16.5240   62.3370 C.2    28  LEU28       0.2617
     59  O         15.5110   15.9660   61.2330 O.2    28  LEU28      -0.2715
     60  CB        14.2100   14.6260   63.5050 C.3    28  LEU28       0.0311
     61  CG        13.0550   14.1630   64.4130 C.3    28  LEU28       0.0022
     62  CD1       13.1220   12.6630   64.6550 C.3    28  LEU28       0.0001
     63  CD2       13.0240   14.9110   65.7510 C.3    28  LEU28       0.0001
     64  N         16.2540   17.4970   62.7590 N.am   29  GLY29      -0.1940
     65  CA        17.2170   18.1740   61.8770 C.3    29  GLY29       0.2014
     66  C         16.5140   19.3490   61.2070 C.2    29  GLY29       0.2640
     67  O         16.2960   19.3580   59.9970 O.2    29  GLY29      -0.2714
     68  N         16.1600   20.3520   62.0070 N.am   30  SER30      -0.1935
     69  CA        15.1890   21.3670   61.5850 C.3    30  SER30       0.2055
     70  C         15.7330   22.5080   60.7200 C.2    30  SER30       0.2644
     71  O         14.9340   23.2630   60.1410 O.2    30  SER30      -0.2714
     72  CB        14.3840   21.9100   62.7870 C.3    30  SER30       0.2130
     73  OG        15.2150   22.3610   63.8320 O.3    30  SER30      -0.2179
     74  N         17.0580   22.6710   60.6260 N.am   31  GLY31      -0.1939
     75  CA        17.6330   23.6620   59.7130 C.3    31  GLY31       0.2014
     76  C         17.1860   25.0950   59.9820 C.2    31  GLY31       0.2638
     77  O         17.2370   25.5490   61.1280 O.2    31  GLY31      -0.2714
     78  N         16.6970   25.7980   58.9480 N.am   32  ASP32      -0.1971
     79  CA        16.2040   27.1700   59.1350 C.3    32  ASP32       0.1709
     80  C         14.7910   27.2710   59.7290 C.2    32  ASP32       0.2293
     81  O         14.2300   28.3800   59.8170 O.2    32  ASP32      -0.2864
     82  CB        16.3110   28.0020   57.8460 C.3    32  ASP32       0.1436
     83  CG        15.2080   27.7080   56.8020 C.2    32  ASP32       0.3671
     84  OD1       14.4670   26.7010   56.8980 O.co2  32  ASP32      -0.2456
     85  OD2       15.1380   28.5070   55.8170 O.co2  32  ASP32      -0.2456
     86  N         11.8760   25.9590   58.5390 N.3    34  ARG34      -0.1231
     87  CA        10.7700   26.1340   57.6000 C.3    34  ARG34       0.1694
     88  C          9.6390   25.1210   57.7500 C.2    34  ARG34       0.2591
     89  O          8.4780   25.4750   57.5390 O.2    34  ARG34      -0.2718
     90  CB        11.2600   26.1600   56.1460 C.3    34  ARG34       0.0321
     91  CG        11.9010   24.8420   55.7070 C.3    34  ARG34       0.0489
     92  CD        12.4600   24.9330   54.3000 C.3    34  ARG34       0.2205
     93  NE        13.3990   26.0520   54.1870 N.pl3  34  ARG34      -0.0865
     94  CZ        13.8320   26.5950   53.0520 C.cat  34  ARG34       0.5346
     95  NH1       13.4610   26.1080   51.8680 N.pl3  34  ARG34       0.1354
     96  NH2       14.6730   27.6160   53.1140 N.pl3  34  ARG34       0.1354
     97  N          9.9430   23.8730   58.1240 N.am   35  ILE35      -0.1980
     98  CA         8.8660   22.8750   58.2150 C.3    35  ILE35       0.1595
     99  C          7.9560   23.2040   59.3980 C.2    35  ILE35       0.2287
    100  O          6.7230   23.2500   59.2600 O.2    35  ILE35      -0.2864
    101  CB         9.4020   21.4240   58.2710 C.3    35  ILE35       0.0276
    102  CG1       10.2590   21.1420   57.0180 C.3    35  ILE35       0.0022
    103  CG2        8.2480   20.4430   58.3970 C.3    35  ILE35       0.0022
    104  CD1       10.7160   19.7250   56.8270 C.3    35  ILE35       0.0001
    105  N         14.4330   20.1130   66.2350 N.3    50  ILE50      -0.1231
    106  CA        15.6740   19.6860   66.8850 C.3    50  ILE50       0.1692
    107  C         16.7870   19.9100   65.8660 C.2    50  ILE50       0.2592
    108  O         16.7130   19.3970   64.7420 O.2    50  ILE50      -0.2718
    109  CB        15.6610   18.1840   67.2890 C.3    50  ILE50       0.0266
    110  CG1       14.4150   17.7910   68.0940 C.3    50  ILE50       0.0019
    111  CG2       16.9240   17.8190   68.0430 C.3    50  ILE50       0.0020
    112  CD1       14.1970   18.5450   69.3700 C.3    50  ILE50       0.0001
    113  N         17.8240   20.6340   66.2600 N.am   51  GLU51      -0.1966
    114  CA        18.9220   20.9960   65.3480 C.3    51  GLU51       0.1733
    115  C         20.2470   21.0750   66.0660 C.2    51  GLU51       0.2616
    116  O         20.3620   21.6950   67.1210 O.2    51  GLU51      -0.2715
    117  CB        18.5950   22.3100   64.6440 C.3    51  GLU51       0.0429
    118  CG        19.7260   22.9560   63.8470 C.3    51  GLU51       0.1163
    119  CD        20.2310   22.1140   62.6950 C.2    51  GLU51       0.3649
    120  OE1       19.4040   21.7200   61.8330 O.co2  51  GLU51      -0.2457
    121  OE2       21.4590   21.8530   62.6330 O.co2  51  GLU51      -0.2457
    122  N         21.2580   20.4380   65.4880 N.am   52  ILE52      -0.1963
    123  CA        22.5820   20.3330   66.1460 C.3    52  ILE52       0.1727
    124  C         23.4360   21.6060   66.0110 C.2    52  ILE52       0.2616
    125  O         24.2430   21.9090   66.8890 O.2    52  ILE52      -0.2715
    126  CB        23.3430   19.0650   65.6610 C.3    52  ILE52       0.0290
    127  CG1       24.5830   18.7330   66.5280 C.3    52  ILE52       0.0022
    128  CG2       23.8070   19.1990   64.2250 C.3    52  ILE52       0.0023
    129  CD1       24.2270   18.1170   67.8470 C.3    52  ILE52       0.0001
    130  N         23.2740   22.3330   64.9050 N.am   53  ASP53      -0.1971
    131  CA        24.1070   23.5100   64.5940 C.3    53  ASP53       0.1709
    132  C         23.5380   24.7550   65.2650 C.2    53  ASP53       0.2293
    133  O         22.4280   25.1760   64.9160 O.2    53  ASP53      -0.2864
    134  CB        24.1470   23.7060   63.0700 C.3    53  ASP53       0.1436
    135  CG        25.1690   24.7360   62.6190 C.2    53  ASP53       0.3671
    136  OD1       25.5170   25.6370   63.4020 O.co2  53  ASP53      -0.2456
    137  OD2       25.6170   24.6470   61.4500 O.co2  53  ASP53      -0.2456
    138  N         22.1220   27.6030   63.0110 N.3    56  LEU56      -0.1245
    139  CA        20.8120   27.3260   62.4240 C.3    56  LEU56       0.1561
    140  C         19.6870   27.4300   63.4420 C.2    56  LEU56       0.2260
    141  O         18.6190   27.9140   63.1070 O.2    56  LEU56      -0.2867
    142  CB        20.8090   25.9700   61.7020 C.3    56  LEU56       0.0270
    143  CG        21.6650   25.9740   60.4280 C.3    56  LEU56       0.0019
    144  CD1       21.9060   24.5660   59.9140 C.3    56  LEU56       0.0001
    145  CD2       21.0060   26.8250   59.3530 C.3    56  LEU56       0.0001
    146  N         20.4710   20.4050   69.8220 N.3    78  GLY78      -0.1210
    147  CA        20.8840   19.0750   70.2620 C.3    78  GLY78       0.1956
    148  C         20.9350   18.0610   69.1420 C.2    78  GLY78       0.2612
    149  O         20.5910   18.3430   67.9840 O.2    78  GLY78      -0.2717
    150  N         21.3860   16.8710   69.5000 N.am   79  ASP79      -0.1959
    151  CA        21.4660   15.7460   68.5700 C.3    79  ASP79       0.1840
    152  C         20.1070   15.0460   68.5420 C.2    79  ASP79       0.2622
    153  O         19.6000   14.6120   69.6000 O.2    79  ASP79      -0.2715
    154  CB        22.5920   14.8290   69.0680 C.3    79  ASP79       0.1450
    155  CG        22.8030   13.5810   68.2250 C.2    79  ASP79       0.3671
    156  OD1       22.0710   13.2920   67.2540 O.co2  79  ASP79      -0.2456
    157  OD2       23.7570   12.8650   68.6160 O.co2  79  ASP79      -0.2456
    158  N         19.5240   14.9050   67.3490 N.am   80  LEU80      -0.1963
    159  CA        18.2140   14.2520   67.2100 C.3    80  LEU80       0.1728
    160  C         18.1910   12.8060   67.6950 C.2    80  LEU80       0.2616
    161  O         17.1580   12.3230   68.1610 O.2    80  LEU80      -0.2715
    162  CB        17.6910   14.3680   65.7810 C.3    80  LEU80       0.0311
    163  CG        18.4090   13.5710   64.6570 C.3    80  LEU80       0.0022
    164  CD1       17.7810   12.1970   64.5050 C.3    80  LEU80       0.0001
    165  CD2       18.3570   14.3150   63.3410 C.3    80  LEU80       0.0001
    166  N         19.3370   12.1260   67.6480 N.am   81  PHE81      -0.1974
    167  CA        19.4400   10.7520   68.1850 C.3    81  PHE81       0.1639
    168  C         19.3910   10.6500   69.6990 C.2    81  PHE81       0.2290
    169  O         19.2740    9.5460   70.2410 O.2    81  PHE81      -0.2864
    170  CB        20.7040   10.0730   67.6590 C.3    81  PHE81       0.0560
    171  CG        20.6300    9.7150   66.2070 C.ar   81  PHE81      -0.0200
    172  CD1       19.9330    8.5960   65.8580 C.ar   81  PHE81      -0.0042
    173  CD2       21.2590   10.4620   65.2260 C.ar   81  PHE81      -0.0042
    174  CE1       19.8290    8.2010   64.5620 C.ar   81  PHE81      -0.0003
    175  CE2       21.1530   10.0740   63.8930 C.ar   81  PHE81      -0.0003
    176  CZ        20.4380    8.9240   63.5780 C.ar   81  PHE81      -0.0000
    177  N         14.2770   15.2010   56.7100 N.3    94  TYR94      -0.1227
    178  CA        15.0840   15.2390   55.4570 C.3    94  TYR94       0.1736
    179  C         16.5360   15.0500   55.8180 C.2    94  TYR94       0.2595
    180  O         17.2710   16.0190   56.0710 O.2    94  TYR94      -0.2718
    181  CB        14.8710   16.5310   54.7090 C.3    94  TYR94       0.0548
    182  CG        15.6140   16.6550   53.3890 C.ar   94  TYR94      -0.0200
    183  CD1       15.8460   15.5430   52.5560 C.ar   94  TYR94      -0.0009
    184  CD2       16.0230   17.9010   52.9470 C.ar   94  TYR94      -0.0009
    185  CE1       16.4910   15.6980   51.3210 C.ar   94  TYR94       0.0417
    186  CE2       16.6650   18.0700   51.7300 C.ar   94  TYR94       0.0417
    187  CZ        16.8920   16.9740   50.9200 C.ar   94  TYR94       0.1957
    188  OH        17.5360   17.1890   49.7140 O.3    94  TYR94      -0.2866
    189  N         16.9390   13.7820   55.8640 N.am   95  LEU95      -0.1980
    190  CA        18.2420   13.4190   56.4220 C.3    95  LEU95       0.1596
    191  C         19.0680   12.7010   55.3440 C.2    95  LEU95       0.2287
    192  O         19.4770   13.3470   54.3760 O.2    95  LEU95      -0.2864
    193  CB        18.0360   12.6240   57.7180 C.3    95  LEU95       0.0297
    194  CG        17.3590   13.4240   58.8510 C.3    95  LEU95       0.0022
    195  CD1       16.9480   12.4830   59.9910 C.3    95  LEU95       0.0001
    196  CD2       18.2550   14.5230   59.3710 C.3    95  LEU95       0.0001
@<TRIPOS>BOND
     1   188   187    1
     2    32    31    1
     3    37    36    2
     4    33    31    1
     5    43    42    1
     6    43    44    2
     7   187   185   ar
     8   187   186   ar
     9    31    28    1
    10   185   183   ar
    11    47    45    1
    12    42    45    1
    13    42    41    1
    14   186   184   ar
    15    95    94    1
    16    36    41   am
    17    36    35    1
    18    28    29    1
    19    28    27    1
    20    40    39    1
    21    40    34    1
    22    39    38    1
    23    45    46    1
    24    34    29   am
    25    34    35    1
    26    29    30    2
    27   183   182   ar
    28    35    38    1
    29   184   182   ar
    30    94    96    1
    31    94    93    2
    32    13    12    1
    33    13    14    1
    34   182   181    1
    35    27    17   am
    36    18    17    2
    37    12     9    1
    38    17    16    1
    39    93    92    1
    40    14     8    1
    41    92    91    1
    42   192   191    2
    43   181   178    1
    44     9    10    1
    45     9     8    1
    46    11    10    2
    47   191   190    1
    48    24    22   ar
    49    24    25   ar
    50    10    15   am
    51    26    25    1
    52   178   179    1
    53   178   177    1
    54     8     3   am
    55    16    15    1
    56    16    19    1
    57    22    20   ar
    58    25    23   ar
    59    91    90    1
    60    85    83   ar
    61   179   189   am
    62   179   180    2
    63   189   190    1
    64    90    87    1
    65    20    19    1
    66    20    21   ar
    67    23    21   ar
    68   190   193    1
    69     3     2    1
    70     3     4    2
    71     6     5    1
    72    83    84   ar
    73    83    82    1
    74   104   102    1
    75     2     5    1
    76     2     1    1
    77   102   101    1
    78    89    88    2
    79    87    88    1
    80    87    86    1
    81     5     7    1
    82   193   194    1
    83    88    97   am
    84    82    79    1
    85    97    98    1
    86    98   101    1
    87    98    99    1
    88   101   103    1
    89   194   196    1
    90   194   195    1
    91    78    79    1
    92    78    76   am
    93    79    80    1
    94   100    99    2
    95   145   143    1
    96    75    76    1
    97    75    74    1
    98    80    81    2
    99   144   143    1
   100    55    53   ar
   101    76    77    2
   102    54    53   ar
   103    67    66    2
   104    71    70    2
   105   143   142    1
   106    53    52    1
   107    74    70   am
   108    70    69    1
   109    66    65    1
   110    66    68   am
   111    59    58    2
   112   137   135   ar
   113    69    68    1
   114    69    72    1
   115   142   139    1
   116    52    49    1
   117   120   119   ar
   118    65    64    1
   119    58    64   am
   120    58    57    1
   121   139   138    1
   122   139   140    1
   123    49    50    1
   124    49    48    1
   125   135   134    1
   126   135   136   ar
   127   121   119   ar
   128   119   118    1
   129    72    73    1
   130    56    50   am
   131    56    57    1
   132   134   131    1
   133   141   140    2
   134    50    51    2
   135    57    60    1
   136   165   163    1
   137    60    61    1
   138   176   175   ar
   139   176   174   ar
   140   118   117    1
   141   175   173   ar
   142   128   126    1
   143    61    62    1
   144    61    63    1
   145   164   163    1
   146   174   172   ar
   147   131   130    1
   148   131   132    1
   149   117   114    1
   150   163   162    1
   151   108   107    2
   152   130   124   am
   153   133   132    2
   154   173   171   ar
   155   114   115    1
   156   114   113    1
   157   122   115   am
   158   122   123    1
   159   126   123    1
   160   126   127    1
   161   162   159    1
   162   172   171   ar
   163   107   113   am
   164   107   106    1
   165   124   123    1
   166   124   125    2
   167   115   116    2
   168   171   170    1
   169   105   106    1
   170   127   129    1
   171   106   109    1
   172   159   158    1
   173   159   160    1
   174   156   155   ar
   175   109   111    1
   176   109   110    1
   177   158   152   am
   178   166   160   am
   179   166   167    1
   180   170   167    1
   181   160   161    2
   182   149   148    2
   183   110   112    1
   184   167   168    1
   185   155   157   ar
   186   155   154    1
   187   152   151    1
   188   152   153    2
   189   151   154    1
   190   151   150    1
   191   148   150   am
   192   148   147    1
   193   168   169    2
   194   146   147    1
