@<TRIPOS>MOLECULE
tmp/5by6B00.pdb
 122 117 0 0 0
SMALL
GASTEIGER

@<TRIPOS>ATOM
      1  N         22.2680   12.2220   -6.8130 N.3    27  ARG27      -0.1245
      2  CA        22.8910   12.7600   -7.9890 C.3    27  ARG27       0.1563
      3  C         23.1850   14.2270   -7.7440 C.2    27  ARG27       0.2260
      4  O         24.1830   14.7420   -8.2360 O.2    27  ARG27      -0.2867
      5  CB        21.9500   12.5300   -9.1940 C.3    27  ARG27       0.0307
      6  CG        22.0900   13.5150  -10.3360 C.3    27  ARG27       0.0489
      7  CD        20.9190   13.3850  -11.2940 C.3    27  ARG27       0.2205
      8  NE        19.6310   13.7750  -10.7030 N.pl3  27  ARG27      -0.0865
      9  CZ        19.2450   15.0320  -10.4370 C.cat  27  ARG27       0.5346
     10  NH1       20.0630   16.0540  -10.6780 N.pl3  27  ARG27       0.1354
     11  NH2       18.0360   15.2780   -9.9150 N.pl3  27  ARG27       0.1354
     12  N          7.3760   14.0270  -21.3530 N.3   113  TYR113     -0.1241
     13  CA         6.0810   13.4210  -21.1130 C.3   113  TYR113      0.1605
     14  C          5.1170   13.5680  -22.2820 C.2   113  TYR113      0.2264
     15  O          4.5630   12.5800  -22.7590 O.2   113  TYR113     -0.2867
     16  CB         5.4160   14.0110  -19.8740 C.3   113  TYR113      0.0534
     17  CG         6.1710   13.8080  -18.6110 C.ar  113  TYR113     -0.0201
     18  CD1        6.1360   12.6010  -17.9420 C.ar  113  TYR113     -0.0009
     19  CD2        6.9450   14.8270  -18.0750 C.ar  113  TYR113     -0.0009
     20  CE1        6.8540   12.4130  -16.7830 C.ar  113  TYR113      0.0417
     21  CE2        7.6750   14.6160  -16.9290 C.ar  113  TYR113      0.0417
     22  CZ         7.5920   13.3810  -16.3000 C.ar  113  TYR113      0.1957
     23  OH         8.2890   13.1800  -15.1540 O.3   113  TYR113     -0.2866
     24  N         16.1400   15.3130  -18.3010 N.3   170  LEU170     -0.1231
     25  CA        15.8760   14.4990  -17.1650 C.3   170  LEU170      0.1678
     26  C         14.8670   13.4500  -17.5570 C.2   170  LEU170      0.2434
     27  O         13.8870   13.7440  -18.2880 O.2   170  LEU170     -0.2733
     28  CB        15.3660   15.3360  -16.0050 C.3   170  LEU170      0.0284
     29  CG        15.4020   14.5490  -14.6870 C.3   170  LEU170      0.0019
     30  CD1       16.1070   15.3390  -13.5970 C.3   170  LEU170      0.0001
     31  CD2       13.9840   14.1590  -14.3080 C.3   170  LEU170      0.0001
     32  N         15.1490   12.2160  -17.1340 N.am  171  PRO171     -0.2729
     33  CA        14.2750   11.1290  -17.4580 C.3   171  PRO171      0.1401
     34  C         12.9370   11.3150  -16.7090 C.2   171  PRO171      0.2269
     35  O         12.9370   11.8180  -15.5780 O.2   171  PRO171     -0.2865
     36  CB        15.0210    9.9340  -16.8740 C.3   171  PRO171      0.0296
     37  CG        16.4180   10.3500  -16.9770 C.3   171  PRO171      0.0237
     38  CD        16.3370   11.7210  -16.4260 C.3   171  PRO171      0.0939
     39  N          9.9230   11.2170  -14.3030 N.3   173  CYS173     -0.1221
     40  CA         9.7020   10.7120  -12.9080 C.3   173  CYS173      0.1808
     41  C          8.3740    9.9810  -12.7400 C.2   173  CYS173      0.2601
     42  O          8.3190    8.9600  -12.0710 O.2   173  CYS173     -0.2717
     43  CB         9.7210   11.8260  -11.8500 C.3   173  CYS173      0.0970
     44  SG        11.3870   12.4600  -11.8230 S.3   173  CYS173     -0.0800
     45  N          7.3190   10.5230  -13.3060 N.am  174  HIS174     -0.1975
     46  CA         6.0370    9.8500  -13.2770 C.3   174  HIS174      0.1656
     47  C          5.9200    8.9670  -14.5540 C.2   174  HIS174      0.2291
     48  O          5.6480    9.4650  -15.6350 O.2   174  HIS174     -0.2864
     49  CB         4.8960   10.8380  -12.9930 C.3   174  HIS174      0.0771
     50  CG         5.0600   12.1960  -13.5660 C.ar  174  HIS174      0.0820
     51  ND1        4.3220   12.6400  -14.6510 N.ar  174  HIS174     -0.2267
     52  CD2        5.7880   13.2590  -13.1460 C.ar  174  HIS174      0.1154
     53  CE1        4.6300   13.8990  -14.9020 C.ar  174  HIS174      0.1986
     54  NE2        5.5380   14.2890  -14.0200 N.ar  174  HIS174     -0.2212
     55  N          5.4550    6.4490   -9.7070 N.3   192  GLN192     -0.1231
     56  CA         6.4830    7.4560   -9.7060 C.3   192  GLN192      0.1698
     57  C          7.8160    6.8400   -9.2050 C.2   192  GLN192      0.2592
     58  O          7.9820    6.5950   -7.9810 O.2   192  GLN192     -0.2718
     59  CB         6.0430    8.6780   -8.9020 C.3   192  GLN192      0.0381
     60  CG         7.0930    9.7780   -8.7480 C.3   192  GLN192      0.0905
     61  CD         6.4120   11.0740   -8.3540 C.2   192  GLN192      0.2608
     62  OE1        5.1710   11.0870   -8.1680 O.2   192  GLN192     -0.2717
     63  NE2        7.1960   12.1570   -8.2110 N.am  192  GLN192     -0.0878
     64  N          8.7970    6.7560  -10.0750 N.am  193  ARG193     -0.1966
     65  CA        10.1470    6.1580   -9.7260 C.3   193  ARG193      0.1729
     66  C         10.9160    6.9230   -8.6930 C.2   193  ARG193      0.2616
     67  O         11.6860    6.3370   -7.9540 O.2   193  ARG193     -0.2715
     68  CB        11.0300    5.9590  -10.9740 C.3   193  ARG193      0.0348
     69  CG        11.6290    7.2520  -11.5220 C.3   193  ARG193      0.0492
     70  CD        12.5340    7.1430  -12.7070 C.3   193  ARG193      0.2205
     71  NE        12.9110    8.4850  -13.2290 N.pl3 193  ARG193     -0.0865
     72  CZ        13.7440    9.3310  -12.6260 C.cat 193  ARG193      0.5346
     73  NH1       14.3490    8.9850  -11.5280 N.pl3 193  ARG193      0.1354
     74  NH2       13.9980   10.5400  -13.1320 N.pl3 193  ARG193      0.1354
     75  N         10.6270    8.2380   -8.5960 N.am  194  SER194     -0.1950
     76  CA        11.3990    9.1960   -7.8030 C.3   194  SER194      0.1924
     77  C         10.5100   10.3430   -7.3560 C.2   194  SER194      0.2314
     78  O          9.9330   10.9660   -8.1670 O.2   194  SER194     -0.2863
     79  CB        12.5760    9.7370   -8.6280 C.3   194  SER194      0.2116
     80  OG        13.3710   10.6220   -7.8560 O.3   194  SER194     -0.2180
     81  N         10.1980   13.6430   -4.6980 N.3   196  ASP196     -0.1239
     82  CA        10.6100   14.6390   -3.7190 C.3   196  ASP196      0.1674
     83  C          9.3560   14.9960   -2.9010 C.2   196  ASP196      0.2266
     84  O          8.4420   15.6850   -3.3900 O.2   196  ASP196     -0.2867
     85  CB        11.1280   15.8650   -4.4670 C.3   196  ASP196      0.1410
     86  CG        11.3720   17.0760   -3.5330 C.2   196  ASP196      0.3668
     87  OD1       10.9780   17.0180   -2.3550 O.co2 196  ASP196     -0.2456
     88  OD2       12.0410   18.0270   -3.9770 O.co2 196  ASP196     -0.2456
     89  N          7.8180   18.0110   -4.7850 N.3   200  GLY200     -0.1225
     90  CA         7.1550   17.4040   -5.9090 C.3   200  GLY200      0.1811
     91  C          5.8340   16.7240   -5.6900 C.2   200  GLY200      0.2280
     92  O          4.9040   16.9800   -6.4360 O.2   200  GLY200     -0.2866
     93  N          2.3880   16.6960   -7.9930 N.3   204  ASN204     -0.1240
     94  CA         2.2210   15.4660   -8.7190 C.3   204  ASN204      0.1653
     95  C          0.8640   14.8240   -8.4740 C.2   204  ASN204      0.2266
     96  O          0.2050   14.4120   -9.4150 O.2   204  ASN204     -0.2867
     97  CB         3.3640   14.4600   -8.3690 C.3   204  ASN204      0.1155
     98  CG         4.7300   14.9150   -8.7880 C.2   204  ASN204      0.2627
     99  OD1        5.7300   14.6160   -8.1300 O.2   204  ASN204     -0.2716
    100  ND2        4.8080   15.6410   -9.8940 N.am  204  ASN204     -0.0877
    101  N         11.5570   10.4660   -1.0510 N.3   234  HIS234     -0.1241
    102  CA        12.6420   11.1120   -0.3570 C.3   234  HIS234      0.1621
    103  C         12.3550   12.4990    0.0780 C.2   234  HIS234      0.2264
    104  O         11.5170   13.1720   -0.5060 O.2   234  HIS234     -0.2867
    105  CB        13.9440   11.0980   -1.1890 C.3   234  HIS234      0.0745
    106  CG        13.8250   11.6660   -2.5730 C.ar  234  HIS234      0.0817
    107  ND1       13.5150   10.8940   -3.6760 N.ar  234  HIS234     -0.2268
    108  CD2       14.0330   12.9230   -3.0390 C.ar  234  HIS234      0.1154
    109  CE1       13.4910   11.6610   -4.7460 C.ar  234  HIS234      0.1986
    110  NE2       13.7710   12.9060   -4.3860 N.ar  234  HIS234     -0.2212
    111  N         14.7760   15.9770    0.7500 N.3   236  TYR236     -0.1241
    112  CA        16.1070   16.5750    0.7140 C.3   236  TYR236      0.1605
    113  C         16.4590   17.1020    2.0900 C.2   236  TYR236      0.2264
    114  O         15.5960   17.6380    2.8000 O.2   236  TYR236     -0.2867
    115  CB        16.1960   17.6670   -0.3630 C.3   236  TYR236      0.0534
    116  CG        16.2910   17.0790   -1.7270 C.ar  236  TYR236     -0.0201
    117  CD1       17.5440   16.7480   -2.3000 C.ar  236  TYR236     -0.0009
    118  CD2       15.1520   16.8340   -2.4590 C.ar  236  TYR236     -0.0009
    119  CE1       17.6260   16.1790   -3.5670 C.ar  236  TYR236      0.0417
    120  CE2       15.2270   16.2260   -3.7250 C.ar  236  TYR236      0.0417
    121  CZ        16.4580   15.9130   -4.2670 C.ar  236  TYR236      0.1957
    122  OH        16.4690   15.4040   -5.5460 O.3   236  TYR236     -0.2866
@<TRIPOS>BOND
     1    15    14    2
     2    14    13    1
     3    12    13    1
     4    13    16    1
     5    16    17    1
     6    17    19   ar
     7    17    18   ar
     8    24    25    1
     9    27    26    2
    10    19    21   ar
    11    18    20   ar
    12    26    25    1
    13    26    32   am
    14    33    32    1
    15    33    36    1
    16    33    34    1
    17    25    28    1
    18    32    38    1
    19    37    36    1
    20    37    38    1
    21    21    22   ar
    22    20    22   ar
    23    34    35    2
    24    22    23    1
    25    28    29    1
    26    48    47    2
    27    53    51   ar
    28    53    54   ar
    29    29    31    1
    30    29    30    1
    31    51    50   ar
    32    47    46    1
    33    39    40    1
    34    54    52   ar
    35    50    52   ar
    36    50    49    1
    37    45    46    1
    38    45    41   am
    39    46    49    1
    40    71    70    1
    41    71    72    2
    42    74    72    1
    43    40    41    1
    44    40    43    1
    45    41    42    2
    46    70    69    1
    47    72    73    1
    48    43    44    1
    49    69    68    1
    50     7     8    1
    51     7     6    1
    52    68    65    1
    53     8     9    2
    54    10     9    1
    55     9    11    1
    56     6     5    1
    57    64    65    1
    58    64    57   am
    59   100    98   am
    60    65    66    1
    61    55    56    1
    62    56    57    1
    63    56    59    1
    64    96    95    2
    65    57    58    2
    66     5     2    1
    67    59    60    1
    68    98    97    1
    69    98    99    2
    70    60    61    1
    71    94    95    1
    72    94    97    1
    73    94    93    1
    74    66    75   am
    75    66    67    2
    76    79    80    1
    77    79    76    1
    78    75    76    1
    79    61    63   am
    80    61    62    2
    81     4     3    2
    82    78    77    2
    83     2     3    1
    84     2     1    1
    85    76    77    1
    86    92    91    2
    87    90    91    1
    88    90    89    1
    89   122   121    1
    90   109   110   ar
    91   109   107   ar
    92    81    82    1
    93    85    82    1
    94    85    86    1
    95   110   108   ar
    96   121   120   ar
    97   121   119   ar
    98    88    86   ar
    99   120   118   ar
   100    82    83    1
   101   107   106   ar
   102   119   117   ar
   103    86    87   ar
   104    84    83    2
   105   108   106   ar
   106   106   105    1
   107   118   116   ar
   108   117   116   ar
   109   116   115    1
   110   105   102    1
   111   101   102    1
   112   104   103    2
   113   115   112    1
   114   102   103    1
   115   112   111    1
   116   112   113    1
   117   113   114    2
