@<TRIPOS>MOLECULE
tmp/5by6A01.pdb
 110 107 0 0 0
SMALL
GASTEIGER

@<TRIPOS>ATOM
      1  N          4.7950  -23.7550   -8.1920 N.3    58  PHE58      -0.1241
      2  CA         5.6140  -24.5250   -9.1740 C.3    58  PHE58       0.1605
      3  C          7.0170  -23.9260   -9.3410 C.2    58  PHE58       0.2264
      4  O          7.3440  -23.2620  -10.3410 O.2    58  PHE58      -0.2867
      5  CB         4.8290  -24.5630  -10.4460 C.3    58  PHE58       0.0534
      6  CG         5.4660  -25.3370  -11.5800 C.ar   58  PHE58      -0.0203
      7  CD1        6.2800  -26.4580  -11.3550 C.ar   58  PHE58      -0.0042
      8  CD2        5.1520  -24.9910  -12.8660 C.ar   58  PHE58      -0.0042
      9  CE1        6.8190  -27.1500  -12.4350 C.ar   58  PHE58      -0.0003
     10  CE2        5.7000  -25.6430  -13.9400 C.ar   58  PHE58      -0.0003
     11  CZ         6.5100  -26.7710  -13.7200 C.ar   58  PHE58      -0.0000
     12  N         11.4610  -20.6490  -16.3390 N.3    65  GLU65      -0.1245
     13  CA        10.9110  -19.4810  -17.0070 C.3    65  GLU65       0.1567
     14  C         11.8350  -18.2790  -16.8760 C.2    65  GLU65       0.2260
     15  O         12.1250  -17.6140  -17.8630 O.2    65  GLU65      -0.2867
     16  CB         9.5080  -19.1220  -16.5190 C.3    65  GLU65       0.0388
     17  CG         8.8670  -18.0430  -17.3640 C.3    65  GLU65       0.1160
     18  CD         7.6460  -17.4940  -16.7050 C.2    65  GLU65       0.3649
     19  OE1        7.7890  -17.0720  -15.5510 O.co2  65  GLU65      -0.2457
     20  OE2        6.5650  -17.4900  -17.3800 O.co2  65  GLU65      -0.2457
     21  N         13.6230  -16.1080  -19.6920 N.3    69  PHE69      -0.1241
     22  CA        13.3980  -14.6750  -19.8920 C.3    69  PHE69       0.1605
     23  C         14.7920  -14.0240  -20.0040 C.2    69  PHE69       0.2264
     24  O         15.0430  -13.2630  -20.8850 O.2    69  PHE69      -0.2867
     25  CB        12.7410  -14.0090  -18.6810 C.3    69  PHE69       0.0534
     26  CG        11.2620  -14.2560  -18.4880 C.ar   69  PHE69      -0.0203
     27  CD1       10.4190  -14.6330  -19.5400 C.ar   69  PHE69      -0.0042
     28  CD2       10.7230  -14.0590  -17.2050 C.ar   69  PHE69      -0.0042
     29  CE1        9.0620  -14.8210  -19.2960 C.ar   69  PHE69      -0.0003
     30  CE2        9.3770  -14.2320  -16.9650 C.ar   69  PHE69      -0.0003
     31  CZ         8.5440  -14.6220  -18.0260 C.ar   69  PHE69      -0.0000
     32  N          4.1490  -24.1130  -19.4070 N.3    86  ILE86      -0.1231
     33  CA         3.3150  -22.9640  -19.0870 C.3    86  ILE86       0.1692
     34  C          3.0140  -22.0210  -20.2630 C.2    86  ILE86       0.2592
     35  O          1.9640  -21.3820  -20.2190 O.2    86  ILE86      -0.2718
     36  CB         3.8230  -22.1840  -17.8590 C.3    86  ILE86       0.0266
     37  CG1        5.1490  -21.5010  -18.1000 C.3    86  ILE86       0.0019
     38  CG2        3.9390  -23.0960  -16.6520 C.3    86  ILE86       0.0020
     39  CD1        5.7990  -20.9840  -16.8110 C.3    86  ILE86       0.0001
     40  N          3.8760  -21.9350  -21.2900 N.am   87  TRP87      -0.1976
     41  CA         3.6330  -21.0460  -22.4600 C.3    87  TRP87       0.1640
     42  C          3.1410  -21.7560  -23.7170 C.2    87  TRP87       0.2290
     43  O          2.9250  -21.1180  -24.7880 O.2    87  TRP87      -0.2864
     44  CB         4.8660  -20.2450  -22.8010 C.3    87  TRP87       0.0576
     45  CG         5.1910  -19.1570  -21.8120 C.ar   87  TRP87       0.0006
     46  CD1        5.9490  -19.2320  -20.6910 C.ar   87  TRP87       0.0946
     47  CD2        4.7590  -17.8090  -21.9190 C.ar   87  TRP87       0.0152
     48  NE1        6.0040  -17.9900  -20.0810 N.ar   87  TRP87      -0.2442
     49  CE2        5.2890  -17.1030  -20.8260 C.ar   87  TRP87       0.0810
     50  CE3        4.0010  -17.1240  -22.8540 C.ar   87  TRP87       0.0012
     51  CZ2        5.0920  -15.7010  -20.6420 C.ar   87  TRP87       0.0191
     52  CZ3        3.8280  -15.6940  -22.6890 C.ar   87  TRP87       0.0001
     53  CH2        4.3680  -15.0320  -21.5930 C.ar   87  TRP87       0.0015
     54  N         -0.3390  -20.5900  -25.3360 N.3    90  ASN90      -0.1240
     55  CA        -0.3270  -19.2910  -26.0500 C.3    90  ASN90       0.1653
     56  C          0.5950  -19.2160  -27.2570 C.2    90  ASN90       0.2266
     57  O          0.8440  -18.1130  -27.7910 O.2    90  ASN90      -0.2867
     58  CB         0.0370  -18.1520  -25.1080 C.3    90  ASN90       0.1155
     59  CG        -0.9070  -18.0530  -23.9250 C.2    90  ASN90       0.2627
     60  OD1       -0.4880  -18.1400  -22.7950 O.2    90  ASN90      -0.2716
     61  ND2       -2.1890  -17.8610  -24.1930 N.am   90  ASN90      -0.0877
     62  N          0.3270  -12.4730  -26.1930 N.3   170  LEU170     -0.1245
     63  CA        -0.4000  -11.8140  -25.1210 C.3   170  LEU170      0.1561
     64  C          0.4250  -10.6680  -24.5010 C.2   170  LEU170      0.2260
     65  O          1.6450  -10.7080  -24.4280 O.2   170  LEU170     -0.2867
     66  CB        -0.8180  -12.7780  -24.0540 C.3   170  LEU170      0.0270
     67  CG         0.2620  -13.5460  -23.3770 C.3   170  LEU170      0.0019
     68  CD1       -0.2850  -14.2870  -22.1670 C.3   170  LEU170      0.0001
     69  CD2        0.8270  -14.5350  -24.3690 C.3   170  LEU170      0.0001
     70  N          3.4740   -8.3270  -15.9840 N.3   174  HIS174     -0.1241
     71  CA         4.4180   -7.7750  -15.0860 C.3   174  HIS174      0.1621
     72  C          5.2610   -6.7130  -15.8560 C.2   174  HIS174      0.2264
     73  O          6.2030   -7.0260  -16.5470 O.2   174  HIS174     -0.2867
     74  CB         5.1750   -8.9120  -14.2930 C.3   174  HIS174      0.0745
     75  CG         5.5500  -10.1390  -15.0720 C.ar  174  HIS174      0.0817
     76  ND1        6.8540  -10.4270  -15.4440 N.ar  174  HIS174     -0.2268
     77  CD2        4.8330  -11.2360  -15.3970 C.ar  174  HIS174      0.1154
     78  CE1        6.9150  -11.6160  -16.0120 C.ar  174  HIS174      0.1986
     79  NE2        5.7000  -12.1310  -16.0050 N.ar  174  HIS174     -0.2212
     80  N         -4.0290  -17.9290   -8.8070 N.3   199  LEU199     -0.1231
     81  CA        -3.1330  -18.7090   -9.6040 C.3   199  LEU199      0.1693
     82  C         -1.9200  -17.9860  -10.0830 C.2   199  LEU199      0.2592
     83  O         -0.9490  -18.6320  -10.4180 O.2   199  LEU199     -0.2718
     84  CB        -3.8700  -19.2460  -10.8280 C.3   199  LEU199      0.0284
     85  CG        -4.9710  -20.2980  -10.6330 C.3   199  LEU199      0.0019
     86  CD1       -5.4860  -20.7890  -11.9850 C.3   199  LEU199      0.0001
     87  CD2       -4.5230  -21.5080   -9.8430 C.3   199  LEU199      0.0001
     88  N         -1.9240  -16.6570  -10.1400 N.am  200  GLY200     -0.1957
     89  CA        -0.7990  -15.9770  -10.7350 C.3   200  GLY200      0.1869
     90  C          0.1300  -15.4350   -9.6710 C.2   200  GLY200      0.2309
     91  O          1.3270  -15.7640   -9.6680 O.2   200  GLY200     -0.2863
     92  N          3.2520  -17.3590   -7.9690 N.3   203  PHE203     -0.1227
     93  CA         4.3000  -17.6110   -8.9220 C.3   203  PHE203      0.1736
     94  C          5.0240  -16.2740   -9.2230 C.2   203  PHE203      0.2595
     95  O          6.2410  -16.2160   -9.2180 O.2   203  PHE203     -0.2718
     96  CB         3.6420  -18.2120  -10.1690 C.3   203  PHE203      0.0547
     97  CG         4.5970  -18.7560  -11.1930 C.ar  203  PHE203     -0.0202
     98  CD1        5.2650  -17.9130  -12.0440 C.ar  203  PHE203     -0.0042
     99  CD2        4.7680  -20.1550  -11.3510 C.ar  203  PHE203     -0.0042
    100  CE1        6.1470  -18.4170  -12.9950 C.ar  203  PHE203     -0.0003
    101  CE2        5.6350  -20.6440  -12.2790 C.ar  203  PHE203     -0.0003
    102  CZ         6.3060  -19.7780  -13.1260 C.ar  203  PHE203     -0.0000
    103  N          4.2700  -15.1770   -9.4230 N.am  204  ASN204     -0.1974
    104  CA         4.9120  -13.9160   -9.6790 C.3   204  ASN204      0.1688
    105  C          5.8620  -13.4480   -8.5760 C.2   204  ASN204      0.2292
    106  O          6.9200  -12.9300   -8.8120 O.2   204  ASN204     -0.2864
    107  CB         3.8050  -12.8430  -10.0130 C.3   204  ASN204      0.1181
    108  CG         2.9020  -13.2610  -11.2030 C.2   204  ASN204      0.2629
    109  OD1        1.7180  -13.0010  -11.2370 O.2   204  ASN204     -0.2716
    110  ND2        3.4660  -14.0490  -12.1200 N.am  204  ASN204     -0.0877
@<TRIPOS>BOND
     1    57    56    2
     2    56    55    1
     3    62    63    1
     4    55    54    1
     5    55    58    1
     6    63    64    1
     7    63    66    1
     8    58    59    1
     9    43    42    2
    10    64    65    2
    11    69    67    1
    12    61    59   am
    13    66    67    1
    14    59    60    2
    15    42    41    1
    16    67    68    1
    17    50    52   ar
    18    50    47   ar
    19    44    41    1
    20    44    45    1
    21    52    53   ar
    22    41    40    1
    23    47    45   ar
    24    47    49   ar
    25    45    46   ar
    26    53    51   ar
    27    40    34   am
    28    24    23    2
    29    49    51   ar
    30    49    48   ar
    31    46    48   ar
    32    34    35    2
    33    34    33    1
    34    23    22    1
    35    22    21    1
    36    22    25    1
    37    27    29   ar
    38    27    26   ar
    39    32    33    1
    40    29    31   ar
    41    33    36    1
    42    25    26    1
    43    26    28   ar
    44    37    36    1
    45    37    39    1
    46    31    30   ar
    47    15    14    2
    48    36    38    1
    49    20    18   ar
    50    17    18    1
    51    17    16    1
    52    28    30   ar
    53    13    14    1
    54    13    16    1
    55    13    12    1
    56    18    19   ar
    57    73    72    2
    58    78    79   ar
    59    78    76   ar
    60    79    77   ar
    61    70    71    1
    62    72    71    1
    63    76    75   ar
    64    77    75   ar
    65    71    74    1
    66    75    74    1
    67    10    11   ar
    68    10     8   ar
    69    11     9   ar
    70   102   100   ar
    71   102   101   ar
    72   100    98   ar
    73     8     6   ar
    74     9     7   ar
    75   101    99   ar
    76   110   108   am
    77    98    97   ar
    78    86    85    1
    79     6     7   ar
    80     6     5    1
    81    99    97   ar
    82   109   108    2
    83   108   107    1
    84    97    96    1
    85    84    85    1
    86    84    81    1
    87    89    88    1
    88    89    90    1
    89    85    87    1
    90     5     2    1
    91    83    82    2
    92     4     3    2
    93    96    93    1
    94    88    82   am
    95    82    81    1
    96   107   104    1
    97   104   103    1
    98   104   105    1
    99    90    91    2
   100    81    80    1
   101   103    94   am
   102     3     2    1
   103    94    95    2
   104    94    93    1
   105     2     1    1
   106    93    92    1
   107   106   105    2
