@<TRIPOS>MOLECULE
tmp/5byaA01.pdb
 185 174 0 0 0
SMALL
GASTEIGER

@<TRIPOS>ATOM
      1  N         -9.2650   27.3150   10.8250 N.3    12  LYS12      -0.1231
      2  CA        -7.9080   27.0450   11.3300 C.3    12  LYS12       0.1693
      3  C         -6.8950   27.0210   10.1840 C.2    12  LYS12       0.2591
      4  O         -5.7340   27.4050   10.3570 O.2    12  LYS12      -0.2718
      5  CB        -7.8610   25.7190   12.0960 C.3    12  LYS12       0.0285
      6  CG        -6.5860   25.5250   12.9070 C.3    12  LYS12       0.0035
      7  CD        -6.7470   24.5000   14.0210 C.3    12  LYS12       0.0206
      8  CE        -6.6440   23.0810   13.4980 C.3    12  LYS12       0.1093
      9  NZ        -6.4120   22.0870   14.5890 N.3    12  LYS12      -0.1314
     10  N         -7.3530   26.5670    9.0210 N.am   13  LYS13      -0.1980
     11  CA        -6.5210   26.5240    7.8210 C.3    13  LYS13       0.1596
     12  C         -6.5930   27.8270    7.0200 C.2    13  LYS13       0.2287
     13  O         -5.5540   28.3710    6.6340 O.2    13  LYS13      -0.2864
     14  CB        -6.9030   25.3240    6.9380 C.3    13  LYS13       0.0298
     15  CG        -6.8790   23.9660    7.6430 C.3    13  LYS13       0.0038
     16  CD        -5.4810   23.6140    8.1380 C.3    13  LYS13       0.0206
     17  CE        -5.3910   22.1900    8.6630 C.3    13  LYS13       0.1093
     18  NZ        -4.0820   21.9410    9.3370 N.3    13  LYS13      -0.1314
     19  N         -9.7400   18.9150    6.3060 N.3    61  SER61      -0.1202
     20  CA        -9.0080   18.7430    7.5570 C.3    61  SER61       0.2020
     21  C        -10.0870   18.3860    8.5830 C.2    61  SER61       0.2618
     22  O        -11.2670   18.3350    8.2310 O.2    61  SER61      -0.2717
     23  CB        -8.2520   20.0210    7.9460 C.3    61  SER61       0.2103
     24  OG        -9.1220   21.1360    8.1370 O.3    61  SER61      -0.2182
     25  N         -9.7020   18.1270    9.8300 N.am   62  LYS62      -0.1979
     26  CA       -10.6740   17.7230   10.8610 C.3    62  LYS62       0.1596
     27  C        -11.9240   18.6060   10.9040 C.2    62  LYS62       0.2287
     28  O        -11.8310   19.8230   11.0550 O.2    62  LYS62      -0.2864
     29  CB       -10.0280   17.6570   12.2500 C.3    62  LYS62       0.0298
     30  CG       -11.0360   17.4500   13.3840 C.3    62  LYS62       0.0038
     31  CD       -10.5900   16.4000   14.3890 C.3    62  LYS62       0.0206
     32  CE        -9.4100   16.8680   15.2220 C.3    62  LYS62       0.1093
     33  NZ        -8.7190   15.7410   15.9090 N.3    62  LYS62      -0.1314
     34  N         -5.6680   10.2210    9.6930 N.3   151  GLU151     -0.1245
     35  CA        -5.8240   11.2770   10.6990 C.3   151  GLU151      0.1567
     36  C         -5.3770   10.8160   12.0850 C.2   151  GLU151      0.2260
     37  O         -5.3060   11.6160   13.0220 O.2   151  GLU151     -0.2867
     38  CB        -7.2830   11.7450   10.7890 C.3   151  GLU151      0.0388
     39  CG        -7.7540   12.5950    9.6170 C.3   151  GLU151      0.1160
     40  CD        -6.9910   13.9050    9.4800 C.2   151  GLU151      0.3649
     41  OE1       -6.9540   14.7070   10.4450 O.co2 151  GLU151     -0.2457
     42  OE2       -6.4270   14.1330    8.3930 O.co2 151  GLU151     -0.2457
     43  N         -2.4640    9.7440   14.2050 N.3   153  HIS153     -0.1241
     44  CA        -1.0000    9.8370   14.1920 C.3   153  HIS153      0.1621
     45  C         -0.3140    8.9680   15.2520 C.2   153  HIS153      0.2264
     46  O          0.8840    9.1040   15.4920 O.2   153  HIS153     -0.2867
     47  CB        -0.5690   11.3100   14.3090 C.3   153  HIS153      0.0745
     48  CG        -1.1850   12.1820   13.2620 C.ar  153  HIS153      0.0817
     49  ND1       -0.7990   12.1350   11.9420 N.ar  153  HIS153     -0.2268
     50  CD2       -2.2020   13.0760   13.3270 C.ar  153  HIS153      0.1154
     51  CE1       -1.5330   12.9810   11.2410 C.ar  153  HIS153      0.1986
     52  NE2       -2.3940   13.5640   12.0580 N.ar  153  HIS153     -0.2212
     53  N          0.6850   13.1770   17.8750 N.3   172  ARG172     -0.1231
     54  CA         0.6230   14.6090   17.6150 C.3   172  ARG172      0.1694
     55  C          1.4250   15.3240   18.6990 C.2   172  ARG172      0.2591
     56  O          1.2130   15.0830   19.8850 O.2   172  ARG172     -0.2718
     57  CB        -0.8340   15.0760   17.6390 C.3   172  ARG172      0.0321
     58  CG        -1.0120   16.5880   17.5970 C.3   172  ARG172      0.0489
     59  CD        -2.4750   17.0020   17.6670 C.3   172  ARG172      0.2205
     60  NE        -3.2510   16.4180   16.5730 N.pl3 172  ARG172     -0.0865
     61  CZ        -3.2700   16.8710   15.3200 C.cat 172  ARG172      0.5346
     62  NH1       -2.5570   17.9370   14.9710 N.pl3 172  ARG172      0.1354
     63  NH2       -4.0090   16.2500   14.4110 N.pl3 172  ARG172      0.1354
     64  N          2.3650   16.1690   18.2790 N.am  173  LYS173     -0.1980
     65  CA         3.1920   16.9560   19.1880 C.3   173  LYS173      0.1596
     66  C          2.3880   17.5050   20.3570 C.2   173  LYS173      0.2287
     67  O          1.3730   18.1710   20.1690 O.2   173  LYS173     -0.2864
     68  CB         3.8490   18.1260   18.4480 C.3   173  LYS173      0.0298
     69  CG         5.1610   17.7810   17.7630 C.3   173  LYS173      0.0038
     70  CD         5.9760   19.0360   17.4890 C.3   173  LYS173      0.0206
     71  CE         5.7280   19.5770   16.0930 C.3   173  LYS173      0.1093
     72  NZ         6.0600   21.0210   15.9700 N.3   173  LYS173     -0.1314
     73  N         10.5040   16.3170    4.3170 N.3   207  LYS207     -0.1245
     74  CA         9.1450   16.7930    4.0600 C.3   207  LYS207      0.1561
     75  C          9.1250   17.4950    2.7230 C.2   207  LYS207      0.2260
     76  O          9.9360   18.3900    2.4920 O.2   207  LYS207     -0.2867
     77  CB         8.7140   17.7930    5.1290 C.3   207  LYS207      0.0271
     78  CG         9.2330   17.4470    6.5090 C.3   207  LYS207      0.0035
     79  CD         8.2220   16.6790    7.3160 C.3   207  LYS207      0.0206
     80  CE         7.4470   17.6560    8.1970 C.3   207  LYS207      0.1093
     81  NZ         6.9510   17.0120    9.4450 N.3   207  LYS207     -0.1314
     82  N          6.7710   19.5130   -0.3180 N.3   209  TYR209     -0.1241
     83  CA         5.5840   20.3280   -0.5070 C.3   209  TYR209      0.1605
     84  C          5.5200   20.7410   -1.9650 C.2   209  TYR209      0.2264
     85  O          6.3420   21.5540   -2.4130 O.2   209  TYR209     -0.2867
     86  CB         5.6820   21.5980    0.3440 C.3   209  TYR209      0.0534
     87  CG         5.7320   21.3770    1.8320 C.ar  209  TYR209     -0.0201
     88  CD1        6.9310   21.0340    2.4700 C.ar  209  TYR209     -0.0009
     89  CD2        4.5850   21.5560    2.6180 C.ar  209  TYR209     -0.0009
     90  CE1        6.9820   20.8510    3.8410 C.ar  209  TYR209      0.0417
     91  CE2        4.6320   21.3740    3.9950 C.ar  209  TYR209      0.0417
     92  CZ         5.8320   21.0180    4.5960 C.ar  209  TYR209      0.1957
     93  OH         5.8900   20.8370    5.9630 O.3   209  TYR209     -0.2866
     94  N         13.5140   17.3000    9.0570 N.3   221  ARG221     -0.1245
     95  CA        13.3610   17.4700   10.4960 C.3   221  ARG221      0.1563
     96  C         13.7560   16.1720   11.1590 C.2   221  ARG221      0.2260
     97  O         13.6660   15.1010   10.5390 O.2   221  ARG221     -0.2867
     98  CB        11.9180   17.8410   10.8740 C.3   221  ARG221      0.0307
     99  CG        11.4400   19.1420   10.2420 C.3   221  ARG221      0.0489
    100  CD        10.1900   19.7240   10.8880 C.3   221  ARG221      0.2205
    101  NE         9.5890   20.7250   10.0060 N.pl3 221  ARG221     -0.0865
    102  CZ         8.3920   21.2830   10.1840 C.cat 221  ARG221      0.5346
    103  NH1        7.6400   20.9590   11.2300 N.pl3 221  ARG221      0.1354
    104  NH2        7.9500   22.1840    9.3130 N.pl3 221  ARG221      0.1354
    105  N         13.8910   22.6860   19.0680 N.3   232  ARG232     -0.1245
    106  CA        13.3290   24.0220   18.8520 C.3   232  ARG232      0.1563
    107  C         14.4170   25.0860   18.8110 C.2   232  ARG232      0.2260
    108  O         15.4130   24.9890   19.5320 O.2   232  ARG232     -0.2867
    109  CB        12.2700   24.3630   19.9120 C.3   232  ARG232      0.0307
    110  CG        11.1480   23.3390   20.0000 C.3   232  ARG232      0.0489
    111  CD         9.8350   23.9360   20.4720 C.3   232  ARG232      0.2205
    112  NE         8.7540   22.9480   20.4150 N.pl3 232  ARG232     -0.0865
    113  CZ         7.8600   22.8490   19.4310 C.cat 232  ARG232      0.5346
    114  NH1        7.8890   23.6870   18.3990 N.pl3 232  ARG232      0.1354
    115  NH2        6.9240   21.9080   19.4810 N.pl3 232  ARG232      0.1354
    116  N         10.2410   24.6600   15.4940 N.3   238  GLU238     -0.1245
    117  CA        10.9620   23.4020   15.2910 C.3   238  GLU238      0.1567
    118  C         12.1180   23.5740   14.2960 C.2   238  GLU238      0.2260
    119  O         11.9540   24.1960   13.2440 O.2   238  GLU238     -0.2867
    120  CB        10.0170   22.2820   14.8420 C.3   238  GLU238      0.0388
    121  CG        10.7050   20.9320   14.6670 C.3   238  GLU238      0.1160
    122  CD         9.7330   19.7810   14.4930 C.2   238  GLU238      0.3649
    123  OE1        8.5950   20.0050   14.0300 O.co2 238  GLU238     -0.2457
    124  OE2       10.1120   18.6410   14.8180 O.co2 238  GLU238     -0.2457
    125  N          5.8720   12.7600    2.7920 N.3   268  ASP268     -0.1239
    126  CA         7.1240   12.4650    3.4830 C.3   268  ASP268      0.1674
    127  C          7.9600   11.4900    2.6790 C.2   268  ASP268      0.2266
    128  O          7.4220   10.5390    2.1000 O.2   268  ASP268     -0.2867
    129  CB         6.8580   11.8460    4.8600 C.3   268  ASP268      0.1410
    130  CG         6.1130   12.7770    5.7840 C.2   268  ASP268      0.3668
    131  OD1        6.2890   14.0070    5.6780 O.co2 268  ASP268     -0.2456
    132  OD2        5.3640   12.2770    6.6310 O.co2 268  ASP268     -0.2456
    133  N          4.0030    8.5480    3.5140 N.3   280  ASP280     -0.1239
    134  CA         2.8540    9.3450    3.9670 C.3   280  ASP280      0.1674
    135  C          2.5560   10.3840    2.8920 C.2   280  ASP280      0.2266
    136  O          3.4650   11.0790    2.4500 O.2   280  ASP280     -0.2867
    137  CB         3.2270   10.0450    5.2920 C.3   280  ASP280      0.1410
    138  CG         2.0510   10.7280    5.9780 C.2   280  ASP280      0.3668
    139  OD1        0.8780   10.3770    5.7600 O.co2 280  ASP280     -0.2456
    140  OD2        2.3050   11.6330    6.7970 O.co2 280  ASP280     -0.2456
    141  N         -0.1040   13.5220    2.5780 N.3   282  ASN282     -0.1240
    142  CA        -1.0650   14.2590    3.3890 C.3   282  ASN282      0.1653
    143  C         -2.0450   15.1170    2.5990 C.2   282  ASN282      0.2266
    144  O         -3.0930   15.5090    3.1150 O.2   282  ASN282     -0.2867
    145  CB        -0.3200   15.0960    4.4370 C.3   282  ASN282      0.1155
    146  CG         0.4730   14.2270    5.4020 C.2   282  ASN282      0.2627
    147  OD1       -0.0550   13.2530    5.9270 O.2   282  ASN282     -0.2716
    148  ND2        1.7430   14.5700    5.6340 N.am  282  ASN282     -0.0877
    149  N         -3.1880   18.6470    0.8220 N.3   284  PHE284     -0.1227
    150  CA        -2.9620   20.0970    0.9430 C.3   284  PHE284      0.1736
    151  C         -2.1630   20.5010    2.1880 C.2   284  PHE284      0.2596
    152  O         -2.5540   20.2110    3.3260 O.2   284  PHE284     -0.2718
    153  CB        -4.2890   20.8590    0.9020 C.3   284  PHE284      0.0547
    154  CG        -4.1430   22.3160    0.5510 C.ar  284  PHE284     -0.0202
    155  CD1       -3.6950   23.2420    1.5010 C.ar  284  PHE284     -0.0042
    156  CD2       -4.4580   22.7660   -0.7340 C.ar  284  PHE284     -0.0042
    157  CE1       -3.5630   24.5900    1.1670 C.ar  284  PHE284     -0.0003
    158  CE2       -4.3250   24.1090   -1.0740 C.ar  284  PHE284     -0.0003
    159  CZ        -3.8800   25.0210   -0.1220 C.ar  284  PHE284     -0.0000
    160  N         -1.0400   21.1680    1.9560 N.am  285  SER285     -0.1938
    161  CA        -0.1690   21.6310    3.0310 C.3   285  SER285      0.2055
    162  C          0.7540   22.7100    2.4930 C.2   285  SER285      0.2643
    163  O          1.2940   22.5770    1.3890 O.2   285  SER285     -0.2714
    164  CB         0.6600   20.4740    3.6130 C.3   285  SER285      0.2130
    165  OG         1.4140   20.9130    4.7340 O.3   285  SER285     -0.2179
    166  N          0.9150   23.7790    3.2690 N.am  286  PHE286     -0.1973
    167  CA         1.8100   24.8680    2.9190 C.3   286  PHE286      0.1639
    168  C          3.0610   24.7710    3.7810 C.2   286  PHE286      0.2290
    169  O          2.9960   24.3140    4.9270 O.2   286  PHE286     -0.2864
    170  CB         1.1550   26.2250    3.2060 C.3   286  PHE286      0.0560
    171  CG         0.1360   26.6630    2.1910 C.ar  286  PHE286     -0.0200
    172  CD1        0.2760   26.3640    0.8380 C.ar  286  PHE286     -0.0042
    173  CD2       -0.9370   27.4560    2.5920 C.ar  286  PHE286     -0.0042
    174  CE1       -0.6640   26.8100   -0.0850 C.ar  286  PHE286     -0.0003
    175  CE2       -1.8700   27.9120    1.6730 C.ar  286  PHE286     -0.0003
    176  CZ        -1.7330   27.5900    0.3330 C.ar  286  PHE286     -0.0000
    177  N          5.7050   26.4240    6.2050 N.3   288  LYS288     -0.1245
    178  CA         5.5930   27.4530    7.2340 C.3   288  LYS288      0.1561
    179  C          6.9010   28.2170    7.3410 C.2   288  LYS288      0.2260
    180  O          7.9790   27.6350    7.2070 O.2   288  LYS288     -0.2867
    181  CB         5.2680   26.8300    8.5980 C.3   288  LYS288      0.0271
    182  CG         3.8430   26.3130    8.7540 C.3   288  LYS288      0.0035
    183  CD         3.6820   24.9320    8.1400 C.3   288  LYS288      0.0206
    184  CE         2.2690   24.4000    8.3110 C.3   288  LYS288      0.1093
    185  NZ         2.1020   23.1150    7.5750 N.3   288  LYS288     -0.1314
@<TRIPOS>BOND
     1    85    84    2
     2    84    83    1
     3   158   156   ar
     4   158   159   ar
     5   156   154   ar
     6    83    82    1
     7    83    86    1
     8   159   157   ar
     9   174   176   ar
    10   174   172   ar
    11   176   175   ar
    12    86    87    1
    13   154   153    1
    14   154   155   ar
    15   149   150    1
    16   172   171   ar
    17   153   150    1
    18   150   151    1
    19   157   155   ar
    20   163   162    2
    21   175   173   ar
    22    87    88   ar
    23    87    89   ar
    24   160   151   am
    25   160   161    1
    26   128   127    2
    27   151   152    2
    28   171   173   ar
    29   171   170    1
    30   136   135    2
    31    88    90   ar
    32    76    75    2
    33   162   161    1
    34   162   166   am
    35   141   142    1
    36   143   144    2
    37   143   142    1
    38    89    91   ar
    39   127   126    1
    40    75    74    1
    41   125   126    1
    42   135   134    1
    43   167   170    1
    44   167   166    1
    45   167   168    1
    46   161   164    1
    47   142   145    1
    48   126   129    1
    49   133   134    1
    50   164   165    1
    51   168   169    2
    52    90    92   ar
    53   134   137    1
    54    91    92   ar
    55    74    73    1
    56    74    77    1
    57   145   146    1
    58    92    93    1
    59   129   130    1
    60    77    78    1
    61   137   138    1
    62   146   148   am
    63   146   147    2
    64   131   130   ar
    65   139   138   ar
    66   130   132   ar
    67   138   140   ar
    68   177   178    1
    69    19    20    1
    70    78    79    1
    71    13    12    2
    72    14    15    1
    73    14    11    1
    74    12    11    1
    75   180   179    2
    76   178   179    1
    77   178   181    1
    78    79    80    1
    79    20    23    1
    80    20    21    1
    81   185   184    1
    82    15    16    1
    83    11    10    1
    84    23    24    1
    85    16    17    1
    86   183   184    1
    87   183   182    1
    88    80    81    1
    89    22    21    2
    90    42    40   ar
    91    21    25   am
    92   181   182    1
    93    17    18    1
    94    10     3   am
    95    94    95    1
    96   104   102    1
    97    40    39    1
    98    40    41   ar
    99    39    38    1
   100    34    35    1
   101    25    26    1
   102   101   102    2
   103   101   100    1
   104   102   103    1
   105     3     4    2
   106     3     2    1
   107    99    98    1
   108    99   100    1
   109    95    98    1
   110    95    96    1
   111    97    96    2
   112    35    38    1
   113    35    36    1
   114     1     2    1
   115    26    27    1
   116    26    29    1
   117    27    28    2
   118    51    49   ar
   119    51    52   ar
   120     2     5    1
   121    49    48   ar
   122    52    50   ar
   123    36    37    2
   124     5     6    1
   125    29    30    1
   126     6     7    1
   127   119   118    2
   128    48    50   ar
   129    48    47    1
   130    30    31    1
   131     8     7    1
   132     8     9    1
   133   123   122   ar
   134    44    43    1
   135    44    47    1
   136    44    45    1
   137   118   117    1
   138    31    32    1
   139    63    61    1
   140   122   121    1
   141   122   124   ar
   142   121   120    1
   143   120   117    1
   144    62    61    1
   145    32    33    1
   146    45    46    2
   147   117   116    1
   148    61    60    2
   149    72    71    1
   150    71    70    1
   151    60    59    1
   152    70    69    1
   153    58    57    1
   154    58    59    1
   155    54    57    1
   156    54    53    1
   157    54    55    1
   158    69    68    1
   159    64    55   am
   160    64    65    1
   161   114   113    1
   162    68    65    1
   163    55    56    2
   164   107   106    1
   165   107   108    2
   166   106   105    1
   167   106   109    1
   168    65    66    1
   169   113   115    1
   170   113   112    2
   171   109   110    1
   172   110   111    1
   173    67    66    2
   174   112   111    1
