@<TRIPOS>MOLECULE
tmp/5bybA01.pdb
 177 168 0 0 0
SMALL
GASTEIGER

@<TRIPOS>ATOM
      1  N         -9.5320   27.5810   10.8900 N.3    11  LYS11      -0.1231
      2  CA        -8.1730   27.2100   11.3200 C.3    11  LYS11       0.1693
      3  C         -7.1790   27.2860   10.1530 C.2    11  LYS11       0.2591
      4  O         -6.0580   27.7690   10.3050 O.2    11  LYS11      -0.2718
      5  CB        -8.1750   25.7530   11.7790 C.3    11  LYS11       0.0285
      6  CG        -8.2320   25.4920   13.2550 C.3    11  LYS11       0.0035
      7  CD        -8.2300   23.9830   13.4570 C.3    11  LYS11       0.0206
      8  CE        -7.9670   23.6210   14.9090 C.3    11  LYS11       0.1093
      9  NZ        -7.7950   22.1520   15.1150 N.3    11  LYS11      -0.1314
     10  N         -7.5950   26.7610    9.0060 N.am   12  LYS12      -0.1980
     11  CA        -6.7420   26.7050    7.8180 C.3    12  LYS12       0.1596
     12  C         -6.8320   28.0060    7.0050 C.2    12  LYS12       0.2287
     13  O         -5.8130   28.5840    6.6460 O.2    12  LYS12      -0.2864
     14  CB        -7.0810   25.4760    6.9650 C.3    12  LYS12       0.0298
     15  CG        -7.0940   24.1510    7.7370 C.3    12  LYS12       0.0038
     16  CD        -5.7790   23.8950    8.4660 C.3    12  LYS12       0.0206
     17  CE        -5.7400   22.5490    9.1830 C.3    12  LYS12       0.1093
     18  NZ        -4.3800   22.2020    9.7210 N.3    12  LYS12      -0.1314
     19  N         -9.7350   18.9380    6.3560 N.3    60  SER60      -0.1202
     20  CA        -9.0380   18.7410    7.6210 C.3    60  SER60       0.2020
     21  C        -10.1420   18.4380    8.6360 C.2    60  SER60       0.2618
     22  O        -11.3390   18.4500    8.2820 O.2    60  SER60      -0.2717
     23  CB        -8.2200   19.9780    8.0290 C.3    60  SER60       0.2103
     24  OG        -9.0230   21.1420    8.2120 O.3    60  SER60      -0.2182
     25  N         -9.7760   18.1590    9.8830 N.am   61  LYS61      -0.1979
     26  CA       -10.7660   17.6620   10.8510 C.3    61  LYS61       0.1596
     27  C        -11.9600   18.5880   11.0110 C.2    61  LYS61       0.2287
     28  O        -11.7890   19.7930   11.2140 O.2    61  LYS61      -0.2864
     29  CB       -10.1590   17.3970   12.2340 C.3    61  LYS61       0.0298
     30  CG       -11.0250   16.4400   13.0510 C.3    61  LYS61       0.0038
     31  CD       -10.5190   16.2410   14.4660 C.3    61  LYS61       0.0206
     32  CE       -11.1850   17.2250   15.4130 C.3    61  LYS61       0.1093
     33  NZ       -10.8160   16.9440   16.8290 N.3    61  LYS61      -0.1314
     34  N         -2.4040    9.8210   14.2070 N.3   152  HIS152     -0.1241
     35  CA        -0.9280    9.8970   14.1870 C.3   152  HIS152      0.1621
     36  C         -0.2150    9.0320   15.2270 C.2   152  HIS152      0.2264
     37  O          0.9900    9.1850   15.4260 O.2   152  HIS152     -0.2867
     38  CB        -0.4760   11.3560   14.2740 C.3   152  HIS152      0.0745
     39  CG        -1.0890   12.2010   13.2160 C.ar  152  HIS152      0.0817
     40  ND1       -0.5890   12.2540   11.9340 N.ar  152  HIS152     -0.2268
     41  CD2       -2.2240   12.9410   13.2160 C.ar  152  HIS152      0.1154
     42  CE1       -1.3590   13.0410   11.2050 C.ar  152  HIS152      0.1986
     43  NE2       -2.3660   13.4590   11.9560 N.ar  152  HIS152     -0.2212
     44  N          0.9990   13.2850   17.4940 N.3   171  ARG171     -0.1231
     45  CA         0.9330   14.7020   17.2250 C.3   171  ARG171      0.1694
     46  C          1.6910   15.4370   18.3260 C.2   171  ARG171      0.2591
     47  O          1.3550   15.2940   19.5080 O.2   171  ARG171     -0.2718
     48  CB        -0.5490   15.1200   17.1960 C.3   171  ARG171      0.0321
     49  CG        -0.8260   16.6140   17.2790 C.3   171  ARG171      0.0489
     50  CD        -2.3230   16.9370   17.2500 C.3   171  ARG171      0.2205
     51  NE        -2.9330   16.4000   16.0310 N.pl3 171  ARG171     -0.0865
     52  CZ        -2.8490   16.9520   14.8160 C.cat 171  ARG171      0.5346
     53  NH1       -2.1980   18.0970   14.6170 N.pl3 171  ARG171      0.1354
     54  NH2       -3.4340   16.3510   13.7840 N.pl3 171  ARG171      0.1354
     55  N          2.7310   16.1710   17.9230 N.am  172  LYS172     -0.1980
     56  CA         3.5810   16.9920   18.7890 C.3   172  LYS172      0.1596
     57  C          2.8190   17.6550   19.9120 C.2   172  LYS172      0.2287
     58  O          1.8380   18.3300   19.6640 O.2   172  LYS172     -0.2864
     59  CB         4.2040   18.1220   17.9810 C.3   172  LYS172      0.0298
     60  CG         5.5710   17.8310   17.4050 C.3   172  LYS172      0.0038
     61  CD         6.1980   19.1230   16.8830 C.3   172  LYS172      0.0206
     62  CE         5.7670   19.4070   15.4580 C.3   172  LYS172      0.1093
     63  NZ         5.3740   20.8310   15.2670 N.3   172  LYS172     -0.1314
     64  N         10.5530   16.3300    4.2450 N.3   206  LYS206     -0.1245
     65  CA         9.1770   16.7610    4.0160 C.3   206  LYS206      0.1561
     66  C          9.1400   17.5110    2.6980 C.2   206  LYS206      0.2260
     67  O          9.8850   18.4630    2.5250 O.2   206  LYS206     -0.2867
     68  CB         8.6950   17.6780    5.1480 C.3   206  LYS206      0.0271
     69  CG         8.8610   17.1200    6.5690 C.3   206  LYS206      0.0035
     70  CD         7.8870   15.9770    6.8700 C.3   206  LYS206      0.0206
     71  CE         6.6340   16.4500    7.6160 C.3   206  LYS206      0.1093
     72  NZ         5.3240   15.8680    7.1530 N.3   206  LYS206     -0.1314
     73  N          6.8480   19.5790   -0.3770 N.3   208  TYR208     -0.1241
     74  CA         5.6320   20.3600   -0.6160 C.3   208  TYR208      0.1605
     75  C          5.5980   20.8100   -2.0810 C.2   208  TYR208      0.2264
     76  O          6.4820   21.5720   -2.5400 O.2   208  TYR208     -0.2867
     77  CB         5.5600   21.5760    0.3190 C.3   208  TYR208      0.0534
     78  CG         5.6840   21.2320    1.7810 C.ar  208  TYR208     -0.0201
     79  CD1        6.9410   21.0120    2.3660 C.ar  208  TYR208     -0.0009
     80  CD2        4.5490   21.1070    2.5850 C.ar  208  TYR208     -0.0009
     81  CE1        7.0630   20.6850    3.7070 C.ar  208  TYR208      0.0417
     82  CE2        4.6780   20.7650    3.9290 C.ar  208  TYR208      0.0417
     83  CZ         5.9420   20.5550    4.4760 C.ar  208  TYR208      0.1957
     84  OH         6.0820   20.2070    5.8050 O.3   208  TYR208     -0.2866
     85  N         13.4980   17.3830    8.9440 N.3   220  ARG220     -0.1245
     86  CA        13.2000   17.5530   10.3450 C.3   220  ARG220      0.1563
     87  C         13.6530   16.3030   11.0260 C.2   220  ARG220      0.2260
     88  O         13.6440   15.2320   10.4210 O.2   220  ARG220     -0.2867
     89  CB        11.7010   17.7480   10.5550 C.3   220  ARG220      0.0307
     90  CG        11.3410   19.2070   10.7340 C.3   220  ARG220      0.0489
     91  CD         9.8400   19.4940   10.7690 C.3   220  ARG220      0.2205
     92  NE         9.4710   20.0120    9.4680 N.pl3 220  ARG220     -0.0865
     93  CZ         8.3220   20.5910    9.1360 C.cat 220  ARG220      0.5346
     94  NH1        7.3500   20.7730   10.0420 N.pl3 220  ARG220      0.1354
     95  NH2        8.1700   20.9940    7.8600 N.pl3 220  ARG220      0.1354
     96  N         13.5160   23.0410   18.9560 N.3   231  ARG231     -0.1245
     97  CA        12.8080   24.3050   18.7100 C.3   231  ARG231      0.1563
     98  C         13.7680   25.4810   18.5400 C.2   231  ARG231      0.2260
     99  O         14.8260   25.5060   19.1670 O.2   231  ARG231     -0.2867
    100  CB        11.8260   24.6040   19.8370 C.3   231  ARG231      0.0307
    101  CG        10.8900   23.4440   20.1530 C.3   231  ARG231      0.0489
    102  CD         9.5420   23.9250   20.6520 C.3   231  ARG231      0.2205
    103  NE         8.4690   22.9440   20.4440 N.pl3 231  ARG231     -0.0865
    104  CZ         7.5510   23.0120   19.4760 C.cat 231  ARG231      0.5346
    105  NH1        7.5560   24.0160   18.5970 N.pl3 231  ARG231      0.1354
    106  NH2        6.6190   22.0710   19.3900 N.pl3 231  ARG231      0.1354
    107  N         10.1650   29.0820   19.2550 N.3   235  GLY235     -0.1210
    108  CA         9.3790   27.8710   19.5270 C.3   235  GLY235      0.1956
    109  C          8.7650   27.2370   18.2790 C.2   235  GLY235      0.2612
    110  O          7.6500   26.6990   18.3170 O.2   235  GLY235     -0.2717
    111  N          9.4950   27.3220   17.1660 N.am  236  LYS236     -0.1965
    112  CA         9.1620   26.5940   15.9350 C.3   236  LYS236      0.1728
    113  C         10.1720   25.4700   15.6940 C.2   236  LYS236      0.2616
    114  O         11.3800   25.6370   15.9140 O.2   236  LYS236     -0.2715
    115  CB         9.1200   27.5460   14.7390 C.3   236  LYS236      0.0311
    116  CG         7.8020   28.2890   14.6180 C.3   236  LYS236      0.0038
    117  CD         8.0110   29.6440   13.9740 C.3   236  LYS236      0.0206
    118  CE         6.7880   30.5190   14.1670 C.3   236  LYS236      0.1093
    119  NZ         7.0050   31.8260   13.4980 N.3   236  LYS236     -0.1314
    120  N          9.6710   24.3190   15.2570 N.am  237  GLU237     -0.1977
    121  CA        10.5350   23.1790   15.0240 C.3   237  GLU237      0.1602
    122  C         11.6760   23.5140   14.0380 C.2   237  GLU237      0.2287
    123  O         11.4330   24.0490   12.9590 O.2   237  GLU237     -0.2864
    124  CB         9.7140   21.9690   14.5790 C.3   237  GLU237      0.0415
    125  CG        10.5540   20.7340   14.2990 C.3   237  GLU237      0.1163
    126  CD         9.7390   19.4520   14.2940 C.2   237  GLU237      0.3649
    127  OE1        8.6000   19.4320   13.7920 O.co2 237  GLU237     -0.2457
    128  OE2       10.2480   18.4430   14.8130 O.co2 237  GLU237     -0.2457
    129  N          1.5260   17.8610    0.3300 N.3   265  GLY265     -0.1225
    130  CA         2.5840   17.5040    1.2290 C.3   265  GLY265      0.1811
    131  C          2.7720   15.9940    1.2440 C.2   265  GLY265      0.2280
    132  O          1.7950   15.2240    1.2680 O.2   265  GLY265     -0.2866
    133  N         -0.0920   13.6180    2.5010 N.3   281  ASN281     -0.1240
    134  CA        -1.0390   14.3190    3.3530 C.3   281  ASN281      0.1653
    135  C         -1.9460   15.2690    2.6140 C.2   281  ASN281      0.2266
    136  O         -2.7440   15.9180    3.2430 O.2   281  ASN281     -0.2867
    137  CB        -0.2540   15.0980    4.4230 C.3   281  ASN281      0.1155
    138  CG         0.5950   14.1680    5.2590 C.2   281  ASN281      0.2627
    139  OD1        0.0760   13.1530    5.6830 O.2   281  ASN281     -0.2716
    140  ND2        1.9010   14.4530    5.4250 N.am  281  ASN281     -0.0877
    141  N         -3.2190   18.6760    0.7280 N.3   283  PHE283     -0.1227
    142  CA        -2.9960   20.1230    0.8360 C.3   283  PHE283      0.1736
    143  C         -2.2040   20.5360    2.0500 C.2   283  PHE283      0.2596
    144  O         -2.5940   20.3030    3.2030 O.2   283  PHE283     -0.2718
    145  CB        -4.3100   20.8740    0.8190 C.3   283  PHE283      0.0547
    146  CG        -4.1600   22.3400    0.5510 C.ar  283  PHE283     -0.0202
    147  CD1       -3.7510   23.2170    1.5660 C.ar  283  PHE283     -0.0042
    148  CD2       -4.4290   22.8500   -0.7220 C.ar  283  PHE283     -0.0042
    149  CE1       -3.6470   24.5960    1.3170 C.ar  283  PHE283     -0.0003
    150  CE2       -4.3140   24.2140   -0.9740 C.ar  283  PHE283     -0.0003
    151  CZ        -3.9280   25.0890    0.0470 C.ar  283  PHE283     -0.0000
    152  N         -1.0730   21.1660    1.7830 N.am  284  SER284     -0.1938
    153  CA        -0.1720   21.5430    2.8490 C.3   284  SER284      0.2055
    154  C          0.8030   22.6080    2.3580 C.2   284  SER284      0.2643
    155  O          1.3590   22.4800    1.2690 O.2   284  SER284     -0.2714
    156  CB         0.5720   20.3110    3.3880 C.3   284  SER284      0.2130
    157  OG         1.3900   20.6940    4.5060 O.3   284  SER284     -0.2179
    158  N          0.9720   23.6610    3.1620 N.am  285  PHE285     -0.1973
    159  CA         1.9240   24.7420    2.8930 C.3   285  PHE285      0.1639
    160  C          3.2080   24.5800    3.6940 C.2   285  PHE285      0.2290
    161  O          3.1770   24.0720    4.8250 O.2   285  PHE285     -0.2864
    162  CB         1.3240   26.0880    3.3050 C.3   285  PHE285      0.0560
    163  CG         0.2100   26.5710    2.4170 C.ar  285  PHE285     -0.0200
    164  CD1        0.2340   26.3410    1.0460 C.ar  285  PHE285     -0.0042
    165  CD2       -0.8590   27.2720    2.9660 C.ar  285  PHE285     -0.0042
    166  CE1       -0.7840   26.7990    0.2340 C.ar  285  PHE285     -0.0003
    167  CE2       -1.8760   27.7480    2.1560 C.ar  285  PHE285     -0.0003
    168  CZ        -1.8390   27.5190    0.7870 C.ar  285  PHE285     -0.0000
    169  N          5.7680   26.5720    5.9770 N.3   287  LYS287     -0.1245
    170  CA         5.6580   27.7110    6.8980 C.3   287  LYS287      0.1561
    171  C          6.9920   28.4690    7.0510 C.2   287  LYS287      0.2260
    172  O          8.0710   27.8880    6.9080 O.2   287  LYS287     -0.2867
    173  CB         5.1970   27.2190    8.2740 C.3   287  LYS287      0.0271
    174  CG         3.7850   26.6290    8.3210 C.3   287  LYS287      0.0035
    175  CD         3.7760   25.1080    8.1870 C.3   287  LYS287      0.0206
    176  CE         2.4010   24.4820    8.4090 C.3   287  LYS287      0.1093
    177  NZ         2.4310   23.0150    8.0940 N.3   287  LYS287     -0.1314
@<TRIPOS>BOND
     1    76    75    2
     2    75    74    1
     3   150   148   ar
     4   150   151   ar
     5   148   146   ar
     6    74    73    1
     7    74    77    1
     8   151   149   ar
     9   166   168   ar
    10   166   164   ar
    11    77    78    1
    12   129   130    1
    13   146   145    1
    14   146   147   ar
    15   141   142    1
    16   168   167   ar
    17   145   142    1
    18   142   143    1
    19   164   163   ar
    20   130   131    1
    21   131   132    2
    22   155   154    2
    23   149   147   ar
    24    78    79   ar
    25    78    80   ar
    26   152   143   am
    27   152   153    1
    28   143   144    2
    29   167   165   ar
    30   154   153    1
    31   154   158   am
    32    79    81   ar
    33   163   165   ar
    34   163   162    1
    35   133   134    1
    36    67    66    2
    37    80    82   ar
    38   135   136    2
    39   135   134    1
    40    66    65    1
    41   153   156    1
    42   159   158    1
    43   159   162    1
    44   159   160    1
    45   134   137    1
    46   156   157    1
    47   160   161    2
    48    81    83   ar
    49    82    83   ar
    50    65    64    1
    51    65    68    1
    52   137   138    1
    53    83    84    1
    54    68    69    1
    55   138   140   am
    56   138   139    2
    57   169   170    1
    58    19    20    1
    59    69    70    1
    60    13    12    2
    61    70    71    1
    62   170   171    1
    63   170   173    1
    64   172   171    2
    65    14    15    1
    66    14    11    1
    67    12    11    1
    68    72    71    1
    69    20    23    1
    70    20    21    1
    71    15    16    1
    72    11    10    1
    73    95    93    1
    74    23    24    1
    75   177   176    1
    76   175   174    1
    77   175   176    1
    78   173   174    1
    79    22    21    2
    80    16    17    1
    81    21    25   am
    82    85    86    1
    83    10     3   am
    84    93    92    2
    85    93    94    1
    86    17    18    1
    87    92    91    1
    88    25    26    1
    89     3     4    2
    90     3     2    1
    91    86    89    1
    92    86    87    1
    93    88    87    2
    94    89    90    1
    95    90    91    1
    96    26    27    1
    97    26    29    1
    98     1     2    1
    99    27    28    2
   100    42    40   ar
   101    42    43   ar
   102     2     5    1
   103     5     6    1
   104    40    39   ar
   105    43    41   ar
   106    29    30    1
   107   123   122    2
   108    30    31    1
   109    41    39   ar
   110    39    38    1
   111     6     7    1
   112     7     8    1
   113   119   118    1
   114    54    52    1
   115   127   126   ar
   116   117   118    1
   117   117   116    1
   118   122   121    1
   119    35    34    1
   120    35    38    1
   121    35    36    1
   122   126   125    1
   123   126   128   ar
   124   125   124    1
   125    31    32    1
   126   124   121    1
   127    53    52    1
   128   116   115    1
   129   115   112    1
   130    52    51    2
   131     8     9    1
   132   121   120    1
   133    36    37    2
   134   120   113   am
   135    63    62    1
   136    32    33    1
   137    62    61    1
   138   113   114    2
   139   113   112    1
   140   112   111    1
   141    51    50    1
   142    61    60    1
   143   111   109   am
   144    48    45    1
   145    48    49    1
   146    45    44    1
   147    45    46    1
   148    50    49    1
   149    60    59    1
   150    55    46   am
   151    55    56    1
   152    59    56    1
   153   109   110    2
   154   109   108    1
   155    46    47    2
   156    98    97    1
   157    98    99    2
   158   105   104    1
   159    97    96    1
   160    97   100    1
   161    56    57    1
   162   107   108    1
   163   106   104    1
   164   104   103    2
   165    58    57    2
   166   100   101    1
   167   101   102    1
   168   103   102    1
