@<TRIPOS>MOLECULE
tmp/5byfA00.pdb
 125 114 0 0 0
SMALL
GASTEIGER

@<TRIPOS>ATOM
      1  N         14.8920    0.9370   -9.4350 N.3   187  ASN187     -0.1225
      2  CA        14.3060    1.9920  -10.2600 C.3   187  ASN187      0.1785
      3  C         13.3100    2.9040   -9.4880 C.2   187  ASN187      0.2597
      4  O         13.1090    2.7360   -8.2760 O.2   187  ASN187     -0.2718
      5  CB        13.7240    1.4150  -11.5290 C.3   187  ASN187      0.1169
      6  CG        12.4660    0.6010  -11.3210 C.2   187  ASN187      0.2627
      7  OD1       11.6280    0.8440  -10.4510 O.2   187  ASN187     -0.2716
      8  ND2       12.3130   -0.3880  -12.1760 N.am  187  ASN187     -0.0877
      9  N         12.7270    3.8780  -10.2050 N.am  188  GLU188     -0.1979
     10  CA        11.9100    4.8840   -9.5660 C.3   188  GLU188      0.1602
     11  C         10.6740    4.2810   -8.9240 C.2   188  GLU188      0.2287
     12  O         10.4440    4.5100   -7.7130 O.2   188  GLU188     -0.2864
     13  CB        11.4930    5.9650  -10.5320 C.3   188  GLU188      0.0415
     14  CG        12.6860    6.7580  -11.0330 C.3   188  GLU188      0.1163
     15  CD        12.3430    7.6130  -12.2590 C.2   188  GLU188      0.3649
     16  OE1       12.5200    7.1460  -13.4340 O.co2 188  GLU188     -0.2457
     17  OE2       11.8720    8.7370  -12.0360 O.co2 188  GLU188     -0.2457
     18  N         17.7950    4.1110  -10.7090 N.3   223  THR223     -0.1203
     19  CA        17.8080    4.2960  -12.1540 C.3   223  THR223      0.1994
     20  C         16.6260    5.0660  -12.5440 C.2   223  THR223      0.2618
     21  O         15.5630    4.9410  -11.9110 O.2   223  THR223     -0.2717
     22  CB        17.8420    2.9810  -12.8750 C.3   223  THR223      0.1784
     23  OG1       16.8140    2.1300  -12.4050 O.3   223  THR223     -0.2211
     24  CG2       19.2410    2.3190  -12.6320 C.3   223  THR223      0.0376
     25  N         16.8170    5.9080  -13.5570 N.am  224  LEU224     -0.1965
     26  CA        15.8370    6.8990  -13.9500 C.3   224  LEU224      0.1728
     27  C         15.4580    6.9050  -15.4390 C.2   224  LEU224      0.2617
     28  O         15.2460    7.9530  -16.0020 O.2   224  LEU224     -0.2715
     29  CB        16.3790    8.2680  -13.6170 C.3   224  LEU224      0.0311
     30  CG        16.8450    8.5350  -12.1940 C.3   224  LEU224      0.0022
     31  CD1       17.4700    9.9020  -12.1250 C.3   224  LEU224      0.0001
     32  CD2       15.6620    8.4270  -11.2470 C.3   224  LEU224      0.0001
     33  N         15.3070    5.7190  -16.0380 N.am  225  GLY225     -0.1940
     34  CA        15.0280    5.5740  -17.4900 C.3   225  GLY225      0.2014
     35  C         15.9730    6.4210  -18.3140 C.2   225  GLY225      0.2638
     36  O         17.1990    6.4390  -18.0930 O.2   225  GLY225     -0.2714
     37  N         15.3720    7.2140  -19.2110 N.am  226  ALA226     -0.1977
     38  CA        16.1110    8.2110  -20.0180 C.3   226  ALA226      0.1597
     39  C         16.9370    9.2310  -19.1760 C.2   226  ALA226      0.2287
     40  O         17.9060    9.8110  -19.6880 O.2   226  ALA226     -0.2864
     41  CB        15.1470    8.9160  -21.0050 C.3   226  ALA226      0.0319
     42  N         18.9840    8.6340  -16.8740 N.3   228  GLY228     -0.1225
     43  CA        20.2310    8.0370  -16.3830 C.3   228  GLY228      0.1811
     44  C         20.0160    7.4070  -14.9990 C.2   228  GLY228      0.2280
     45  O         19.2100    6.5260  -14.8540 O.2   228  GLY228     -0.2866
     46  N         22.2730   10.7520  -19.1570 N.3   244  THR244     -0.1203
     47  CA        22.6400    9.8530  -20.2310 C.3   244  THR244      0.1994
     48  C         22.0700   10.3770  -21.5530 C.2   244  THR244      0.2617
     49  O         21.0110   11.0060  -21.5600 O.2   244  THR244     -0.2717
     50  CB        22.1680    8.4130  -19.9360 C.3   244  THR244      0.1784
     51  OG1       22.9040    7.5090  -20.7520 O.3   244  THR244     -0.2211
     52  CG2       20.6330    8.2220  -20.1500 C.3   244  THR244      0.0376
     53  N         22.7650   10.0940  -22.6580 N.am  245  GLU245     -0.1979
     54  CA        22.4880   10.7550  -23.9660 C.3   245  GLU245      0.1602
     55  C         21.0620   10.4230  -24.5150 C.2   245  GLU245      0.2287
     56  O         20.6560    9.2720  -24.4330 O.2   245  GLU245     -0.2864
     57  CB        23.6120   10.3210  -24.9360 C.3   245  GLU245      0.0415
     58  CG        23.5620   10.8900  -26.3630 C.3   245  GLU245      0.1163
     59  CD        24.3520   12.1640  -26.5650 C.2   245  GLU245      0.3649
     60  OE1       25.3190   12.4200  -25.8090 O.co2 245  GLU245     -0.2457
     61  OE2       24.0250   12.9060  -27.5130 O.co2 245  GLU245     -0.2457
     62  N         18.8730    8.9340  -26.8720 N.3   247  VAL247     -0.1245
     63  CA        18.9880    8.0070  -27.9910 C.3   247  VAL247      0.1561
     64  C         17.5400    7.7110  -28.3780 C.2   247  VAL247      0.2260
     65  O         16.5860    8.0520  -27.6340 O.2   247  VAL247     -0.2867
     66  CB        19.8270    6.7100  -27.6890 C.3   247  VAL247      0.0252
     67  CG1       21.2840    7.0750  -27.4300 C.3   247  VAL247      0.0019
     68  CG2       19.2730    5.9140  -26.5040 C.3   247  VAL247      0.0019
     69  N         15.0800    5.1820  -28.4390 N.3   249  ALA249     -0.1245
     70  CA        14.7640    3.9110  -27.8420 C.3   249  ALA249      0.1562
     71  C         13.8630    3.1030  -28.7350 C.2   249  ALA249      0.2260
     72  O         12.9360    3.6040  -29.2950 O.2   249  ALA249     -0.2867
     73  CB        14.0830    4.1050  -26.5060 C.3   249  ALA249      0.0290
     74  N         12.9430   -0.8170  -24.4860 N.3   252  THR252     -0.1218
     75  CA        13.6810   -0.6670  -23.2260 C.3   252  THR252      0.1862
     76  C         13.5780   -1.8750  -22.3230 C.2   252  THR252      0.2287
     77  O         14.0150   -1.7890  -21.2040 O.2   252  THR252     -0.2866
     78  CB        13.1660    0.5550  -22.4400 C.3   252  THR252      0.1770
     79  OG1       11.7600    0.4290  -22.2390 O.3   252  THR252     -0.2211
     80  CG2       13.3990    1.8270  -23.1950 C.3   252  THR252      0.0375
     81  N         16.3030   -3.2140  -19.6990 N.3   255  ALA255     -0.1231
     82  CA        17.3740   -2.2410  -19.6920 C.3   255  ALA255      0.1694
     83  C         18.0000   -2.2030  -18.2890 C.2   255  ALA255      0.2592
     84  O         19.1790   -2.0160  -18.1660 O.2   255  ALA255     -0.2718
     85  CB        16.8850   -0.8530  -20.0810 C.3   255  ALA255      0.0304
     86  N         17.2010   -2.3350  -17.2530 N.am  256  GLY256     -0.1957
     87  CA        17.6790   -2.2790  -15.8580 C.3   256  GLY256      0.1869
     88  C         18.6100   -3.4030  -15.5690 C.2   256  GLY256      0.2309
     89  O         19.5990   -3.2420  -14.8500 O.2   256  GLY256     -0.2863
     90  N         21.8850   -2.6870  -17.1510 N.3   259  PHE259     -0.1241
     91  CA        22.5680   -1.7040  -16.2980 C.3   259  PHE259      0.1605
     92  C         23.2270   -2.4650  -15.0670 C.2   259  PHE259      0.2264
     93  O         24.4380   -2.3320  -14.8380 O.2   259  PHE259     -0.2867
     94  CB        21.5520   -0.6750  -15.7610 C.3   259  PHE259      0.0534
     95  CG        22.1680    0.3970  -14.8920 C.ar  259  PHE259     -0.0203
     96  CD1       22.7510    1.5270  -15.4670 C.ar  259  PHE259     -0.0042
     97  CD2       22.2370    0.2570  -13.5260 C.ar  259  PHE259     -0.0042
     98  CE1       23.3400    2.5210  -14.7160 C.ar  259  PHE259     -0.0003
     99  CE2       22.8350    1.2380  -12.7470 C.ar  259  PHE259     -0.0003
    100  CZ        23.3690    2.3850  -13.3440 C.ar  259  PHE259     -0.0000
    101  N         25.4130    3.1370  -17.7650 N.3   283  ASN283     -0.1240
    102  CA        24.3380    3.8690  -18.3980 C.3   283  ASN283      0.1653
    103  C         24.4370    3.6640  -19.9260 C.2   283  ASN283      0.2266
    104  O         23.4150    3.4820  -20.6340 O.2   283  ASN283     -0.2867
    105  CB        24.4700    5.4010  -18.1210 C.3   283  ASN283      0.1155
    106  CG        23.6340    5.8950  -16.9270 C.2   283  ASN283      0.2627
    107  OD1       22.6980    5.2270  -16.4650 O.2   283  ASN283     -0.2716
    108  ND2       23.9390    7.0990  -16.4690 N.am  283  ASN283     -0.0877
    109  N         23.5690    0.0890  -20.9740 N.3   286  ALA286     -0.1231
    110  CA        22.0940   -0.0720  -20.9100 C.3   286  ALA286      0.1694
    111  C         21.3770    0.7030  -22.0360 C.2   286  ALA286      0.2591
    112  O         20.3900    0.2090  -22.5870 O.2   286  ALA286     -0.2718
    113  CB        21.5490    0.3690  -19.5850 C.3   286  ALA286      0.0304
    114  N         21.8920    1.8830  -22.3540 N.am  287  ALA287     -0.1980
    115  CA        21.3620    2.6770  -23.4490 C.3   287  ALA287      0.1597
    116  C         21.5010    1.9590  -24.7850 C.2   287  ALA287      0.2287
    117  O         20.6330    2.1060  -25.6410 O.2   287  ALA287     -0.2864
    118  CB        22.0010    4.0330  -23.5020 C.3   287  ALA287      0.0319
    119  N         18.7510   -0.5430  -25.1540 N.3   290  VAL290     -0.1245
    120  CA        17.4620    0.0370  -25.4670 C.3   290  VAL290      0.1561
    121  C         17.2280    0.3090  -26.9700 C.2   290  VAL290      0.2260
    122  O         16.1010    0.6360  -27.3420 O.2   290  VAL290     -0.2867
    123  CB        16.9990    1.2600  -24.6360 C.3   290  VAL290      0.0252
    124  CG1       17.2040    1.0530  -23.1410 C.3   290  VAL290      0.0019
    125  CG2       17.5690    2.5570  -25.1320 C.3   290  VAL290      0.0019
@<TRIPOS>BOND
     1    72    71    2
     2    71    70    1
     3    69    70    1
     4    64    63    1
     5    64    65    2
     6    63    66    1
     7    63    62    1
     8    70    73    1
     9    66    67    1
    10    66    68    1
    11    61    59   ar
    12   122   121    2
    13   121   120    1
    14    59    58    1
    15    59    60   ar
    16    58    57    1
    17   117   116    2
    18   120   119    1
    19   120   123    1
    20   125   123    1
    21    57    54    1
    22   116   115    1
    23   123   124    1
    24    55    56    2
    25    55    54    1
    26    74    75    1
    27    54    53    1
    28   118   115    1
    29   115   114    1
    30    75    78    1
    31    75    76    1
    32    80    78    1
    33    53    48   am
    34   112   111    2
    35    78    79    1
    36   114   111   am
    37    76    77    2
    38   111   110    1
    39    49    48    2
    40    48    47    1
    41    41    38    1
    42   109   110    1
    43   110   113    1
    44    51    50    1
    45   104   103    2
    46    47    50    1
    47    47    46    1
    48    52    50    1
    49    85    82    1
    50    38    37    1
    51    38    39    1
    52   103   102    1
    53    81    82    1
    54    82    83    1
    55    40    39    2
    56    37    35   am
    57   102   105    1
    58   102   101    1
    59    35    36    2
    60    35    34    1
    61    83    84    2
    62    83    86   am
    63   105   106    1
    64    34    33    1
    65    86    87    1
    66    90    91    1
    67   106   108   am
    68   106   107    2
    69    42    43    1
    70    43    44    1
    71    91    94    1
    72    91    92    1
    73    33    27   am
    74    28    27    2
    75    87    88    1
    76    94    95    1
    77    88    89    2
    78    96    95   ar
    79    96    98   ar
    80    27    26    1
    81    92    93    2
    82    44    45    2
    83    95    97   ar
    84    98   100   ar
    85    26    29    1
    86    26    25    1
    87    29    30    1
    88    25    20   am
    89    97    99   ar
    90    16    15   ar
    91   100    99   ar
    92    22    24    1
    93    22    23    1
    94    22    19    1
    95    20    19    1
    96    20    21    2
    97    15    17   ar
    98    15    14    1
    99    30    31    1
   100    30    32    1
   101     8     6   am
   102    19    18    1
   103     5     6    1
   104     5     2    1
   105     6     7    2
   106    14    13    1
   107    13    10    1
   108     2     3    1
   109     2     1    1
   110     9    10    1
   111     9     3   am
   112    10    11    1
   113     3     4    2
   114    11    12    2
