@<TRIPOS>MOLECULE
tmp/5bylB00.pdb
 175 165 0 0 0
SMALL
GASTEIGER

@<TRIPOS>ATOM
      1  N         34.2570    5.2160   29.0980 N.3    30  ILE30      -0.1231
      2  CA        33.3080    4.9810   27.9930 C.3    30  ILE30       0.1692
      3  C         33.7010    3.8550   27.1060 C.2    30  ILE30       0.2593
      4  O         32.9330    3.4400   26.2710 O.2    30  ILE30      -0.2718
      5  CB        33.1310    6.1810   27.0330 C.3    30  ILE30       0.0266
      6  CG1       34.4760    6.6220   26.5170 C.3    30  ILE30       0.0019
      7  CG2       32.3440    7.2750   27.7180 C.3    30  ILE30       0.0020
      8  CD1       34.4280    7.7360   25.5490 C.3    30  ILE30       0.0001
      9  N         34.9270    3.4060   27.2420 N.am   31  GLY31      -0.1942
     10  CA        35.3510    2.2020   26.5680 C.3    31  GLY31       0.2014
     11  C         36.6680    1.6990   27.0570 C.2    31  GLY31       0.2640
     12  O         37.4250    2.3840   27.7320 O.2    31  GLY31      -0.2714
     13  N         36.9620    0.4800   26.6580 N.am   32  SER32      -0.1935
     14  CA        38.2780   -0.0830   26.9020 C.3    32  SER32       0.2055
     15  C         38.6330   -1.1380   25.8630 C.2    32  SER32       0.2643
     16  O         37.7910   -1.6020   25.0740 O.2    32  SER32      -0.2714
     17  CB        38.3270   -0.6990   28.2770 C.3    32  SER32       0.2130
     18  OG        37.4850   -1.8210   28.2640 O.3    32  SER32      -0.2179
     19  N         39.9180   -1.4500   25.8600 N.am   33  GLY33      -0.1954
     20  CA        40.4540   -2.6340   25.2130 C.3    33  GLY33       0.1869
     21  C         41.2340   -3.4140   26.2660 C.2    33  GLY33       0.2309
     22  O         41.1930   -3.1350   27.4700 O.2    33  GLY33      -0.2863
     23  N         44.0920   -0.6550   26.7610 N.3    36  SER36      -0.1202
     24  CA        43.7850    0.7530   26.8070 C.3    36  SER36       0.2020
     25  C         42.4590    1.0630   27.4740 C.2    36  SER36       0.2619
     26  O         41.5900    0.1980   27.6300 O.2    36  SER36      -0.2717
     27  CB        43.7490    1.3140   25.3600 C.3    36  SER36       0.2103
     28  OG        42.5920    0.8510   24.7120 O.3    36  SER36      -0.2182
     29  N         42.2800    2.3240   27.7910 N.am   37  VAL37      -0.1965
     30  CA        41.0160    2.7640   28.3230 C.3    37  VAL37       0.1727
     31  C         40.7040    4.1160   27.7960 C.2    37  VAL37       0.2616
     32  O         41.5840    4.9660   27.7390 O.2    37  VAL37      -0.2715
     33  CB        41.0380    2.8570   29.8990 C.3    37  VAL37       0.0290
     34  CG1       39.6370    3.1070   30.4400 C.3    37  VAL37       0.0023
     35  CG2       41.5490    1.5400   30.5130 C.3    37  VAL37       0.0023
     36  N         39.4690    4.3270   27.4840 N.am   38  ALA38      -0.1977
     37  CA        39.0180    5.6140   27.0320 C.3    38  ALA38       0.1597
     38  C         37.9910    6.2090   28.0100 C.2    38  ALA38       0.2287
     39  O         37.0620    5.5450   28.4630 O.2    38  ALA38      -0.2864
     40  CB        38.3830    5.4650   25.6460 C.3    38  ALA38       0.0319
     41  N         37.0880   13.2920   24.9460 N.3    46  ILE46      -0.1245
     42  CA        37.5260   11.9040   24.9740 C.3    46  ILE46       0.1561
     43  C         38.9780   11.9870   25.3310 C.2    46  ILE46       0.2260
     44  O         39.7550   12.7380   24.7210 O.2    46  ILE46      -0.2867
     45  CB        37.4530   11.1870   23.6270 C.3    46  ILE46       0.0252
     46  CG1       36.0230   11.1690   23.0890 C.3    46  ILE46       0.0019
     47  CG2       37.9980    9.7810   23.7300 C.3    46  ILE46       0.0019
     48  CD1       35.0580   10.3040   23.8670 C.3    46  ILE46       0.0001
     49  N         41.8490    9.1050   25.4380 N.3    48  LYS48      -0.1245
     50  CA        42.3340    7.7470   25.2260 C.3    48  LYS48       0.1561
     51  C         43.6210    7.6060   26.0020 C.2    48  LYS48       0.2260
     52  O         44.4740    8.4480   25.8740 O.2    48  LYS48      -0.2867
     53  CB        42.6800    7.5150   23.7570 C.3    48  LYS48       0.0271
     54  CG        41.5060    7.3520   22.8400 C.3    48  LYS48       0.0035
     55  CD        41.9580    7.1980   21.4050 C.3    48  LYS48       0.0206
     56  CE        42.3860    5.7770   21.1700 C.3    48  LYS48       0.1093
     57  NZ        42.3060    5.3600   19.7440 N.3    48  LYS48      -0.1314
     58  N         50.9050    5.7750   20.2820 N.3    56  TYR56      -0.1241
     59  CA        50.1380    7.0610   20.2220 C.3    56  TYR56       0.1605
     60  C         50.8390    8.1290   19.4160 C.2    56  TYR56       0.2264
     61  O         50.1670    9.0370   18.9050 O.2    56  TYR56      -0.2867
     62  CB        49.6640    7.5580   21.5200 C.3    56  TYR56       0.0534
     63  CG        48.4480    6.8290   22.0490 C.ar   56  TYR56      -0.0201
     64  CD1       48.0320    5.5690   21.5600 C.ar   56  TYR56      -0.0009
     65  CD2       47.7840    7.3210   23.1530 C.ar   56  TYR56      -0.0009
     66  CE1       46.9590    4.8790   22.1470 C.ar   56  TYR56       0.0417
     67  CE2       46.7010    6.6450   23.7390 C.ar   56  TYR56       0.0417
     68  CZ        46.2930    5.4610   23.2500 C.ar   56  TYR56       0.1957
     69  OH        45.2360    4.8810   23.9050 O.3    56  TYR56      -0.2866
     70  N         40.7300   14.8640   22.9020 N.3    93  TYR93      -0.1241
     71  CA        40.0980   15.5540   21.8140 C.3    93  TYR93       0.1605
     72  C         38.6240   15.6520   22.1370 C.2    93  TYR93       0.2264
     73  O         38.1200   14.9080   22.9660 O.2    93  TYR93      -0.2867
     74  CB        40.3250   14.8090   20.4770 C.3    93  TYR93       0.0534
     75  CG        39.8350   13.3550   20.4600 C.ar   93  TYR93      -0.0201
     76  CD1       38.5500   13.0300   20.0580 C.ar   93  TYR93      -0.0009
     77  CD2       40.6910   12.3070   20.7580 C.ar   93  TYR93      -0.0009
     78  CE1       38.1210   11.6910   20.0150 C.ar   93  TYR93       0.0417
     79  CE2       40.2560   10.9650   20.6930 C.ar   93  TYR93       0.0417
     80  CZ        38.9770   10.6720   20.3270 C.ar   93  TYR93       0.1957
     81  OH        38.5680    9.3560   20.2950 O.3    93  TYR93      -0.2866
     82  N         34.8830   15.1440   21.9770 N.3    95  GLU95      -0.1231
     83  CA        34.0560   14.0280   21.5700 C.3    95  GLU95       0.1699
     84  C         33.3320   14.3570   20.2760 C.2    95  GLU95       0.2592
     85  O         32.6180   15.3570   20.2210 O.2    95  GLU95      -0.2718
     86  CB        33.0200   13.7810   22.6490 C.3    95  GLU95       0.0402
     87  CG        32.0850   12.6180   22.3890 C.3    95  GLU95       0.1161
     88  CD        30.8910   12.6010   23.3140 C.2    95  GLU95       0.3649
     89  OE1       30.5820   13.6360   23.9180 O.co2  95  GLU95      -0.2457
     90  OE2       30.2380   11.5460   23.4490 O.co2  95  GLU95      -0.2457
     91  N         33.4110   13.4960   19.2690 N.am   96  ILE96      -0.1980
     92  CA        32.5190   13.5940   18.1090 C.3    96  ILE96       0.1595
     93  C         31.1550   13.0380   18.4770 C.2    96  ILE96       0.2287
     94  O         31.0490   11.9200   18.9530 O.2    96  ILE96      -0.2864
     95  CB        33.0790   12.8580   16.8800 C.3    96  ILE96       0.0276
     96  CG1       34.4400   13.4220   16.5390 C.3    96  ILE96       0.0022
     97  CG2       32.1540   13.0470   15.6970 C.3    96  ILE96       0.0022
     98  CD1       35.2070   12.5730   15.5670 C.3    96  ILE96       0.0001
     99  N         27.2200   11.7390   17.9970 N.3    98  GLY98      -0.1225
    100  CA        26.5550   10.8850   17.0250 C.3    98  GLY98       0.1811
    101  C         26.2380    9.5240   17.6240 C.2    98  GLY98       0.2280
    102  O         26.4480    9.3110   18.8110 O.2    98  GLY98      -0.2866
    103  N         26.8160    5.3340   16.9420 N.3   100  PHE100     -0.1241
    104  CA        27.6310    4.3560   16.1940 C.3   100  PHE100      0.1605
    105  C         26.8070    3.4540   15.3270 C.2   100  PHE100      0.2264
    106  O         25.7550    3.0280   15.7160 O.2   100  PHE100     -0.2867
    107  CB        28.5360    3.5340   17.0930 C.3   100  PHE100      0.0534
    108  CG        29.6710    4.3170   17.5910 C.ar  100  PHE100     -0.0203
    109  CD1       30.6770    4.6700   16.7320 C.ar  100  PHE100     -0.0042
    110  CD2       29.6800    4.7890   18.8860 C.ar  100  PHE100     -0.0042
    111  CE1       31.7330    5.4350   17.1650 C.ar  100  PHE100     -0.0003
    112  CE2       30.7170    5.5770   19.3310 C.ar  100  PHE100     -0.0003
    113  CZ        31.7340    5.9180   18.4570 C.ar  100  PHE100     -0.0000
    114  N         41.2900   -0.0860   10.6200 N.3   193  ASP193     -0.1239
    115  CA        40.4480   -0.7860   11.5800 C.3   193  ASP193      0.1674
    116  C         39.0250   -0.3680   11.3340 C.2   193  ASP193      0.2266
    117  O         38.2840    0.0950   12.2450 O.2   193  ASP193     -0.2867
    118  CB        40.8860   -0.4710   13.0000 C.3   193  ASP193      0.1410
    119  CG        40.3260   -1.4470   14.0260 C.2   193  ASP193      0.3668
    120  OD1       39.7350   -2.4820   13.6770 O.co2 193  ASP193     -0.2456
    121  OD2       40.4750   -1.1530   15.2090 O.co2 193  ASP193     -0.2456
    122  N         31.6490   -0.1550   14.2140 N.3   197  ASN197     -0.1225
    123  CA        31.7420    0.5050   15.5170 C.3   197  ASN197      0.1785
    124  C         32.6820    1.7510   15.5950 C.2   197  ASN197      0.2597
    125  O         32.9190    2.3030   16.6690 O.2   197  ASN197     -0.2718
    126  CB        32.1210   -0.4940   16.6240 C.3   197  ASN197      0.1169
    127  CG        33.6010   -0.8510   16.5900 C.2   197  ASN197      0.2627
    128  OD1       34.1160   -1.1940   15.5470 O.2   197  ASN197     -0.2716
    129  ND2       34.2900   -0.7600   17.7350 N.am  197  ASN197     -0.0877
    130  N         33.3130    2.1060   14.4870 N.am  198  HIS198     -0.1975
    131  CA        34.0570    3.3070   14.4430 C.3   198  HIS198      0.1656
    132  C         33.4070    4.3540   13.5590 C.2   198  HIS198      0.2291
    133  O         34.0010    5.3900   13.3320 O.2   198  HIS198     -0.2864
    134  CB        35.4480    3.0540   13.9600 C.3   198  HIS198      0.0771
    135  CG        36.2560    2.2870   14.9140 C.ar  198  HIS198      0.0820
    136  ND1       37.2230    1.4220   14.5110 N.ar  198  HIS198     -0.2267
    137  CD2       36.2170    2.2160   16.2710 C.ar  198  HIS198      0.1154
    138  CE1       37.7800    0.8690   15.5620 C.ar  198  HIS198      0.1986
    139  NE2       37.1980    1.3420   16.6440 N.ar  198  HIS198     -0.2212
    140  N         30.2750    7.0060   12.9300 N.3   200  LEU200     -0.1245
    141  CA        29.2370    7.6930   13.6360 C.3   200  LEU200      0.1561
    142  C         28.2240    8.2740   12.6490 C.2   200  LEU200      0.2260
    143  O         28.6070    8.8240   11.6110 O.2   200  LEU200     -0.2867
    144  CB        29.8270    8.8030   14.4860 C.3   200  LEU200      0.0270
    145  CG        30.5160    8.3670   15.7870 C.3   200  LEU200      0.0019
    146  CD1       31.5370    9.4270   16.2450 C.3   200  LEU200      0.0001
    147  CD2       29.4890    8.1280   16.8510 C.3   200  LEU200      0.0001
    148  N         36.1750    7.4780   14.0410 N.3   211  ILE211     -0.1231
    149  CA        37.1270    7.5010   15.1180 C.3   211  ILE211      0.1692
    150  C         38.1310    6.3840   14.9900 C.2   211  ILE211      0.2592
    151  O         38.0580    5.5450   14.0810 O.2   211  ILE211     -0.2718
    152  CB        36.4380    7.3310   16.4510 C.3   211  ILE211      0.0266
    153  CG1       35.6730    6.0100   16.5270 C.3   211  ILE211      0.0019
    154  CG2       35.4780    8.5090   16.6710 C.3   211  ILE211      0.0020
    155  CD1       35.3540    5.6260   17.9640 C.3   211  ILE211      0.0001
    156  N         39.0550    6.3810   15.9230 N.am  212  ASP212     -0.1974
    157  CA        40.0370    5.3270   16.1200 C.3   212  ASP212      0.1709
    158  C         40.8720    5.0200   14.8860 C.2   212  ASP212      0.2293
    159  O         40.7540    3.9630   14.2500 O.2   212  ASP212     -0.2864
    160  CB        39.3930    4.0460   16.6740 C.3   212  ASP212      0.1436
    161  CG        40.4320    3.0310   17.2190 C.2   212  ASP212      0.3671
    162  OD1       41.6430    3.3180   17.1870 O.co2 212  ASP212     -0.2456
    163  OD2       40.0190    1.9780   17.7600 O.co2 212  ASP212     -0.2456
    164  N         43.8970    4.4830   15.4200 N.3   214  GLY214     -0.1210
    165  CA        45.0080    3.9040   16.1920 C.3   214  GLY214      0.1956
    166  C         45.8280    2.7860   15.5630 C.2   214  GLY214      0.2611
    167  O         46.9240    2.4970   16.0100 O.2   214  GLY214     -0.2717
    168  N         45.3450    2.2020   14.4870 N.am  215  ASP215     -0.1973
    169  CA        46.1570    1.2420   13.7280 C.3   215  ASP215      0.1709
    170  C         46.4610    1.7270   12.3230 C.2   215  ASP215      0.2293
    171  O         46.9060    0.9840   11.4700 O.2   215  ASP215     -0.2864
    172  CB        45.3620   -0.0680   13.6120 C.3   215  ASP215      0.1436
    173  CG        45.2040   -0.7810   14.9540 C.2   215  ASP215      0.3671
    174  OD1       46.1230   -0.7510   15.7810 O.co2 215  ASP215     -0.2456
    175  OD2       44.1410   -1.3710   15.1630 O.co2 215  ASP215     -0.2456
@<TRIPOS>BOND
     1   114   115    1
     2   116   115    1
     3   116   117    2
     4   171   170    2
     5   115   118    1
     6   143   142    2
     7   170   169    1
     8   142   141    1
     9   140   141    1
    10   118   119    1
    11   133   132    2
    12   132   131    1
    13   172   169    1
    14   172   173    1
    15   141   144    1
    16   120   119   ar
    17   169   168    1
    18   134   131    1
    19   134   135    1
    20   119   121   ar
    21   148   149    1
    22   151   150    2
    23   122   123    1
    24   159   158    2
    25   131   130    1
    26   144   145    1
    27   130   124   am
    28   168   166   am
    29   136   135   ar
    30   136   138   ar
    31   158   157    1
    32   135   137   ar
    33   173   175   ar
    34   173   174   ar
    35   150   149    1
    36   150   156   am
    37   149   152    1
    38   105   106    2
    39   105   104    1
    40   164   165    1
    41   123   124    1
    42   123   126    1
    43   128   127    2
    44   138   139   ar
    45   166   167    2
    46   166   165    1
    47    98    96    1
    48   124   125    2
    49    97    95    1
    50   145   146    1
    51   145   147    1
    52   156   157    1
    53   157   160    1
    54   104   103    1
    55   104   107    1
    56   137   139   ar
    57   152   153    1
    58   152   154    1
    59   153   155    1
    60    96    95    1
    61   127   126    1
    62   127   129   am
    63   160   161    1
    64   109   111   ar
    65   109   108   ar
    66    95    92    1
    67   100   101    1
    68   100    99    1
    69   107   108    1
    70   111   113   ar
    71   162   161   ar
    72   161   163   ar
    73   108   110   ar
    74   101   102    2
    75    92    93    1
    76    92    91    1
    77   113   112   ar
    78    93    94    2
    79   110   112   ar
    80    61    60    2
    81    91    84   am
    82    60    59    1
    83    57    56    1
    84    78    76   ar
    85    78    80   ar
    86    76    75   ar
    87    85    84    2
    88    59    58    1
    89    59    62    1
    90    84    83    1
    91    81    80    1
    92    80    79   ar
    93    75    74    1
    94    75    77   ar
    95    74    71    1
    96    79    77   ar
    97    56    55    1
    98    55    54    1
    99    62    63    1
   100    64    63   ar
   101    64    66   ar
   102    83    82    1
   103    83    86    1
   104    71    72    1
   105    71    70    1
   106    63    65   ar
   107    72    73    2
   108    66    68   ar
   109    87    86    1
   110    87    88    1
   111    54    53    1
   112    46    45    1
   113    46    48    1
   114    65    67   ar
   115    68    67   ar
   116    68    69    1
   117    88    90   ar
   118    88    89   ar
   119    45    47    1
   120    45    42    1
   121    53    50    1
   122    28    27    1
   123    44    43    2
   124    41    42    1
   125    42    43    1
   126    16    15    2
   127    20    19    1
   128    20    21    1
   129    50    49    1
   130    50    51    1
   131    27    24    1
   132     8     6    1
   133    40    37    1
   134    19    15   am
   135    15    14    1
   136    52    51    2
   137    21    22    2
   138     4     3    2
   139     6     5    1
   140    10    11    1
   141    10     9    1
   142    13    14    1
   143    13    11   am
   144    23    24    1
   145    24    25    1
   146    14    17    1
   147    37    36    1
   148    37    38    1
   149     5     7    1
   150     5     2    1
   151    11    12    2
   152     3     9   am
   153     3     2    1
   154    25    26    2
   155    25    29   am
   156    36    31   am
   157    32    31    2
   158    29    30    1
   159    31    30    1
   160     2     1    1
   161    38    39    2
   162    18    17    1
   163    30    33    1
   164    33    34    1
   165    33    35    1
