@<TRIPOS>MOLECULE
tmp/5bynA01.pdb
 79 77 0 0 0
SMALL
GASTEIGER

@<TRIPOS>ATOM
      1  N         49.0830    4.2000   30.0700 N.3    51  HIS51      -0.1226
      2  CA        49.8420    3.8950   31.2740 C.3    51  HIS51       0.1752
      3  C         51.2710    4.3900   31.1860 C.2    51  HIS51       0.2595
      4  O         52.0560    3.9100   30.3680 O.2    51  HIS51      -0.2718
      5  CB        49.8380    2.3960   31.5450 C.3    51  HIS51       0.0759
      6  CG        48.5560    1.7260   31.1760 C.ar   51  HIS51       0.0818
      7  ND1       47.5130    1.5740   32.0640 N.ar   51  HIS51      -0.2268
      8  CD2       48.1460    1.1650   30.0140 C.ar   51  HIS51       0.1154
      9  CE1       46.5150    0.9500   31.4650 C.ar   51  HIS51       0.1986
     10  NE2       46.8730    0.6900   30.2210 N.ar   51  HIS51      -0.2212
     11  N         51.6090    5.3470   32.0390 N.am   52  ILE52      -0.1980
     12  CA        52.9640    5.8070   32.1130 C.3    52  ILE52       0.1595
     13  C         53.6530    5.1540   33.2900 C.2    52  ILE52       0.2287
     14  O         53.0550    4.9710   34.3210 O.2    52  ILE52      -0.2864
     15  CB        53.0340    7.3050   32.1940 C.3    52  ILE52       0.0276
     16  CG1       52.4600    7.8890   30.8960 C.3    52  ILE52       0.0022
     17  CG2       54.4810    7.7470   32.3540 C.3    52  ILE52       0.0022
     18  CD1       51.0170    8.3050   30.9770 C.3    52  ILE52       0.0001
     19  N         44.6270    8.2220   37.5020 N.3   110  SER110     -0.1202
     20  CA        45.2610    7.7370   38.7060 C.3   110  SER110      0.2020
     21  C         46.7390    8.0020   38.6540 C.2   110  SER110      0.2619
     22  O         47.2900    8.2400   37.5840 O.2   110  SER110     -0.2717
     23  CB        45.0320    6.2630   38.8320 C.3   110  SER110      0.2103
     24  OG        46.0580    5.6340   38.1390 O.3   110  SER110     -0.2182
     25  N         47.3730    7.9950   39.8220 N.am  111  PHE111     -0.1961
     26  CA        48.7910    8.3600   39.9270 C.3   111  PHE111      0.1771
     27  C         49.4360    7.8830   41.2090 C.2   111  PHE111      0.2620
     28  O         48.9430    8.1310   42.2620 O.2   111  PHE111     -0.2715
     29  CB        48.9810    9.8780   39.8040 C.3   111  PHE111      0.0574
     30  CG        50.4180   10.2970   39.8470 C.ar  111  PHE111     -0.0200
     31  CD1       51.2180   10.1680   38.7250 C.ar  111  PHE111     -0.0042
     32  CD2       50.9870   10.7440   41.0210 C.ar  111  PHE111     -0.0042
     33  CE1       52.5600   10.5150   38.7530 C.ar  111  PHE111     -0.0003
     34  CE2       52.3200   11.0770   41.0690 C.ar  111  PHE111     -0.0003
     35  CZ        53.1060   10.9640   39.9350 C.ar  111  PHE111     -0.0000
     36  N         50.5660    7.2060   41.0730 N.am  112  THR112     -0.1951
     37  CA        51.3680    6.7440   42.1940 C.3   112  THR112      0.1897
     38  C         52.8110    7.2020   42.0260 C.2   112  THR112      0.2313
     39  O         53.4010    6.9960   40.9640 O.2   112  THR112     -0.2863
     40  CB        51.3540    5.1980   42.3100 C.3   112  THR112      0.1794
     41  OG1       50.0570    4.7720   42.7120 O.3   112  THR112     -0.2208
     42  CG2       52.3330    4.7160   43.3480 C.3   112  THR112      0.0378
     43  N         49.5040    8.3210   46.4470 N.3   125  HIS125     -0.1241
     44  CA        48.6340    7.7650   45.4770 C.3   125  HIS125      0.1621
     45  C         47.3290    8.5520   45.4130 C.2   125  HIS125      0.2264
     46  O         46.7290    8.8270   46.4200 O.2   125  HIS125     -0.2867
     47  CB        48.4040    6.2860   45.7760 C.3   125  HIS125      0.0745
     48  CG        47.3460    5.7140   44.9360 C.ar  125  HIS125      0.0817
     49  ND1       47.3470    5.8140   43.5650 N.ar  125  HIS125     -0.2268
     50  CD2       46.1630    5.1710   45.2800 C.ar  125  HIS125      0.1154
     51  CE1       46.2170    5.3290   43.0970 C.ar  125  HIS125      0.1986
     52  NE2       45.4900    4.9170   44.1190 N.ar  125  HIS125     -0.2212
     53  N         43.5070    8.7350   42.8540 N.3   127  VAL127     -0.1245
     54  CA        42.6710    8.1500   41.8050 C.3   127  VAL127      0.1561
     55  C         41.3840    8.9120   41.6440 C.2   127  VAL127      0.2260
     56  O         40.6400    9.0470   42.5950 O.2   127  VAL127     -0.2867
     57  CB        42.2460    6.6960   42.1240 C.3   127  VAL127      0.0252
     58  CG1       41.0130    6.2610   41.3370 C.3   127  VAL127      0.0019
     59  CG2       43.3670    5.7810   41.7720 C.3   127  VAL127      0.0019
     60  N         53.9210    5.9150   38.4570 N.3   190  ASP190     -0.1225
     61  CA        53.1640    5.3500   37.3410 C.3   190  ASP190      0.1805
     62  C         51.7970    6.0230   37.2410 C.2   190  ASP190      0.2598
     63  O         51.1000    6.1580   38.2470 O.2   190  ASP190     -0.2718
     64  CB        52.9980    3.8390   37.5140 C.3   190  ASP190      0.1424
     65  CG        52.2400    3.4770   38.7750 C.2   190  ASP190      0.3668
     66  OD1       51.5740    4.3660   39.3460 O.co2 190  ASP190     -0.2456
     67  OD2       52.3100    2.3030   39.1970 O.co2 190  ASP190     -0.2456
     68  N         51.3960    6.3450   36.0030 N.am  191  ALA191     -0.1966
     69  CA        50.1100    7.0010   35.7130 C.3   191  ALA191      0.1728
     70  C         49.3200    6.5180   34.4640 C.2   191  ALA191      0.2616
     71  O         49.8190    6.5200   33.3390 O.2   191  ALA191     -0.2715
     72  CB        50.2950    8.5120   35.6630 C.3   191  ALA191      0.0334
     73  N         48.0720    6.1340   34.7310 N.am  192  THR192     -0.1951
     74  CA        47.0790    5.8040   33.7200 C.3   192  THR192      0.1897
     75  C         46.0310    6.8900   33.6960 C.2   192  THR192      0.2313
     76  O         45.5840    7.3420   34.7500 O.2   192  THR192     -0.2863
     77  CB        46.2890    4.5260   34.0920 C.3   192  THR192      0.1794
     78  OG1       45.7980    4.6380   35.4340 O.3   192  THR192     -0.2208
     79  CG2       47.1800    3.2980   33.9830 C.3   192  THR192      0.0378
@<TRIPOS>BOND
     1     8    10   ar
     2     8     6   ar
     3     1     2    1
     4    10     9   ar
     5     4     3    2
     6    16    18    1
     7    16    15    1
     8     6     5    1
     9     6     7   ar
    10     3     2    1
    11     3    11   am
    12     2     5    1
    13     9     7   ar
    14    11    12    1
    15    12    15    1
    16    12    13    1
    17    15    17    1
    18    13    14    2
    19    71    70    2
    20    75    74    1
    21    75    76    2
    22    74    77    1
    23    74    73    1
    24    79    77    1
    25    77    78    1
    26    70    73   am
    27    70    69    1
    28    72    69    1
    29    69    68    1
    30    68    62   am
    31    62    61    1
    32    62    63    2
    33    61    64    1
    34    61    60    1
    35    19    20    1
    36    64    65    1
    37    22    21    2
    38    24    23    1
    39    21    20    1
    40    21    25   am
    41    20    23    1
    42    31    33   ar
    43    31    30   ar
    44    33    35   ar
    45    65    67   ar
    46    65    66   ar
    47    29    30    1
    48    29    26    1
    49    25    26    1
    50    30    32   ar
    51    26    27    1
    52    35    34   ar
    53    39    38    2
    54    32    34   ar
    55    36    27   am
    56    36    37    1
    57    27    28    2
    58    58    57    1
    59    55    54    1
    60    55    56    2
    61    59    57    1
    62    54    57    1
    63    54    53    1
    64    38    37    1
    65    37    40    1
    66    40    41    1
    67    40    42    1
    68    51    49   ar
    69    51    52   ar
    70    49    48   ar
    71    52    50   ar
    72    48    50   ar
    73    48    47    1
    74    45    44    1
    75    45    46    2
    76    44    47    1
    77    44    43    1
