@<TRIPOS>MOLECULE
tmp/5bynB01.pdb
 124 121 0 0 0
SMALL
GASTEIGER

@<TRIPOS>ATOM
      1  N         65.1640   -4.3130   46.3810 N.3    51  HIS51      -0.1226
      2  CA        63.9760   -3.9420   45.6280 C.3    51  HIS51       0.1752
      3  C         64.1700   -4.5060   44.2320 C.2    51  HIS51       0.2596
      4  O         65.1530   -4.2260   43.5910 O.2    51  HIS51      -0.2718
      5  CB        63.8390   -2.4270   45.4550 C.3    51  HIS51       0.0759
      6  CG        63.7760   -1.6300   46.7180 C.ar   51  HIS51       0.0818
      7  ND1       62.7420   -1.7270   47.6340 N.ar   51  HIS51      -0.2268
      8  CD2       64.5770   -0.6320   47.1630 C.ar   51  HIS51       0.1154
      9  CE1       62.9330   -0.8470   48.6070 C.ar   51  HIS51       0.1986
     10  NE2       64.0360   -0.1670   48.3390 N.ar   51  HIS51      -0.2212
     11  N         63.2270   -5.2970   43.7610 N.am   52  ILE52      -0.1966
     12  CA        63.2220   -5.7630   42.4000 C.3    52  ILE52       0.1727
     13  C         62.0150   -5.1700   41.6790 C.2    52  ILE52       0.2616
     14  O         60.9540   -5.1440   42.2210 O.2    52  ILE52      -0.2715
     15  CB        63.2020   -7.2770   42.3770 C.3    52  ILE52       0.0290
     16  CG1       64.4920   -7.8040   43.0210 C.3    52  ILE52       0.0022
     17  CG2       63.1070   -7.7960   40.9360 C.3    52  ILE52       0.0023
     18  CD1       64.3610   -8.2550   44.4470 C.3    52  ILE52       0.0001
     19  N         62.1990   -4.6370   40.4790 N.am   53  ILE53      -0.1963
     20  CA        61.1080   -4.0010   39.7640 C.3    53  ILE53       0.1727
     21  C         61.1650   -4.4260   38.3200 C.2    53  ILE53       0.2616
     22  O         62.2400   -4.5640   37.7360 O.2    53  ILE53      -0.2715
     23  CB        61.1890   -2.4430   39.7910 C.3    53  ILE53       0.0290
     24  CG1       61.5750   -1.9420   41.1700 C.3    53  ILE53       0.0022
     25  CG2       59.8520   -1.8080   39.4270 C.3    53  ILE53       0.0023
     26  CD1       61.7930   -0.4290   41.2620 C.3    53  ILE53       0.0001
     27  N         59.9950   -4.6060   37.7320 N.am   54  TYR54      -0.1960
     28  CA        59.9030   -4.9390   36.3200 C.3    54  TYR54       0.1771
     29  C         58.5820   -4.5040   35.7780 C.2    54  TYR54       0.2619
     30  O         57.5480   -4.8340   36.3340 O.2    54  TYR54      -0.2715
     31  CB        60.0300   -6.4350   36.1100 C.3    54  TYR54       0.0574
     32  CG        59.7850   -6.8410   34.6820 C.ar   54  TYR54      -0.0198
     33  CD1       60.8160   -6.8120   33.7350 C.ar   54  TYR54      -0.0009
     34  CD2       58.5240   -7.2550   34.2740 C.ar   54  TYR54      -0.0009
     35  CE1       60.5910   -7.1630   32.4230 C.ar   54  TYR54       0.0417
     36  CE2       58.2810   -7.6090   32.9580 C.ar   54  TYR54       0.0417
     37  CZ        59.3220   -7.5690   32.0280 C.ar   54  TYR54       0.1957
     38  OH        59.1200   -7.9280   30.7120 O.3    54  TYR54      -0.2866
     39  N         58.5860   -3.7590   34.6880 N.am   55  ASN55      -0.1972
     40  CA        57.3330   -3.5690   33.9650 C.3    55  ASN55       0.1688
     41  C         57.5420   -4.0770   32.5920 C.2    55  ASN55       0.2292
     42  O         58.6700   -4.0350   32.0540 O.2    55  ASN55      -0.2864
     43  CB        56.9290   -2.1150   33.8820 C.3    55  ASN55       0.1181
     44  CG        57.7180   -1.3690   32.8400 C.2    55  ASN55       0.2629
     45  OD1       57.2920   -1.2470   31.7090 O.2    55  ASN55      -0.2716
     46  ND2       58.8990   -0.9110   33.2070 N.am   55  ASN55      -0.0877
     47  N         57.7880   -8.2620   50.6320 N.3   110  SER110     -0.1217
     48  CA        56.5590   -7.8430   49.9830 C.3   110  SER110      0.1889
     49  C         56.6240   -7.9560   48.4670 C.2   110  SER110      0.2288
     50  O         57.6870   -7.8990   47.8770 O.2   110  SER110     -0.2866
     51  CB        56.1840   -6.4390   50.4120 C.3   110  SER110      0.2089
     52  OG        57.0220   -5.5230   49.7940 O.3   110  SER110     -0.2183
     53  N         54.1670   -7.3750   44.6430 N.3   112  THR112     -0.1218
     54  CA        52.9870   -6.9510   43.9090 C.3   112  THR112      0.1862
     55  C         53.1670   -7.2840   42.4570 C.2   112  THR112      0.2287
     56  O         54.1880   -6.9400   41.8790 O.2   112  THR112     -0.2866
     57  CB        52.7130   -5.4330   43.9940 C.3   112  THR112      0.1770
     58  OG1       52.9530   -4.9690   45.3160 O.3   112  THR112     -0.2211
     59  CG2       51.2770   -5.1650   43.6810 C.3   112  THR112      0.0375
     60  N         50.7690   -7.0320   38.8050 N.3   114  LYS114     -0.1245
     61  CA        49.5610   -6.4300   38.2500 C.3   114  LYS114      0.1561
     62  C         49.4380   -6.6330   36.7380 C.2   114  LYS114      0.2260
     63  O         50.3240   -6.2530   35.9730 O.2   114  LYS114     -0.2867
     64  CB        49.5080   -4.9370   38.5830 C.3   114  LYS114      0.0271
     65  CG        48.6710   -4.6030   39.8070 C.3   114  LYS114      0.0035
     66  CD        48.1220   -3.1880   39.7330 C.3   114  LYS114      0.0206
     67  CE        49.2370   -2.1590   39.8130 C.3   114  LYS114      0.1093
     68  NZ        49.0800   -1.0880   38.7910 N.3   114  LYS114     -0.1314
     69  N         47.2680   -5.5450   33.6430 N.3   116  LYS116     -0.1245
     70  CA        46.3400   -4.5000   33.1880 C.3   116  LYS116      0.1561
     71  C         46.0760   -4.7960   31.7350 C.2   116  LYS116      0.2260
     72  O         46.9120   -4.5090   30.8700 O.2   116  LYS116     -0.2867
     73  CB        46.9380   -3.1020   33.3580 C.3   116  LYS116      0.0271
     74  CG        47.6570   -2.8500   34.6730 C.3   116  LYS116      0.0035
     75  CD        48.4740   -1.5690   34.5950 C.3   116  LYS116      0.0206
     76  CE        49.0690   -1.2140   35.9360 C.3   116  LYS116      0.1093
     77  NZ        50.3370   -0.4210   35.8580 N.3   116  LYS116     -0.1314
     78  N         48.9360   -8.6180   45.8010 N.3   127  HIS127     -0.1241
     79  CA        49.8530   -7.9100   46.6360 C.3   127  HIS127      0.1621
     80  C         49.8970   -8.5510   47.9930 C.2   127  HIS127      0.2264
     81  O         48.8730   -8.7030   48.6600 O.2   127  HIS127     -0.2867
     82  CB        49.4110   -6.4730   46.7590 C.3   127  HIS127      0.0745
     83  CG        50.3070   -5.6370   47.6030 C.ar  127  HIS127      0.0817
     84  ND1       51.6830   -5.7370   47.5690 N.ar  127  HIS127     -0.2268
     85  CD2       50.0280   -4.6700   48.4950 C.ar  127  HIS127      0.1154
     86  CE1       52.2120   -4.8750   48.4110 C.ar  127  HIS127      0.1986
     87  NE2       51.2270   -4.2010   48.9710 N.ar  127  HIS127     -0.2212
     88  N         53.3080   -6.3080   35.3490 N.3   190  SER190     -0.1202
     89  CA        54.3950   -5.6710   36.0710 C.3   190  SER190      0.2020
     90  C         54.4290   -6.1760   37.4540 C.2   190  SER190      0.2619
     91  O         53.4150   -6.5040   38.0070 O.2   190  SER190     -0.2717
     92  CB        54.1870   -4.1780   36.1550 C.3   190  SER190      0.2103
     93  OG        52.9930   -3.9360   36.8810 O.3   190  SER190     -0.2182
     94  N         55.6120   -6.2190   38.0190 N.am  191  PHE191     -0.1961
     95  CA        55.7400   -6.6660   39.3710 C.3   191  PHE191      0.1771
     96  C         56.8520   -5.9580   40.0470 C.2   191  PHE191      0.2620
     97  O         57.6810   -5.3150   39.4170 O.2   191  PHE191     -0.2715
     98  CB        55.9820   -8.1790   39.4310 C.3   191  PHE191      0.0574
     99  CG        57.3190   -8.6080   38.9510 C.ar  191  PHE191     -0.0200
    100  CD1       58.4070   -8.5840   39.8020 C.ar  191  PHE191     -0.0042
    101  CD2       57.4900   -9.0860   37.6400 C.ar  191  PHE191     -0.0042
    102  CE1       59.6700   -9.0090   39.3680 C.ar  191  PHE191     -0.0003
    103  CE2       58.7370   -9.5180   37.1940 C.ar  191  PHE191     -0.0003
    104  CZ        59.8340   -9.4750   38.0610 C.ar  191  PHE191     -0.0000
    105  N         56.9050   -6.0930   41.3530 N.am  192  ASP192     -0.1957
    106  CA        57.9890   -5.5170   42.1460 C.3   192  ASP192      0.1840
    107  C         58.0440   -6.1790   43.5200 C.2   192  ASP192      0.2622
    108  O         57.0040   -6.4340   44.1270 O.2   192  ASP192     -0.2715
    109  CB        57.8030   -4.0060   42.2940 C.3   192  ASP192      0.1450
    110  CG        56.7200   -3.6480   43.2930 C.2   192  ASP192      0.3671
    111  OD1       55.5520   -4.0280   43.0680 O.co2 192  ASP192     -0.2456
    112  OD2       57.0370   -2.9850   44.3030 O.co2 192  ASP192     -0.2456
    113  N         59.2530   -6.4680   44.0260 N.am  193  ALA193     -0.1963
    114  CA        59.3740   -7.1280   45.2790 C.3   193  ALA193      0.1728
    115  C         60.3410   -6.3430   46.0710 C.2   193  ALA193      0.2616
    116  O         61.3240   -5.8980   45.5500 O.2   193  ALA193     -0.2715
    117  CB        59.8620   -8.5550   45.0860 C.3   193  ALA193      0.0334
    118  N         60.0350   -6.1290   47.3380 N.am  194  THR194     -0.1951
    119  CA        61.0150   -5.6570   48.2790 C.3   194  THR194      0.1897
    120  C         61.2700   -6.7550   49.3270 C.2   194  THR194      0.2313
    121  O         60.3890   -7.5360   49.6580 O.2   194  THR194     -0.2863
    122  CB        60.5400   -4.3760   48.9540 C.3   194  THR194      0.1794
    123  OG1       60.3550   -3.3300   47.9760 O.3   194  THR194     -0.2208
    124  CG2       61.5660   -3.9370   49.9570 C.3   194  THR194      0.0378
@<TRIPOS>BOND
     1    38    37    1
     2    72    71    2
     3    45    44    2
     4    71    70    1
     5    37    35   ar
     6    37    36   ar
     7    42    41    2
     8    35    33   ar
     9    41    40    1
    10    44    46   am
    11    44    43    1
    12    36    34   ar
    13    70    73    1
    14    70    69    1
    15    73    74    1
    16    33    32   ar
    17    43    40    1
    18    40    39    1
    19    34    32   ar
    20    75    74    1
    21    75    76    1
    22    32    31    1
    23    39    29   am
    24    88    89    1
    25    29    28    1
    26    29    30    2
    27    77    76    1
    28    63    62    2
    29    89    92    1
    30    89    90    1
    31    31    28    1
    32    92    93    1
    33    28    27    1
    34    62    61    1
    35   103   101   ar
    36   103   104   ar
    37    90    91    2
    38    90    94   am
    39   101    99   ar
    40    27    21   am
    41    22    21    2
    42    94    95    1
    43   104   102   ar
    44    61    64    1
    45    61    60    1
    46    21    20    1
    47    64    65    1
    48    68    67    1
    49    99    98    1
    50    99   100   ar
    51   102   100   ar
    52    95    98    1
    53    95    96    1
    54    97    96    2
    55    25    23    1
    56    66    65    1
    57    66    67    1
    58    20    23    1
    59    20    19    1
    60    23    24    1
    61    96   105   am
    62    19    13   am
    63    17    15    1
    64    24    26    1
    65   105   106    1
    66    13    14    2
    67    13    12    1
    68    56    55    2
    69   106   109    1
    70   106   107    1
    71   109   110    1
    72    15    12    1
    73    15    16    1
    74    12    11    1
    75    55    54    1
    76    16    18    1
    77   111   110   ar
    78   110   112   ar
    79   107   113   am
    80   107   108    2
    81     4     3    2
    82    59    57    1
    83    11     3   am
    84    54    57    1
    85    54    53    1
    86    57    58    1
    87   113   114    1
    88     3     2    1
    89   117   114    1
    90   114   115    1
    91     5     2    1
    92     5     6    1
    93   116   115    2
    94     2     1    1
    95    78    79    1
    96   115   118   am
    97    79    82    1
    98    79    80    1
    99     6     8   ar
   100     6     7   ar
   101    82    83    1
   102     8    10   ar
   103   118   119    1
   104    84    83   ar
   105    84    86   ar
   106    83    85   ar
   107     7     9   ar
   108    50    49    2
   109   123   122    1
   110    80    81    2
   111   119   122    1
   112   119   120    1
   113    10     9   ar
   114    86    87   ar
   115    49    48    1
   116    85    87   ar
   117   122   124    1
   118   120   121    2
   119    52    51    1
   120    48    51    1
   121    48    47    1
