@<TRIPOS>MOLECULE
tmp/5byuA01.pdb
 95 95 0 0 0
SMALL
GASTEIGER

@<TRIPOS>ATOM
      1  N          0.2860  -82.3140  -27.1340 N.3    19  ASP19      -0.1239
      2  CA         1.7230  -82.3370  -27.3400 C.3    19  ASP19       0.1674
      3  C          2.1590  -83.7150  -27.8100 C.2    19  ASP19       0.2266
      4  O          1.3170  -84.5680  -28.0920 O.2    19  ASP19      -0.2867
      5  CB         2.4500  -81.9520  -26.0560 C.3    19  ASP19       0.1410
      6  CG         1.9340  -82.7090  -24.8490 C.2    19  ASP19       0.3668
      7  OD1        1.4190  -83.8340  -25.0270 O.co2  19  ASP19      -0.2456
      8  OD2        2.0680  -82.1950  -23.7200 O.co2  19  ASP19      -0.2456
      9  N         -1.5710  -85.9410  -25.1730 N.3    23  HIS23      -0.1226
     10  CA        -2.6420  -85.2780  -24.4360 C.3    23  HIS23       0.1752
     11  C         -2.4470  -83.7720  -24.5070 C.2    23  HIS23       0.2596
     12  O         -1.3640  -83.2930  -24.8450 O.2    23  HIS23      -0.2718
     13  CB        -2.7280  -85.7450  -22.9790 C.3    23  HIS23       0.0759
     14  CG        -1.4140  -85.8090  -22.2710 C.ar   23  HIS23       0.0818
     15  ND1       -0.9280  -86.9730  -21.7190 N.ar   23  HIS23      -0.2268
     16  CD2       -0.4920  -84.8530  -22.0100 C.ar   23  HIS23       0.1154
     17  CE1        0.2370  -86.7320  -21.1450 C.ar   23  HIS23       0.1986
     18  NE2        0.5270  -85.4540  -21.3120 N.ar   23  HIS23      -0.2212
     19  N         -3.5190  -83.0360  -24.2290 N.am   24  VAL24      -0.1966
     20  CA        -3.5070  -81.5790  -24.2820 C.3    24  VAL24       0.1727
     21  C         -2.3950  -80.9750  -23.4280 C.2    24  VAL24       0.2616
     22  O         -2.2620  -81.2970  -22.2500 O.2    24  VAL24      -0.2715
     23  CB        -4.8600  -81.0050  -23.8150 C.3    24  VAL24       0.0290
     24  CG1       -4.8130  -79.4890  -23.7710 C.3    24  VAL24       0.0023
     25  CG2       -5.9770  -81.4780  -24.7250 C.3    24  VAL24       0.0023
     26  N         -1.5920  -80.1080  -24.0380 N.am   25  ASN25      -0.1958
     27  CA        -0.5150  -79.4230  -23.3360 C.3    25  ASN25       0.1819
     28  C         -1.0830  -78.4820  -22.2800 C.2    25  ASN25       0.2621
     29  O         -2.1870  -77.9620  -22.4340 O.2    25  ASN25      -0.2715
     30  CB         0.3790  -78.6620  -24.3190 C.3    25  ASN25       0.1195
     31  CG         1.6100  -78.0660  -23.6530 C.2    25  ASN25       0.2630
     32  OD1        1.5230  -77.0700  -22.9340 O.2    25  ASN25      -0.2716
     33  ND2        2.7640  -78.6820  -23.8830 N.am   25  ASN25      -0.0877
     34  N         -0.3240  -78.2720  -21.2090 N.am   26  ASN26      -0.1972
     35  CA        -0.8140  -77.5420  -20.0440 C.3    26  ASN26       0.1688
     36  C         -1.1490  -76.0680  -20.3000 C.2    26  ASN26       0.2292
     37  O         -2.0480  -75.5250  -19.6610 O.2    26  ASN26      -0.2864
     38  CB         0.1950  -77.6610  -18.8990 C.3    26  ASN26       0.1181
     39  CG         1.4960  -76.9460  -19.1820 C.2    26  ASN26       0.2629
     40  OD1        1.5930  -75.7290  -19.0400 O.2    26  ASN26      -0.2716
     41  ND2        2.5110  -77.7040  -19.5800 N.am   26  ASN26      -0.0877
     42  N         -4.7400  -75.2460  -21.2800 N.3    29  TYR29      -0.1241
     43  CA        -5.7010  -75.1170  -20.1940 C.3    29  TYR29       0.1605
     44  C         -5.9000  -73.6510  -19.8430 C.2    29  TYR29       0.2264
     45  O         -7.0240  -73.1940  -19.6180 O.2    29  TYR29      -0.2867
     46  CB        -5.2400  -75.8830  -18.9550 C.3    29  TYR29       0.0534
     47  CG        -5.3250  -77.3860  -19.0620 C.ar   29  TYR29      -0.0201
     48  CD1       -4.2880  -78.1300  -19.6000 C.ar   29  TYR29      -0.0009
     49  CD2       -6.4440  -78.0630  -18.6010 C.ar   29  TYR29      -0.0009
     50  CE1       -4.3690  -79.5080  -19.6830 C.ar   29  TYR29       0.0417
     51  CE2       -6.5340  -79.4370  -18.6830 C.ar   29  TYR29       0.0417
     52  CZ        -5.4950  -80.1540  -19.2250 C.ar   29  TYR29       0.1957
     53  OH        -5.5850  -81.5250  -19.3030 O.3    29  TYR29      -0.2866
     54  N         -4.3780  -77.2340  -11.5420 N.3    62  THR62      -0.1203
     55  CA        -4.1610  -78.5580  -10.9890 C.3    62  THR62       0.1994
     56  C         -4.7120  -79.6000  -11.9440 C.2    62  THR62       0.2618
     57  O         -5.8920  -79.5710  -12.2980 O.2    62  THR62      -0.2717
     58  CB        -4.8440  -78.7160   -9.6160 C.3    62  THR62       0.1784
     59  OG1       -4.3680  -77.7030   -8.7190 O.3    62  THR62      -0.2211
     60  CG2       -4.5660  -80.0930   -9.0300 C.3    62  THR62       0.0376
     61  N         -3.8520  -80.5210  -12.3600 N.am   63  PHE63      -0.1961
     62  CA        -4.2380  -81.5300  -13.3330 C.3    63  PHE63       0.1771
     63  C         -4.4960  -82.8750  -12.6640 C.2    63  PHE63       0.2619
     64  O         -3.5690  -83.5230  -12.1780 O.2    63  PHE63      -0.2715
     65  CB        -3.1540  -81.6510  -14.4020 C.3    63  PHE63       0.0574
     66  CG        -2.7090  -80.3270  -14.9580 C.ar   63  PHE63      -0.0200
     67  CD1       -3.4890  -79.6530  -15.8810 C.ar   63  PHE63      -0.0042
     68  CD2       -1.5160  -79.7510  -14.5500 C.ar   63  PHE63      -0.0042
     69  CE1       -3.0890  -78.4320  -16.3880 C.ar   63  PHE63      -0.0003
     70  CE2       -1.1110  -78.5290  -15.0560 C.ar   63  PHE63      -0.0003
     71  CZ        -1.8990  -77.8690  -15.9750 C.ar   63  PHE63      -0.0000
     72  N         -5.7590  -83.2890  -12.6550 N.am   64  LEU64      -0.1963
     73  CA        -6.1780  -84.4870  -11.9350 C.3    64  LEU64       0.1728
     74  C         -6.2630  -85.6820  -12.8750 C.2    64  LEU64       0.2616
     75  O         -5.8350  -86.7830  -12.5310 O.2    64  LEU64      -0.2715
     76  CB        -7.5160  -84.2500  -11.2370 C.3    64  LEU64       0.0311
     77  CG        -7.5200  -83.0620  -10.2740 C.3    64  LEU64       0.0022
     78  CD1       -8.9250  -82.7290   -9.8050 C.3    64  LEU64       0.0001
     79  CD2       -6.6120  -83.3460   -9.0880 C.3    64  LEU64       0.0001
     80  N         -6.8240  -85.4570  -14.0580 N.am   65  LYS65      -0.1964
     81  CA        -6.8810  -86.4720  -15.1040 C.3    65  LYS65       0.1713
     82  C         -6.5980  -85.8340  -16.4590 C.2    65  LYS65       0.2458
     83  O         -7.1230  -84.7640  -16.7670 O.2    65  LYS65      -0.2730
     84  CB        -8.2400  -87.1760  -15.1160 C.3    65  LYS65       0.0311
     85  CG        -8.5480  -87.9730  -13.8600 C.3    65  LYS65       0.0038
     86  CD        -7.6410  -89.1870  -13.7360 C.3    65  LYS65       0.0206
     87  CE        -7.9880  -90.0130  -12.5080 C.3    65  LYS65       0.1093
     88  NZ        -9.4530  -90.2800  -12.4370 N.3    65  LYS65      -0.1314
     89  N         -5.7310  -86.4770  -17.2590 N.am   66  PRO66      -0.2727
     90  CA        -5.3070  -86.0170  -18.5890 C.3    66  PRO66       0.1402
     91  C         -6.4270  -86.0180  -19.6280 C.2    66  PRO66       0.2269
     92  O         -7.2960  -86.8870  -19.5820 O.2    66  PRO66      -0.2865
     93  CB        -4.2190  -87.0250  -18.9750 C.3    66  PRO66       0.0296
     94  CG        -4.5560  -88.2460  -18.2070 C.3    66  PRO66       0.0237
     95  CD        -5.1020  -87.7590  -16.9000 C.3    66  PRO66       0.0939
@<TRIPOS>BOND
     1     4     3    2
     2     3     2    1
     3     2     1    1
     4     2     5    1
     5     5     6    1
     6     9    10    1
     7     7     6   ar
     8     6     8   ar
     9    12    11    2
    10    25    23    1
    11    11    10    1
    12    11    19   am
    13    10    13    1
    14    30    31    1
    15    30    27    1
    16    20    19    1
    17    20    23    1
    18    20    21    1
    19    26    21   am
    20    26    27    1
    21    33    31   am
    22    23    24    1
    23    31    32    2
    24    21    22    2
    25    27    28    1
    26    13    14    1
    27    29    28    2
    28    28    34   am
    29    14    16   ar
    30    14    15   ar
    31    16    18   ar
    32    15    17   ar
    33    18    17   ar
    34    42    43    1
    35    34    35    1
    36    36    35    1
    37    36    37    2
    38    43    44    1
    39    43    46    1
    40    35    38    1
    41    44    45    2
    42    50    48   ar
    43    50    52   ar
    44    91    92    2
    45    91    90    1
    46    48    47   ar
    47    41    39   am
    48    53    52    1
    49    52    51   ar
    50    39    40    2
    51    39    38    1
    52    47    46    1
    53    47    49   ar
    54    93    90    1
    55    93    94    1
    56    51    49   ar
    57    90    89    1
    58    94    95    1
    59    89    95    1
    60    89    82   am
    61    83    82    2
    62    82    81    1
    63    69    71   ar
    64    69    67   ar
    65    71    70   ar
    66    67    66   ar
    67    84    81    1
    68    84    85    1
    69    81    80    1
    70    70    68   ar
    71    66    68   ar
    72    66    65    1
    73    65    62    1
    74    80    74   am
    75    85    86    1
    76    86    87    1
    77    62    63    1
    78    62    61    1
    79    74    75    2
    80    74    73    1
    81    63    72   am
    82    63    64    2
    83    72    73    1
    84    87    88    1
    85    61    56   am
    86    57    56    2
    87    56    55    1
    88    73    76    1
    89    54    55    1
    90    76    77    1
    91    55    58    1
    92    77    78    1
    93    77    79    1
    94    58    60    1
    95    58    59    1
