@<TRIPOS>MOLECULE
tmp/5byuA00.pdb
 122 118 0 0 0
SMALL
GASTEIGER

@<TRIPOS>ATOM
      1  N         -8.6560  -55.3760  -16.8610 N.3    54  PRO54      -0.2102
      2  CA        -8.0870  -56.4850  -16.0930 C.3    54  PRO54       0.1504
      3  C         -6.7850  -57.0320  -16.6690 C.2    54  PRO54       0.2576
      4  O         -6.6090  -57.1010  -17.8870 O.2    54  PRO54      -0.2718
      5  CB        -9.1860  -57.5430  -16.1790 C.3    54  PRO54       0.0282
      6  CG        -9.7600  -57.3160  -17.5350 C.3    54  PRO54       0.0208
      7  CD        -9.8240  -55.8120  -17.6480 C.3    54  PRO54       0.0893
      8  N         -5.8820  -57.4190  -15.7750 N.am   55  VAL55      -0.1966
      9  CA        -4.6590  -58.1270  -16.1270 C.3    55  VAL55       0.1727
     10  C         -4.4130  -59.2660  -15.1450 C.2    55  VAL55       0.2616
     11  O         -4.6000  -59.1070  -13.9380 O.2    55  VAL55      -0.2715
     12  CB        -3.4370  -57.1930  -16.1760 C.3    55  VAL55       0.0290
     13  CG1       -3.4950  -56.3030  -17.4050 C.3    55  VAL55       0.0023
     14  CG2       -3.3090  -56.3870  -14.8920 C.3    55  VAL55       0.0023
     15  N         -4.0050  -60.4160  -15.6610 N.am   56  VAL56      -0.1963
     16  CA        -3.7390  -61.5580  -14.8050 C.3    56  VAL56       0.1727
     17  C         -2.4210  -61.3420  -14.0680 C.2    56  VAL56       0.2616
     18  O         -1.3950  -61.0890  -14.6930 O.2    56  VAL56      -0.2715
     19  CB        -3.6590  -62.8660  -15.6220 C.3    56  VAL56       0.0290
     20  CG1       -3.2470  -64.0230  -14.7340 C.3    56  VAL56       0.0023
     21  CG2       -4.9850  -63.1600  -16.2900 C.3    56  VAL56       0.0023
     22  N         -2.4460  -61.4400  -12.7430 N.am   57  ILE57      -0.1963
     23  CA        -1.2220  -61.2760  -11.9700 C.3    57  ILE57       0.1727
     24  C         -0.7690  -62.6580  -11.5510 C.2    57  ILE57       0.2616
     25  O          0.4270  -62.9390  -11.4820 O.2    57  ILE57      -0.2715
     26  CB        -1.4280  -60.3940  -10.7120 C.3    57  ILE57       0.0290
     27  CG1       -0.3410  -60.6420   -9.6560 C.3    57  ILE57       0.0022
     28  CG2       -2.7950  -60.6350  -10.1180 C.3    57  ILE57       0.0023
     29  CD1        1.0190  -60.0800  -10.0130 C.3    57  ILE57       0.0001
     30  N         -1.7330  -63.5450  -11.3280 N.am   58  HIS58      -0.1973
     31  CA        -1.3780  -64.9210  -11.0010 C.3    58  HIS58       0.1656
     32  C         -2.3330  -65.8810  -11.6910 C.2    58  HIS58       0.2291
     33  O         -3.4710  -65.5340  -11.9740 O.2    58  HIS58      -0.2864
     34  CB        -1.3880  -65.1350   -9.4790 C.3    58  HIS58       0.0771
     35  CG        -0.8660  -66.4670   -9.0420 C.ar   58  HIS58       0.0820
     36  ND1        0.4720  -66.7060   -8.8040 N.ar   58  HIS58      -0.2267
     37  CD2       -1.5040  -67.6360   -8.7750 C.ar   58  HIS58       0.1154
     38  CE1        0.6350  -67.9590   -8.4240 C.ar   58  HIS58       0.1986
     39  NE2       -0.5450  -68.5450   -8.3960 N.ar   58  HIS58      -0.2212
     40  N        -10.5460  -58.0660   -3.9170 N.3    83  GLY83      -0.1210
     41  CA        -9.7570  -57.0950   -3.1880 C.3    83  GLY83       0.1956
     42  C        -10.3070  -55.7380   -3.5680 C.2    83  GLY83       0.2612
     43  O        -11.4340  -55.6380   -4.0510 O.2    83  GLY83      -0.2717
     44  N         -9.5310  -54.6870   -3.3490 N.am   84  ASN84      -0.1960
     45  CA        -9.9440  -53.3820   -3.8190 C.3    84  ASN84       0.1819
     46  C         -9.6490  -53.2910   -5.2950 C.2    84  ASN84       0.2622
     47  O        -10.4420  -52.7550   -6.0600 O.2    84  ASN84      -0.2715
     48  CB        -9.2410  -52.2450   -3.0710 C.3    84  ASN84       0.1195
     49  CG        -9.8060  -50.8830   -3.4370 C.2    84  ASN84       0.2630
     50  OD1      -11.0090  -50.7430   -3.6780 O.2    84  ASN84      -0.2716
     51  ND2       -8.9480  -49.8700   -3.4710 N.am   84  ASN84      -0.0877
     52  N         -8.4810  -53.7880   -5.6770 N.am   85  SER85      -0.1936
     53  CA        -8.1030  -53.8560   -7.0760 C.3    85  SER85       0.2055
     54  C         -8.0330  -55.2890   -7.6010 C.2    85  SER85       0.2643
     55  O         -8.1480  -55.5190   -8.8020 O.2    85  SER85      -0.2714
     56  CB        -6.7520  -53.1740   -7.2780 C.3    85  SER85       0.2130
     57  OG        -5.7060  -53.9940   -6.7810 O.3    85  SER85      -0.2179
     58  N         -7.8730  -56.2530   -6.6990 N.am   86  SER86      -0.1949
     59  CA        -7.6320  -57.6330   -7.1160 C.3    86  SER86       0.1924
     60  C         -8.8730  -58.5020   -7.0050 C.2    86  SER86       0.2314
     61  O         -9.8030  -58.1860   -6.2660 O.2    86  SER86      -0.2863
     62  CB        -6.5120  -58.2640   -6.2900 C.3    86  SER86       0.2116
     63  OG        -6.9540  -58.5520   -4.9750 O.3    86  SER86      -0.2180
     64  N         -5.7310  -65.0020  -10.3740 N.3   106  LYS106     -0.1245
     65  CA        -5.8170  -63.7130   -9.7250 C.3   106  LYS106      0.1561
     66  C         -5.6290  -62.6480  -10.7880 C.2   106  LYS106      0.2260
     67  O         -4.6140  -62.6310  -11.5100 O.2   106  LYS106     -0.2867
     68  CB        -4.7960  -63.5720   -8.5990 C.3   106  LYS106      0.0271
     69  CG        -5.0440  -62.3350   -7.7460 C.3   106  LYS106      0.0035
     70  CD        -4.1880  -62.3430   -6.4970 C.3   106  LYS106      0.0206
     71  CE        -4.5480  -61.1870   -5.5740 C.3   106  LYS106      0.1093
     72  NZ        -3.6750  -61.1530   -4.3700 N.3   106  LYS106     -0.1314
     73  N         -6.0500  -58.4200  -11.8080 N.3   108  VAL108     -0.1245
     74  CA        -6.0310  -57.0640  -11.2710 C.3   108  VAL108      0.1561
     75  C         -6.5120  -56.0560  -12.2990 C.2   108  VAL108      0.2260
     76  O         -6.2420  -56.1980  -13.4880 O.2   108  VAL108     -0.2867
     77  CB        -4.6090  -56.6780  -10.7940 C.3   108  VAL108      0.0252
     78  CG1       -4.5330  -55.2170  -10.3650 C.3   108  VAL108      0.0019
     79  CG2       -4.1980  -57.5630   -9.6610 C.3   108  VAL108      0.0019
     80  N         -6.1580  -52.4860  -13.9400 N.3   110  ILE110     -0.1245
     81  CA        -5.1180  -51.4920  -14.1210 C.3   110  ILE110      0.1561
     82  C         -5.4720  -50.5300  -15.2390 C.2   110  ILE110      0.2260
     83  O         -6.3430  -50.8080  -16.0630 O.2   110  ILE110     -0.2867
     84  CB        -3.7580  -52.1290  -14.4760 C.3   110  ILE110      0.0252
     85  CG1       -3.8580  -52.8700  -15.8080 C.3   110  ILE110      0.0019
     86  CG2       -3.2620  -53.0260  -13.3520 C.3   110  ILE110      0.0019
     87  CD1       -2.5360  -52.9880  -16.5340 C.3   110  ILE110      0.0001
     88  N         -4.0860  -49.5470  -18.5230 N.3   112  TYR112     -0.1241
     89  CA        -3.1440  -50.2440  -19.3890 C.3   112  TYR112      0.1605
     90  C         -1.9790  -49.3370  -19.7390 C.2   112  TYR112      0.2264
     91  O         -0.8210  -49.7590  -19.7320 O.2   112  TYR112     -0.2867
     92  CB        -3.8110  -50.7300  -20.6790 C.3   112  TYR112      0.0534
     93  CG        -4.9270  -51.7420  -20.5270 C.ar  112  TYR112     -0.0201
     94  CD1       -4.6880  -52.9940  -19.9740 C.ar  112  TYR112     -0.0009
     95  CD2       -6.1960  -51.4740  -21.0160 C.ar  112  TYR112     -0.0009
     96  CE1       -5.7010  -53.9270  -19.8600 C.ar  112  TYR112      0.0417
     97  CE2       -7.2090  -52.4010  -20.9150 C.ar  112  TYR112      0.0417
     98  CZ        -6.9550  -53.6240  -20.3370 C.ar  112  TYR112      0.1957
     99  OH        -7.9630  -54.5520  -20.2330 O.3   112  TYR112     -0.2866
    100  N          0.1620  -48.7830  -16.4760 N.3   115  ASN115     -0.1225
    101  CA         0.4960  -50.0390  -15.7810 C.3   115  ASN115      0.1785
    102  C          0.4930  -49.9710  -14.2390 C.2   115  ASN115      0.2597
    103  O          1.3970  -50.4690  -13.5680 O.2   115  ASN115     -0.2718
    104  CB         1.8180  -50.6430  -16.3390 C.3   115  ASN115      0.1169
    105  CG         3.0790  -49.7810  -16.1100 C.2   115  ASN115      0.2627
    106  OD1        3.2350  -49.0910  -15.1160 O.2   115  ASN115     -0.2716
    107  ND2        3.9680  -49.8060  -17.0900 N.am  115  ASN115     -0.0877
    108  N         -0.5390  -49.3160  -13.7090 N.am  116  LYS116     -0.1966
    109  CA        -0.7330  -49.1680  -12.2710 C.3   116  LYS116      0.1728
    110  C         -2.0920  -49.7400  -11.9180 C.2   116  LYS116      0.2616
    111  O         -3.0500  -49.5940  -12.6820 O.2   116  LYS116     -0.2715
    112  CB        -0.6630  -47.7090  -11.8120 C.3   116  LYS116      0.0311
    113  CG         0.6940  -47.0810  -11.9590 C.3   116  LYS116      0.0038
    114  CD         1.7260  -47.9090  -11.2190 C.3   116  LYS116      0.0206
    115  CE         3.1190  -47.3520  -11.4180 C.3   116  LYS116      0.1093
    116  NZ         3.1090  -45.8670  -11.5260 N.3   116  LYS116     -0.1314
    117  N         -2.1720  -50.3850  -10.7570 N.am  117  SER117     -0.1950
    118  CA        -3.4090  -51.0250  -10.3330 C.3   117  SER117      0.1924
    119  C         -4.4440  -49.9270  -10.1400 C.2   117  SER117      0.2314
    120  O         -4.1220  -48.8320   -9.6780 O.2   117  SER117     -0.2863
    121  CB        -3.2160  -51.8540   -9.0580 C.3   117  SER117      0.2116
    122  OG        -3.0440  -51.0520   -7.9040 O.3   117  SER117     -0.2180
@<TRIPOS>BOND
     1    95    97   ar
     2    95    93   ar
     3    97    98   ar
     4    92    93    1
     5    92    89    1
     6    93    94   ar
     7    98    99    1
     8    98    96   ar
     9    94    96   ar
    10    90    91    2
    11    90    89    1
    12    89    88    1
    13     4     3    2
    14     7     6    1
    15     7     1    1
    16     6     5    1
    17    13    12    1
    18   107   105   am
    19     1     2    1
    20     3     2    1
    21     3     8   am
    22    87    85    1
    23   100   101    1
    24   104   105    1
    25   104   101    1
    26    21    19    1
    27     5     2    1
    28    12     9    1
    29    12    14    1
    30     9     8    1
    31     9    10    1
    32   105   106    2
    33    83    82    2
    34    85    84    1
    35   101   102    1
    36    15    10   am
    37    15    16    1
    38    19    16    1
    39    19    20    1
    40    82    81    1
    41    10    11    2
    42    16    17    1
    43    18    17    2
    44    84    81    1
    45    84    86    1
    46   102   108   am
    47   102   103    2
    48    81    80    1
    49    17    22   am
    50   108   109    1
    51    76    75    2
    52    22    23    1
    53   111   110    2
    54    75    74    1
    55   109   110    1
    56   109   112    1
    57    33    32    2
    58    23    24    1
    59    23    26    1
    60   113   112    1
    61   113   114    1
    62   110   117   am
    63    73    74    1
    64    32    31    1
    65    24    25    2
    66    24    30   am
    67   116   115    1
    68    67    66    2
    69   115   114    1
    70    30    31    1
    71    74    77    1
    72    31    34    1
    73    77    78    1
    74    77    79    1
    75    66    65    1
    76   117   118    1
    77    26    28    1
    78    26    27    1
    79    64    65    1
    80   118   119    1
    81   118   121    1
    82   119   120    2
    83    29    27    1
    84    65    68    1
    85    34    35    1
    86   121   122    1
    87    35    36   ar
    88    35    37   ar
    89    36    38   ar
    90    55    54    2
    91    37    39   ar
    92    68    69    1
    93    38    39   ar
    94    69    70    1
    95    54    53    1
    96    54    58   am
    97    56    53    1
    98    56    57    1
    99    59    60    1
   100    59    58    1
   101    59    62    1
   102    53    52    1
   103    60    61    2
   104    70    71    1
   105    62    63    1
   106    47    46    2
   107    52    46   am
   108    71    72    1
   109    46    45    1
   110    43    42    2
   111    40    41    1
   112    45    44    1
   113    45    48    1
   114    50    49    2
   115    42    44   am
   116    42    41    1
   117    51    49   am
   118    49    48    1
