@<TRIPOS>MOLECULE
tmp/5byyA00.pdb
 145 134 0 0 0
SMALL
GASTEIGER

@<TRIPOS>ATOM
      1  N         -2.2720  -48.8060   -8.2270 N.3    13  ILE13      -0.1231
      2  CA        -0.8300  -48.8050   -7.9080 C.3    13  ILE13       0.1692
      3  C         -0.3920  -47.8360   -6.7940 C.2    13  ILE13       0.2592
      4  O          0.7350  -47.9350   -6.3000 O.2    13  ILE13      -0.2718
      5  CB         0.0110  -48.5300   -9.1840 C.3    13  ILE13       0.0266
      6  CG1       -0.2830  -47.1400   -9.7710 C.3    13  ILE13       0.0019
      7  CG2       -0.2730  -49.6050  -10.2240 C.3    13  ILE13       0.0020
      8  CD1        0.6710  -46.7340  -10.8580 C.3    13  ILE13       0.0001
      9  N         -1.2660  -46.9030   -6.4160 N.am   14  GLY14      -0.1957
     10  CA        -0.9480  -45.8950   -5.4030 C.3    14  GLY14       0.1869
     11  C         -2.1810  -45.2340   -4.8140 C.2    14  GLY14       0.2309
     12  O         -3.2180  -45.1270   -5.4760 O.2    14  GLY14      -0.2863
     13  N         -4.1880  -43.3300   -7.4940 N.3    21  VAL21      -0.1245
     14  CA        -3.4780  -43.5700   -8.7620 C.3    21  VAL21       0.1561
     15  C         -3.6670  -45.0190   -9.2040 C.2    21  VAL21       0.2260
     16  O         -3.5740  -45.9370   -8.3880 O.2    21  VAL21      -0.2867
     17  CB        -1.9640  -43.2530   -8.6560 C.3    21  VAL21       0.0252
     18  CG1       -1.2630  -43.5030   -9.9850 C.3    21  VAL21       0.0019
     19  CG2       -1.7500  -41.8120   -8.2190 C.3    21  VAL21       0.0019
     20  N         -2.9730  -47.6850  -12.8830 N.3    23  SER23      -0.1217
     21  CA        -2.4180  -47.8820  -14.2250 C.3    23  SER23       0.1889
     22  C         -3.5370  -48.1280  -15.2330 C.2    23  SER23       0.2288
     23  O         -4.5810  -48.6890  -14.8920 O.2    23  SER23      -0.2866
     24  CB        -1.4270  -49.0520  -14.2490 C.3    23  SER23       0.2089
     25  OG        -2.0330  -50.2530  -13.8150 O.3    23  SER23      -0.2183
     26  N         -0.8300  -43.6630  -16.4350 N.3    34  ALA34      -0.1245
     27  CA        -1.3270  -43.6820  -15.0590 C.3    34  ALA34       0.1562
     28  C         -2.4760  -42.6990  -14.9830 C.2    34  ALA34       0.2260
     29  O         -2.3300  -41.5540  -15.3950 O.2    34  ALA34      -0.2867
     30  CB        -0.2310  -43.2920  -14.0840 C.3    34  ALA34       0.0290
     31  N         -5.0660  -40.8030  -12.3590 N.3    36  LYS36      -0.1245
     32  CA        -5.1520  -40.3980  -10.9630 C.3    36  LYS36       0.1561
     33  C         -6.5080  -39.7440  -10.7430 C.2    36  LYS36       0.2260
     34  O         -6.7280  -38.6070  -11.1740 O.2    36  LYS36      -0.2867
     35  CB        -4.0180  -39.4210  -10.6390 C.3    36  LYS36       0.0271
     36  CG        -4.0210  -38.8530   -9.2170 C.3    36  LYS36       0.0035
     37  CD        -2.8300  -37.9210   -9.0260 C.3    36  LYS36       0.0206
     38  CE        -2.9210  -37.0930   -7.7520 C.3    36  LYS36       0.1093
     39  NZ        -1.7990  -36.1060   -7.6790 N.3    36  LYS36      -0.1314
     40  N          7.4660  -35.3680  -13.4130 N.3    67  ILE67      -0.1245
     41  CA         6.2140  -35.9880  -13.8490 C.3    67  ILE67       0.1561
     42  C          5.4300  -35.0130  -14.7080 C.2    67  ILE67       0.2260
     43  O          5.3170  -33.8310  -14.3670 O.2    67  ILE67      -0.2867
     44  CB         5.3350  -36.4330  -12.6480 C.3    67  ILE67       0.0252
     45  CG1        5.8360  -37.7600  -12.0840 C.3    67  ILE67       0.0019
     46  CG2        3.8950  -36.6440  -13.0590 C.3    67  ILE67       0.0019
     47  CD1        5.6070  -38.9480  -13.0110 C.3    67  ILE67       0.0001
     48  N         -1.3200  -39.2840  -16.3300 N.3    89  LEU89      -0.1231
     49  CA         0.0800  -38.9960  -16.0030 C.3    89  LEU89       0.1693
     50  C          1.0360  -40.0330  -16.6160 C.2    89  LEU89       0.2592
     51  O          0.6020  -41.0860  -17.0860 O.2    89  LEU89      -0.2718
     52  CB         0.2440  -39.0080  -14.4800 C.3    89  LEU89       0.0284
     53  CG        -0.4780  -37.9180  -13.6750 C.3    89  LEU89       0.0019
     54  CD1       -0.7810  -38.3850  -12.2530 C.3    89  LEU89       0.0001
     55  CD2        0.3320  -36.6270  -13.6440 C.3    89  LEU89       0.0001
     56  N          2.3340  -39.7190  -16.6060 N.am   90  ASP90      -0.1960
     57  CA         3.3940  -40.6710  -16.9550 C.3    90  ASP90       0.1840
     58  C          3.2930  -41.9050  -16.0710 C.2    90  ASP90       0.2622
     59  O          3.2360  -41.7510  -14.8630 O.2    90  ASP90      -0.2715
     60  CB         4.7850  -40.0450  -16.7240 C.3    90  ASP90       0.1450
     61  CG         5.2190  -39.0960  -17.8390 C.2    90  ASP90       0.3671
     62  OD1        5.0440  -39.4250  -19.0330 O.co2  90  ASP90      -0.2456
     63  OD2        5.7740  -38.0250  -17.5180 O.co2  90  ASP90      -0.2456
     64  N          3.2670  -43.1080  -16.6550 N.am   91  LEU91      -0.1963
     65  CA         3.3090  -44.3570  -15.8700 C.3    91  LEU91       0.1728
     66  C          4.7480  -44.7630  -15.6110 C.2    91  LEU91       0.2616
     67  O          5.5590  -44.7880  -16.5360 O.2    91  LEU91      -0.2715
     68  CB         2.6070  -45.5150  -16.5820 C.3    91  LEU91       0.0311
     69  CG         2.4520  -46.8120  -15.7650 C.3    91  LEU91       0.0022
     70  CD1        1.6440  -46.5680  -14.4980 C.3    91  LEU91       0.0001
     71  CD2        1.8160  -47.9280  -16.5790 C.3    91  LEU91       0.0001
     72  N          5.0400  -45.1200  -14.3630 N.am   92  MET92      -0.1963
     73  CA         6.3910  -45.4790  -13.9260 C.3    92  MET92       0.1736
     74  C          6.3650  -46.8290  -13.2110 C.2    92  MET92       0.2616
     75  O          5.4180  -47.1240  -12.4970 O.2    92  MET92      -0.2715
     76  CB         6.9420  -44.4000  -12.9930 C.3    92  MET92       0.0427
     77  CG         6.9320  -42.9870  -13.5850 C.3    92  MET92       0.0599
     78  SD         8.1400  -42.7850  -14.9070 S.3    92  MET92      -0.1393
     79  CE         9.6350  -42.6000  -13.9310 C.3    92  MET92       0.0692
     80  N          7.4200  -47.6220  -13.4000 N.am   93  GLU93      -0.1963
     81  CA         7.4910  -49.0240  -12.9450 C.3    93  GLU93       0.1733
     82  C          7.4400  -49.1670  -11.4200 C.2    93  GLU93       0.2617
     83  O          6.8500  -50.1240  -10.8960 O.2    93  GLU93      -0.2715
     84  CB         8.7810  -49.6840  -13.4760 C.3    93  GLU93       0.0429
     85  CG         8.8560  -51.2120  -13.2930 C.3    93  GLU93       0.1163
     86  CD        10.2150  -51.8150  -13.6570 C.2    93  GLU93       0.3649
     87  OE1       11.2560  -51.2660  -13.2320 O.co2  93  GLU93      -0.2457
     88  OE2       10.2410  -52.8570  -14.3490 O.co2  93  GLU93      -0.2457
     89  N          8.0800  -48.2280  -10.7240 N.am   94  SER94      -0.1936
     90  CA         8.2030  -48.2720   -9.2680 C.3    94  SER94       0.2055
     91  C          8.6550  -46.9050   -8.7300 C.2    94  SER94       0.2643
     92  O          8.5960  -45.9030   -9.4490 O.2    94  SER94      -0.2714
     93  CB         9.2070  -49.3590   -8.8730 C.3    94  SER94       0.2130
     94  OG         9.1330  -49.6300   -7.4910 O.3    94  SER94      -0.2179
     95  N          9.0840  -46.8700   -7.4680 N.am   95  ASP95      -0.1971
     96  CA         9.7740  -45.7030   -6.9060 C.3    95  ASP95       0.1709
     97  C         11.0770  -46.0990   -6.2060 C.2    95  ASP95       0.2293
     98  O         11.3310  -47.2760   -5.9480 O.2    95  ASP95      -0.2864
     99  CB         8.8530  -44.8820   -5.9780 C.3    95  ASP95       0.1436
    100  CG         8.2530  -45.7000   -4.8390 C.2    95  ASP95       0.3671
    101  OD1        8.9990  -46.3510   -4.0780 O.co2  95  ASP95      -0.2456
    102  OD2        7.0150  -45.6670   -4.6920 O.co2  95  ASP95      -0.2456
    103  N         11.1650  -48.2150   -2.9320 N.3    98  GLN98      -0.1245
    104  CA        11.0390  -49.6400   -3.2090 C.3    98  GLN98       0.1566
    105  C         12.3520  -50.2120   -3.7550 C.2    98  GLN98       0.2260
    106  O         12.7430  -51.3140   -3.3840 O.2    98  GLN98      -0.2867
    107  CB         9.8820  -49.9020   -4.1760 C.3    98  GLN98       0.0367
    108  CG         9.3680  -51.3510   -4.1850 C.3    98  GLN98       0.0905
    109  CD         8.6860  -51.7890   -2.8820 C.2    98  GLN98       0.2608
    110  OE1        8.5310  -52.9890   -2.6320 O.2    98  GLN98      -0.2717
    111  NE2        8.2730  -50.8240   -2.0560 N.am   98  GLN98      -0.0878
    112  N         10.2360  -42.1850   -1.9540 N.3   138  SER138     -0.1202
    113  CA         8.9070  -42.6080   -2.4300 C.3   138  SER138      0.2020
    114  C          8.2300  -41.6170   -3.3890 C.2   138  SER138      0.2618
    115  O          7.3080  -42.0000   -4.0870 O.2   138  SER138     -0.2717
    116  CB         7.9760  -42.9440   -1.2520 C.3   138  SER138      0.2103
    117  OG         7.4600  -41.7840   -0.6260 O.3   138  SER138     -0.2182
    118  N          8.6760  -40.3610   -3.4080 N.am  139  ASN139     -0.1974
    119  CA         8.2430  -39.3680   -4.4140 C.3   139  ASN139      0.1688
    120  C          9.1420  -39.3200   -5.6560 C.2   139  ASN139      0.2292
    121  O          8.8910  -38.5300   -6.5650 O.2   139  ASN139     -0.2864
    122  CB         8.1820  -37.9560   -3.7970 C.3   139  ASN139      0.1181
    123  CG         7.0480  -37.7850   -2.8100 C.2   139  ASN139      0.2629
    124  OD1        6.0330  -38.4740   -2.8770 O.2   139  ASN139     -0.2716
    125  ND2        7.2120  -36.8440   -1.8860 N.am  139  ASN139     -0.0877
    126  N          9.9790  -41.3690   -8.7000 N.3   141  LEU141     -0.1245
    127  CA         9.4460  -42.4900   -9.4700 C.3   141  LEU141      0.1561
    128  C         10.4570  -42.9390  -10.5090 C.2   141  LEU141      0.2260
    129  O         11.1400  -42.1140  -11.0970 O.2   141  LEU141     -0.2867
    130  CB         8.1580  -42.0720  -10.1770 C.3   141  LEU141      0.0270
    131  CG         7.0260  -41.5720   -9.2770 C.3   141  LEU141      0.0019
    132  CD1        6.0830  -40.6790  -10.0630 C.3   141  LEU141      0.0001
    133  CD2        6.2840  -42.7470   -8.6550 C.3   141  LEU141      0.0001
    134  N          7.8850  -36.3840   -8.4760 N.3   151  GLY151     -0.1210
    135  CA         6.4140  -36.2840   -8.4160 C.3   151  GLY151      0.1956
    136  C          5.9300  -35.7090   -7.0930 C.2   151  GLY151      0.2611
    137  O          6.7300  -35.4920   -6.1760 O.2   151  GLY151     -0.2717
    138  N          4.6220  -35.4540   -7.0120 N.am  152  ASP152     -0.1973
    139  CA         3.9600  -34.9040   -5.8100 C.3   152  ASP152      0.1709
    140  C          4.4210  -33.4790   -5.4640 C.2   152  ASP152      0.2293
    141  O          5.3240  -33.2850   -4.6460 O.2   152  ASP152     -0.2864
    142  CB         4.1170  -35.8460   -4.5970 C.3   152  ASP152      0.1436
    143  CG         3.0700  -35.5930   -3.5070 C.2   152  ASP152      0.3671
    144  OD1        2.6680  -34.4250   -3.2880 O.co2 152  ASP152     -0.2456
    145  OD2        2.6430  -36.5770   -2.8630 O.co2 152  ASP152     -0.2456
@<TRIPOS>BOND
     1    62    61   ar
     2    61    63   ar
     3    61    60    1
     4    51    50    2
     5    57    60    1
     6    57    56    1
     7    57    58    1
     8    64    58   am
     9    64    65    1
    10    50    56   am
    11    50    49    1
    12    68    65    1
    13    68    69    1
    14    71    69    1
    15    67    66    2
    16    26    27    1
    17    48    49    1
    18    58    59    2
    19    49    52    1
    20    65    66    1
    21    69    70    1
    22    66    72   am
    23    29    28    2
    24    22    23    2
    25    22    21    1
    26    27    28    1
    27    27    30    1
    28    78    79    1
    29    78    77    1
    30    42    43    2
    31    42    41    1
    32    52    53    1
    33    72    73    1
    34    88    86   ar
    35    24    21    1
    36    24    25    1
    37    21    20    1
    38    73    74    1
    39    73    76    1
    40    41    40    1
    41    41    44    1
    42    53    55    1
    43    53    54    1
    44    86    85    1
    45    86    87   ar
    46    77    76    1
    47    84    85    1
    48    84    81    1
    49    80    74   am
    50    80    81    1
    51    74    75    2
    52    46    44    1
    53    47    45    1
    54    81    82    1
    55    44    45    1
    56    31    32    1
    57    82    83    2
    58    82    89   am
    59    34    33    2
    60   129   128    2
    61    32    33    1
    62    32    35    1
    63     8     6    1
    64    89    90    1
    65    35    36    1
    66   128   127    1
    67     7     5    1
    68   130   127    1
    69   130   131    1
    70   132   131    1
    71    18    17    1
    72     6     5    1
    73   127   126    1
    74    92    91    2
    75   131   133    1
    76    90    93    1
    77    90    91    1
    78    36    37    1
    79    15    14    1
    80    15    16    2
    81     5     2    1
    82    37    38    1
    83    93    94    1
    84    14    17    1
    85    14    13    1
    86    91    95   am
    87    17    19    1
    88   134   135    1
    89   135   136    1
    90     1     2    1
    91     2     3    1
    92    38    39    1
    93    95    96    1
    94   136   138   am
    95   136   137    2
    96   138   139    1
    97    96    97    1
    98    96    99    1
    99     3     9   am
   100     3     4    2
   101   121   120    2
   102     9    10    1
   103    97    98    2
   104    99   100    1
   105   139   140    1
   106   139   142    1
   107   120   119    1
   108    12    11    2
   109   140   141    2
   110    10    11    1
   111   100   102   ar
   112   100   101   ar
   113   142   143    1
   114   119   122    1
   115   119   118    1
   116   108   107    1
   117   108   109    1
   118   107   104    1
   119   115   114    2
   120   122   123    1
   121   105   106    2
   122   105   104    1
   123   143   144   ar
   124   143   145   ar
   125   118   114   am
   126   114   113    1
   127   104   103    1
   128   109   110    2
   129   109   111   am
   130   124   123    2
   131   123   125   am
   132   113   112    1
   133   113   116    1
   134   116   117    1
