@<TRIPOS>MOLECULE
tmp/5byzA00.pdb
 170 159 0 0 0
SMALL
GASTEIGER

@<TRIPOS>ATOM
      1  N         -2.4010  -49.4260  -12.3680 N.3    14  ILE14      -0.1231
      2  CA        -0.9840  -49.4080  -12.0030 C.3    14  ILE14       0.1692
      3  C         -0.6820  -48.6380  -10.7100 C.2    14  ILE14       0.2593
      4  O          0.3700  -48.8700  -10.1060 O.2    14  ILE14      -0.2718
      5  CB        -0.0770  -48.9250  -13.1700 C.3    14  ILE14       0.0266
      6  CG1       -0.3840  -47.4850  -13.5770 C.3    14  ILE14       0.0019
      7  CG2       -0.2290  -49.8790  -14.3820 C.3    14  ILE14       0.0020
      8  CD1        0.4550  -46.9880  -14.7810 C.3    14  ILE14       0.0001
      9  N         -1.5910  -47.7540  -10.2890 N.am   15  GLY15      -0.1942
     10  CA        -1.4300  -47.0070   -9.0380 C.3    15  GLY15       0.2014
     11  C         -2.7380  -46.7080   -8.3390 C.2    15  GLY15       0.2638
     12  O         -3.7090  -46.3310   -8.9900 O.2    15  GLY15      -0.2714
     13  N         -2.7510  -46.8900   -7.0150 N.am   16  ASN16      -0.1972
     14  CA        -3.8510  -46.4890   -6.1380 C.3    16  ASN16       0.1688
     15  C         -3.2640  -45.7040   -4.9810 C.2    16  ASN16       0.2292
     16  O         -2.4570  -46.2470   -4.2350 O.2    16  ASN16      -0.2864
     17  CB        -4.5540  -47.6950   -5.5180 C.3    16  ASN16       0.1181
     18  CG        -5.2640  -48.5460   -6.5170 C.2    16  ASN16       0.2629
     19  OD1       -4.6530  -49.3930   -7.1630 O.2    16  ASN16      -0.2716
     20  ND2       -6.5880  -48.3730   -6.6150 N.am   16  ASN16      -0.0877
     21  N         -3.8820  -39.5070   -4.4510 N.3    19  TYR19      -0.1241
     22  CA        -4.1470  -38.8610   -5.7540 C.3    19  TYR19       0.1605
     23  C         -5.3360  -39.4150   -6.5570 C.2    19  TYR19       0.2264
     24  O         -5.7910  -38.7660   -7.5010 O.2    19  TYR19      -0.2867
     25  CB        -2.8830  -38.9460   -6.6440 C.3    19  TYR19       0.0534
     26  CG        -2.3640  -40.3620   -6.8020 C.ar   19  TYR19      -0.0201
     27  CD1       -2.9550  -41.2570   -7.7060 C.ar   19  TYR19      -0.0009
     28  CD2       -1.2990  -40.8240   -6.0280 C.ar   19  TYR19      -0.0009
     29  CE1       -2.4960  -42.5590   -7.8320 C.ar   19  TYR19       0.0417
     30  CE2       -0.8430  -42.1340   -6.1420 C.ar   19  TYR19       0.0417
     31  CZ        -1.4420  -42.9910   -7.0590 C.ar   19  TYR19       0.1957
     32  OH        -0.9870  -44.2870   -7.1690 O.3    19  TYR19      -0.2866
     33  N         -4.5470  -44.5310  -10.9730 N.3    22  VAL22      -0.1245
     34  CA        -3.8970  -44.4460  -12.2840 C.3    22  VAL22       0.1561
     35  C         -3.9470  -45.8180  -12.9680 C.2    22  VAL22       0.2260
     36  O         -3.5960  -46.8380  -12.3690 O.2    22  VAL22      -0.2867
     37  CB        -2.4390  -43.9470  -12.1730 C.3    22  VAL22       0.0252
     38  CG1       -1.7720  -43.8760  -13.5480 C.3    22  VAL22       0.0019
     39  CG2       -2.4160  -42.5780  -11.5230 C.3    22  VAL22       0.0019
     40  N         -1.3590  -43.1260  -19.7190 N.3    35  ALA35      -0.1245
     41  CA        -1.8750  -43.3090  -18.3590 C.3    35  ALA35       0.1562
     42  C         -3.1460  -42.4860  -18.2290 C.2    35  ALA35       0.2260
     43  O         -3.2290  -41.3810  -18.7700 O.2    35  ALA35      -0.2867
     44  CB        -0.8580  -42.8750  -17.3010 C.3    35  ALA35       0.0290
     45  N         -5.4990  -41.0670  -15.0940 N.3    37  LYS37      -0.1245
     46  CA        -5.7130  -40.8640  -13.6650 C.3    37  LYS37       0.1561
     47  C         -7.1610  -40.4750  -13.4520 C.2    37  LYS37       0.2260
     48  O         -7.6060  -39.4540  -13.9860 O.2    37  LYS37      -0.2867
     49  CB        -4.7990  -39.7570  -13.1100 C.3    37  LYS37       0.0271
     50  CG        -5.0480  -39.5020  -11.6150 C.3    37  LYS37       0.0035
     51  CD        -3.9080  -38.7980  -10.9070 C.3    37  LYS37       0.0206
     52  CE        -3.7150  -37.3850  -11.4000 C.3    37  LYS37       0.1093
     53  NZ        -2.7400  -36.6740  -10.5290 N.3    37  LYS37      -0.1314
     54  N         -2.2340  -28.5810   -9.7110 N.3    55  GLU55      -0.1245
     55  CA        -1.5420  -29.5290  -10.6130 C.3    55  GLU55       0.1567
     56  C         -1.9630  -29.3070  -12.0690 C.2    55  GLU55       0.2260
     57  O         -1.1070  -29.2620  -12.9560 O.2    55  GLU55      -0.2867
     58  CB        -1.7440  -30.9980  -10.2160 C.3    55  GLU55       0.0388
     59  CG        -1.2520  -31.9700  -11.2960 C.3    55  GLU55       0.1160
     60  CD        -1.1920  -33.4070  -10.8390 C.2    55  GLU55       0.3649
     61  OE1       -2.1270  -34.1620  -11.1810 O.co2  55  GLU55      -0.2457
     62  OE2       -0.2320  -33.7650  -10.1350 O.co2  55  GLU55      -0.2457
     63  N          6.0620  -34.7820  -16.0450 N.3    68  ILE68      -0.1245
     64  CA         4.8850  -35.4960  -16.5460 C.3    68  ILE68       0.1561
     65  C          3.9790  -34.5190  -17.3070 C.2    68  ILE68       0.2260
     66  O          3.8190  -33.3710  -16.8880 O.2    68  ILE68      -0.2867
     67  CB         4.1150  -36.2010  -15.3970 C.3    68  ILE68       0.0252
     68  CG1        3.1640  -37.2630  -15.9490 C.3    68  ILE68       0.0019
     69  CG2        3.3840  -35.1850  -14.5020 C.3    68  ILE68       0.0019
     70  CD1        3.8720  -38.4890  -16.5370 C.3    68  ILE68       0.0001
     71  N         -2.3360  -38.8250  -19.2670 N.3    90  LEU90      -0.1231
     72  CA        -0.9330  -38.4150  -19.1780 C.3    90  LEU90       0.1693
     73  C         -0.0280  -39.4160  -19.8900 C.2    90  LEU90       0.2592
     74  O         -0.4830  -40.4680  -20.3440 O.2    90  LEU90      -0.2718
     75  CB        -0.5020  -38.2740  -17.7120 C.3    90  LEU90       0.0284
     76  CG        -1.4150  -37.4050  -16.8200 C.3    90  LEU90       0.0019
     77  CD1       -2.3230  -38.2690  -15.9330 C.3    90  LEU90       0.0001
     78  CD2       -0.5850  -36.4480  -15.9550 C.3    90  LEU90       0.0001
     79  N          1.2580  -39.0720  -19.9890 N.am   91  ASP91      -0.1974
     80  CA         2.2810  -40.0240  -20.4470 C.3    91  ASP91       0.1709
     81  C          2.1610  -41.3060  -19.6390 C.2    91  ASP91       0.2293
     82  O          2.0020  -41.2340  -18.4200 O.2    91  ASP91      -0.2864
     83  CB         3.7040  -39.4950  -20.1910 C.3    91  ASP91       0.1436
     84  CG         3.9820  -38.1640  -20.8400 C.2    91  ASP91       0.3671
     85  OD1        3.9220  -38.0780  -22.0870 O.co2  91  ASP91      -0.2456
     86  OD2        4.2970  -37.2090  -20.0890 O.co2  91  ASP91      -0.2456
     87  N          3.7430  -44.0780  -17.6210 N.3    93  MET93      -0.1230
     88  CA         5.0000  -44.3750  -16.9240 C.3    93  MET93       0.1702
     89  C          4.7750  -45.6610  -16.1420 C.2    93  MET93       0.2592
     90  O          3.9320  -45.7090  -15.2400 O.2    93  MET93      -0.2718
     91  CB         5.4240  -43.2270  -16.0030 C.3    93  MET93       0.0401
     92  CG         5.4430  -41.8450  -16.6580 C.3    93  MET93       0.0596
     93  SD         6.6570  -41.7180  -18.0000 S.3    93  MET93      -0.1393
     94  CE         8.1960  -41.5310  -17.1030 C.3    93  MET93       0.0692
     95  N          5.4850  -46.7210  -16.5290 N.am   94  GLU94      -0.1966
     96  CA         5.2200  -48.0530  -15.9940 C.3    94  GLU94       0.1733
     97  C          5.6230  -48.2380  -14.5270 C.2    94  GLU94       0.2617
     98  O          5.0420  -49.0880  -13.8370 O.2    94  GLU94      -0.2715
     99  CB         5.9040  -49.1290  -16.8470 C.3    94  GLU94       0.0429
    100  CG         5.2940  -49.3160  -18.2390 C.3    94  GLU94       0.1163
    101  CD         5.8130  -48.3540  -19.3090 C.2    94  GLU94       0.3649
    102  OE1        6.5930  -47.4350  -18.9960 O.co2  94  GLU94      -0.2457
    103  OE2        5.4150  -48.5240  -20.4790 O.co2  94  GLU94      -0.2457
    104  N          6.5890  -47.4550  -14.0570 N.am   95  SER95      -0.1936
    105  CA         7.1200  -47.6260  -12.7150 C.3    95  SER95       0.2055
    106  C          7.4900  -46.2860  -12.0980 C.2    95  SER95       0.2643
    107  O          7.4790  -45.2510  -12.7600 O.2    95  SER95      -0.2714
    108  CB         8.3380  -48.5620  -12.7710 C.3    95  SER95       0.2130
    109  OG         8.7090  -49.0220  -11.4850 O.3    95  SER95      -0.2179
    110  N          7.7850  -46.3160  -10.8060 N.am   96  ASP96      -0.1971
    111  CA         8.3460  -45.1600  -10.1030 C.3    96  ASP96       0.1709
    112  C          9.7540  -45.5300   -9.6310 C.2    96  ASP96       0.2293
    113  O         10.1480  -46.7000   -9.6570 O.2    96  ASP96      -0.2864
    114  CB         7.4180  -44.6780   -8.9890 C.3    96  ASP96       0.1436
    115  CG         7.1680  -45.7200   -7.9310 C.2    96  ASP96       0.3671
    116  OD1        8.1560  -46.2530   -7.3790 O.co2  96  ASP96      -0.2456
    117  OD2        5.9950  -45.9860   -7.6180 O.co2  96  ASP96      -0.2456
    118  N         11.0080  -45.3850   -6.6360 N.3    98  HIS98      -0.1226
    119  CA        10.9790  -46.1870   -5.4070 C.3    98  HIS98       0.1752
    120  C         11.0240  -47.6750   -5.6900 C.2    98  HIS98       0.2595
    121  O         11.8400  -48.3880   -5.1070 O.2    98  HIS98      -0.2718
    122  CB         9.7640  -45.8840   -4.5160 C.3    98  HIS98       0.0759
    123  CG         9.6590  -46.8080   -3.3470 C.ar   98  HIS98       0.0818
    124  ND1       10.2740  -46.5520   -2.1420 N.ar   98  HIS98      -0.2268
    125  CD2        9.0600  -48.0170   -3.2160 C.ar   98  HIS98       0.1154
    126  CE1       10.0380  -47.5530   -1.3110 C.ar   98  HIS98       0.1986
    127  NE2        9.3090  -48.4580   -1.9410 N.ar   98  HIS98      -0.2212
    128  N         10.1130  -48.1220   -6.5640 N.am   99  GLN99      -0.1979
    129  CA        10.0450  -49.5090   -7.0240 C.3    99  GLN99       0.1601
    130  C         11.3970  -50.0000   -7.4990 C.2    99  GLN99       0.2287
    131  O         11.8460  -51.0650   -7.0980 O.2    99  GLN99      -0.2864
    132  CB         9.0710  -49.6460   -8.1960 C.3    99  GLN99       0.0394
    133  CG         7.6120  -49.6410   -7.8350 C.3    99  GLN99       0.0908
    134  CD         6.7340  -49.8800   -9.0520 C.2    99  GLN99       0.2608
    135  OE1        6.0700  -48.9640   -9.5390 O.2    99  GLN99      -0.2717
    136  NE2        6.7420  -51.1110   -9.5620 N.am   99  GLN99      -0.0878
    137  N          9.0580  -42.1610   -5.0350 N.3   139  SER139     -0.1202
    138  CA         7.7180  -42.5450   -5.5220 C.3   139  SER139      0.2020
    139  C          7.0310  -41.4970   -6.4060 C.2   139  SER139      0.2618
    140  O          6.0720  -41.8290   -7.1020 O.2   139  SER139     -0.2717
    141  CB         6.8030  -42.9160   -4.3780 C.3   139  SER139      0.2103
    142  OG         6.5940  -41.8570   -3.4740 O.3   139  SER139     -0.2182
    143  N          7.4940  -40.2480   -6.3610 N.am  140  ASN140     -0.1974
    144  CA         6.9920  -39.1990   -7.2660 C.3   140  ASN140      0.1688
    145  C          7.8230  -38.9970   -8.5160 C.2   140  ASN140      0.2292
    146  O          7.5120  -38.1190   -9.3220 O.2   140  ASN140     -0.2864
    147  CB         6.8420  -37.8740   -6.5070 C.3   140  ASN140      0.1181
    148  CG         5.6410  -37.8710   -5.6070 C.2   140  ASN140      0.2629
    149  OD1        4.6890  -38.6220   -5.8260 O.2   140  ASN140     -0.2716
    150  ND2        5.6670  -37.0250   -4.5840 N.am  140  ASN140     -0.0877
    151  N          8.7160  -40.7920  -11.8160 N.3   142  LEU142     -0.1245
    152  CA         8.2010  -41.8670  -12.6360 C.3   142  LEU142      0.1561
    153  C          9.2480  -42.2650  -13.6670 C.2   142  LEU142      0.2260
    154  O          9.9760  -41.4120  -14.1520 O.2   142  LEU142     -0.2867
    155  CB         6.9100  -41.4250  -13.3220 C.3   142  LEU142      0.0270
    156  CG         5.7720  -41.0530  -12.3600 C.3   142  LEU142      0.0019
    157  CD1        4.6330  -40.2940  -13.0790 C.3   142  LEU142      0.0001
    158  CD2        5.2520  -42.3160  -11.6620 C.3   142  LEU142      0.0001
    159  N          6.5150  -36.1340  -11.1750 N.3   152  GLY152     -0.1210
    160  CA         5.0640  -36.1330  -11.0260 C.3   152  GLY152      0.1956
    161  C          4.6070  -35.6040   -9.6750 C.2   152  GLY152      0.2611
    162  O          5.4280  -35.2930   -8.8090 O.2   152  GLY152     -0.2717
    163  N          3.2900  -35.5160   -9.5350 N.am  153  ASP153     -0.1973
    164  CA         2.5670  -35.0320   -8.3580 C.3   153  ASP153      0.1709
    165  C          2.9060  -33.5960   -7.9630 C.2   153  ASP153      0.2293
    166  O          3.7580  -33.3570   -7.1040 O.2   153  ASP153     -0.2864
    167  CB         2.7070  -35.9770   -7.1580 C.3   153  ASP153      0.1436
    168  CG         1.6570  -35.6980   -6.0810 C.2   153  ASP153      0.3671
    169  OD1        0.9560  -34.6580   -6.1690 O.co2 153  ASP153     -0.2456
    170  OD2        1.5210  -36.5140   -5.1550 O.co2 153  ASP153     -0.2456
@<TRIPOS>BOND
     1    85    84   ar
     2    84    83    1
     3    84    86   ar
     4   103   101   ar
     5    80    83    1
     6    80    79    1
     7    80    81    1
     8    74    73    2
     9    79    73   am
    10    73    72    1
    11    40    41    1
    12    81    82    2
    13   101   102   ar
    14   101   100    1
    15    71    72    1
    16    72    75    1
    17    43    42    2
    18    41    42    1
    19    41    44    1
    20   100    99    1
    21    93    94    1
    22    93    92    1
    23    75    76    1
    24    87    88    1
    25    65    66    2
    26    65    64    1
    27    88    89    1
    28    88    91    1
    29    99    96    1
    30    76    78    1
    31    76    77    1
    32    92    91    1
    33    64    63    1
    34    64    67    1
    35    70    68    1
    36    95    89   am
    37    95    96    1
    38    89    90    2
    39    96    97    1
    40    68    67    1
    41    67    69    1
    42    45    46    1
    43     8     6    1
    44    97   104   am
    45    97    98    2
    46     7     5    1
    47   154   153    2
    48   104   105    1
    49    48    47    2
    50   153   152    1
    51    46    47    1
    52    46    49    1
    53     6     5    1
    54    38    37    1
    55   155   152    1
    56   155   156    1
    57     5     2    1
    58    49    50    1
    59   157   156    1
    60    35    36    2
    61    35    34    1
    62    57    56    2
    63   108   105    1
    64   108   109    1
    65   107   106    2
    66   105   106    1
    67   152   151    1
    68     1     2    1
    69   156   158    1
    70    34    37    1
    71    34    33    1
    72    37    39    1
    73   106   110   am
    74    56    55    1
    75     2     3    1
    76    50    51    1
    77    52    51    1
    78    52    53    1
    79    59    60    1
    80    59    58    1
    81    61    60   ar
    82   159   160    1
    83   160   161    1
    84    60    62   ar
    85   110   111    1
    86     3     9   am
    87     3     4    2
    88    55    58    1
    89    55    54    1
    90     9    10    1
    91   111   112    1
    92   111   114    1
    93   161   163   am
    94   161   162    2
    95   113   112    2
    96   136   134   am
    97   135   134    2
    98   163   164    1
    99   146   145    2
   100   134   133    1
   101    10    11    1
   102    12    11    2
   103   114   115    1
   104   145   144    1
   105   164   165    1
   106   164   167    1
   107    11    13   am
   108   132   133    1
   109   132   129    1
   110   165   166    2
   111   115   117   ar
   112   115   116   ar
   113    29    27   ar
   114    29    31   ar
   115    27    26   ar
   116    24    23    2
   117   130   131    2
   118   130   129    1
   119   144   147    1
   120   144   143    1
   121    32    31    1
   122    19    18    2
   123   167   168    1
   124   140   139    2
   125    31    30   ar
   126   129   128    1
   127    13    14    1
   128    26    25    1
   129    26    28   ar
   130    25    22    1
   131   118   119    1
   132    20    18   am
   133   128   120   am
   134    23    22    1
   135    18    17    1
   136   147   148    1
   137   139   143   am
   138   139   138    1
   139   169   168   ar
   140    30    28   ar
   141    14    17    1
   142    14    15    1
   143   168   170   ar
   144   149   148    2
   145    22    21    1
   146   120   119    1
   147   120   121    2
   148   148   150   am
   149   138   137    1
   150   138   141    1
   151   119   122    1
   152    15    16    2
   153   122   123    1
   154   141   142    1
   155   123   125   ar
   156   123   124   ar
   157   125   127   ar
   158   124   126   ar
   159   127   126   ar
