@<TRIPOS>MOLECULE
tmp/5bz3A01.pdb
 140 129 0 0 0
SMALL
GASTEIGER

@<TRIPOS>ATOM
      1  N        -15.8380  -17.6160  -39.2700 N.3    16  GLN16      -0.1245
      2  CA       -15.9960  -16.2200  -39.6620 C.3    16  GLN16       0.1566
      3  C        -17.4680  -15.8700  -39.8340 C.2    16  GLN16       0.2260
      4  O        -17.9020  -14.7940  -39.4280 O.2    16  GLN16      -0.2867
      5  CB       -15.2370  -15.9210  -40.9610 C.3    16  GLN16       0.0367
      6  CG       -13.7840  -15.5240  -40.7630 C.3    16  GLN16       0.0905
      7  CD       -13.6350  -14.3110  -39.8610 C.2    16  GLN16       0.2608
      8  OE1      -13.9590  -13.1890  -40.2520 O.2    16  GLN16      -0.2717
      9  NE2      -13.1510  -14.5330  -38.6440 N.am   16  GLN16      -0.0878
     10  N        -18.2250  -19.5030  -32.7980 N.3    33  GLU33      -0.1245
     11  CA       -17.0630  -20.2270  -33.3040 C.3    33  GLU33       0.1567
     12  C        -17.1580  -21.7090  -32.9460 C.2    33  GLU33       0.2260
     13  O        -16.7000  -22.5680  -33.6980 O.2    33  GLU33      -0.2867
     14  CB       -15.7720  -19.6080  -32.7610 C.3    33  GLU33       0.0388
     15  CG       -15.6410  -18.1280  -33.1230 C.3    33  GLU33       0.1160
     16  CD       -14.3090  -17.5260  -32.7240 C.2    33  GLU33       0.3649
     17  OE1      -13.6380  -18.0960  -31.8400 O.co2  33  GLU33      -0.2457
     18  OE2      -13.9400  -16.4730  -33.2900 O.co2  33  GLU33      -0.2457
     19  N         -1.9040  -13.2490  -25.4880 N.3    68  MET68      -0.1245
     20  CA        -2.4080  -11.8980  -25.7390 C.3    68  MET68       0.1570
     21  C         -3.0030  -11.2890  -24.4600 C.2    68  MET68       0.2261
     22  O         -2.8000  -10.1140  -24.1590 O.2    68  MET68      -0.2867
     23  CB        -3.4620  -11.9150  -26.8490 C.3    68  MET68       0.0387
     24  CG        -3.9480  -10.5320  -27.2810 C.3    68  MET68       0.0595
     25  SD        -2.6450   -9.5000  -27.9880 S.3    68  MET68      -0.1393
     26  CE        -3.3480   -7.8630  -27.7720 C.3    68  MET68       0.0692
     27  N         -1.8350   -7.7580  -21.9560 N.3    72  GLU72      -0.1245
     28  CA        -2.6700   -6.6390  -21.5220 C.3    72  GLU72       0.1567
     29  C         -2.8370   -6.6040  -20.0030 C.2    72  GLU72       0.2260
     30  O         -3.6920   -5.8840  -19.4860 O.2    72  GLU72      -0.2867
     31  CB        -4.0470   -6.7160  -22.1890 C.3    72  GLU72       0.0388
     32  CG        -4.0140   -6.7100  -23.7090 C.3    72  GLU72       0.1160
     33  CD        -3.2920   -5.5050  -24.2760 C.2    72  GLU72       0.3649
     34  OE1       -3.3110   -4.4350  -23.6300 O.co2  72  GLU72      -0.2457
     35  OE2       -2.7070   -5.6300  -25.3710 O.co2  72  GLU72      -0.2457
     36  N        -11.5620  -15.4080  -23.3240 N.3   131  ARG131     -0.1245
     37  CA       -11.9550  -14.9150  -24.6370 C.3   131  ARG131      0.1563
     38  C        -13.0780  -13.8850  -24.5240 C.2   131  ARG131      0.2260
     39  O        -13.0610  -12.8490  -25.1950 O.2   131  ARG131     -0.2867
     40  CB       -12.3930  -16.0770  -25.5320 C.3   131  ARG131      0.0307
     41  CG       -13.0170  -15.6550  -26.8570 C.3   131  ARG131      0.0489
     42  CD       -12.0690  -14.8070  -27.6930 C.3   131  ARG131      0.2205
     43  NE       -12.7280  -14.3250  -28.9040 N.pl3 131  ARG131     -0.0865
     44  CZ       -12.8990  -15.0520  -30.0020 C.cat 131  ARG131      0.5346
     45  NH1      -12.4570  -16.3020  -30.0560 N.pl3 131  ARG131      0.1354
     46  NH2      -13.5210  -14.5290  -31.0480 N.pl3 131  ARG131      0.1354
     47  N        -11.8210  -10.6010  -22.9950 N.3   134  GLN134     -0.1231
     48  CA       -11.0890   -9.8710  -24.0190 C.3   134  GLN134      0.1698
     49  C        -12.0570   -9.2610  -25.0250 C.2   134  GLN134      0.2592
     50  O        -11.9100   -8.1080  -25.4290 O.2   134  GLN134     -0.2718
     51  CB       -10.1000  -10.7980  -24.7290 C.3   134  GLN134      0.0381
     52  CG        -9.2620  -10.1050  -25.7990 C.3   134  GLN134      0.0905
     53  CD        -8.4050  -11.0730  -26.5970 C.2   134  GLN134      0.2608
     54  OE1       -7.2240  -10.8240  -26.8340 O.2   134  GLN134     -0.2717
     55  NE2       -9.0000  -12.1810  -27.0250 N.am  134  GLN134     -0.0878
     56  N        -13.0450  -10.0510  -25.4240 N.am  135  GLU135     -0.1979
     57  CA       -14.0360   -9.6160  -26.3980 C.3   135  GLU135      0.1602
     58  C        -14.7560   -8.3370  -25.9520 C.2   135  GLU135      0.2287
     59  O        -14.9840   -7.4310  -26.7540 O.2   135  GLU135     -0.2864
     60  CB       -15.0590  -10.7280  -26.6410 C.3   135  GLU135      0.0415
     61  CG       -15.9490  -10.4860  -27.8500 C.3   135  GLU135      0.1163
     62  CD       -15.2320  -10.7600  -29.1540 C.2   135  GLU135      0.3649
     63  OE1      -15.2480   -9.8800  -30.0410 O.co2 135  GLU135     -0.2457
     64  OE2      -14.6570  -11.8600  -29.2920 O.co2 135  GLU135     -0.2457
     65  N        -13.7220   -6.1190  -23.7220 N.3   137  GLY137     -0.1225
     66  CA       -12.8290   -5.0120  -23.4180 C.3   137  GLY137      0.1811
     67  C        -12.6710   -4.7250  -21.9390 C.2   137  GLY137      0.2280
     68  O        -12.3170   -3.6100  -21.5580 O.2   137  GLY137     -0.2866
     69  N        -10.6780   -6.5620  -19.7290 N.3   139  LEU139     -0.1231
     70  CA        -9.5500   -7.2990  -19.1650 C.3   139  LEU139      0.1693
     71  C         -8.9050   -6.5720  -17.9830 C.2   139  LEU139      0.2592
     72  O         -8.3040   -7.2090  -17.1200 O.2   139  LEU139     -0.2718
     73  CB        -8.4890   -7.5800  -20.2320 C.3   139  LEU139      0.0284
     74  CG        -8.7550   -8.7720  -21.1620 C.3   139  LEU139      0.0019
     75  CD1       -7.6660   -8.8680  -22.2170 C.3   139  LEU139      0.0001
     76  CD2       -8.8580  -10.0910  -20.3950 C.3   139  LEU139      0.0001
     77  N         -9.0460   -5.2510  -17.9370 N.am  140  SER140     -0.1952
     78  CA        -8.4320   -4.4470  -16.8770 C.3   140  SER140      0.1924
     79  C         -9.2590   -4.3830  -15.5910 C.2   140  SER140      0.2314
     80  O         -8.7650   -3.9120  -14.5710 O.2   140  SER140     -0.2863
     81  CB        -8.1850   -3.0210  -17.3750 C.3   140  SER140      0.2116
     82  OG        -9.3950   -2.4110  -17.7890 O.3   140  SER140     -0.2180
     83  N          5.0860   -3.9270  -24.2140 N.3   250  ARG250     -0.1245
     84  CA         4.2080   -4.2390  -25.3410 C.3   250  ARG250      0.1563
     85  C          4.0690   -3.0670  -26.3190 C.2   250  ARG250      0.2260
     86  O          4.0420   -3.2650  -27.5390 O.2   250  ARG250     -0.2867
     87  CB         2.8340   -4.6580  -24.8280 C.3   250  ARG250      0.0307
     88  CG         1.9300   -3.5180  -24.4300 C.3   250  ARG250      0.0489
     89  CD         0.7920   -4.0580  -23.5900 C.3   250  ARG250      0.2205
     90  NE        -0.2240   -3.0600  -23.2750 N.pl3 250  ARG250     -0.0865
     91  CZ        -0.3890   -2.4700  -22.0950 C.cat 250  ARG250      0.5346
     92  NH1       -1.3620   -1.5860  -21.9380 N.pl3 250  ARG250      0.1354
     93  NH2        0.3990   -2.7580  -21.0650 N.pl3 250  ARG250      0.1354
     94  N          1.5310   -5.7720  -29.4600 N.3   256  GLU256     -0.1245
     95  CA         0.1160   -6.0790  -29.2830 C.3   256  GLU256      0.1567
     96  C         -0.5480   -6.4580  -30.5970 C.2   256  GLU256      0.2260
     97  O         -1.3570   -7.3830  -30.6640 O.2   256  GLU256     -0.2867
     98  CB        -0.6110   -4.8880  -28.6670 C.3   256  GLU256      0.0388
     99  CG        -0.2090   -4.6010  -27.2310 C.3   256  GLU256      0.1160
    100  CD        -0.7750   -3.2910  -26.7200 C.2   256  GLU256      0.3649
    101  OE1       -1.7350   -3.3270  -25.9220 O.co2 256  GLU256     -0.2457
    102  OE2       -0.2650   -2.2250  -27.1210 O.co2 256  GLU256     -0.2457
    103  N         -1.8370  -10.1570  -31.5830 N.3   260  PHE260     -0.1241
    104  CA        -3.2850  -10.1860  -31.7940 C.3   260  PHE260      0.1605
    105  C         -3.6140  -10.7210  -33.1880 C.2   260  PHE260      0.2264
    106  O         -4.6210  -11.4070  -33.3800 O.2   260  PHE260     -0.2867
    107  CB        -3.8900   -8.7910  -31.5970 C.3   260  PHE260      0.0534
    108  CG        -5.3460   -8.7000  -31.9700 C.ar  260  PHE260     -0.0203
    109  CD1       -6.3260   -9.1340  -31.0960 C.ar  260  PHE260     -0.0042
    110  CD2       -5.7330   -8.1620  -33.1920 C.ar  260  PHE260     -0.0042
    111  CE1       -7.6680   -9.0500  -31.4400 C.ar  260  PHE260     -0.0003
    112  CE2       -7.0700   -8.0800  -33.5390 C.ar  260  PHE260     -0.0003
    113  CZ        -8.0380   -8.5170  -32.6570 C.ar  260  PHE260     -0.0000
    114  N         -3.3660  -14.4440  -32.8590 N.3   263  GLU263     -0.1231
    115  CA        -4.5030  -14.9680  -32.0990 C.3   263  GLU263      0.1699
    116  C         -5.7400  -15.0170  -32.9930 C.2   263  GLU263      0.2592
    117  O         -6.5380  -15.9550  -32.9240 O.2   263  GLU263     -0.2718
    118  CB        -4.7990  -14.1210  -30.8490 C.3   263  GLU263      0.0402
    119  CG        -5.9850  -14.6330  -30.0230 C.3   263  GLU263      0.1161
    120  CD        -6.5910  -13.5740  -29.1220 C.2   263  GLU263      0.3649
    121  OE1       -7.7420  -13.7650  -28.6750 O.co2 263  GLU263     -0.2457
    122  OE2       -5.9230  -12.5550  -28.8580 O.co2 263  GLU263     -0.2457
    123  N         -5.8940  -13.9960  -33.8280 N.am  264  SER264     -0.1952
    124  CA        -7.0650  -13.8760  -34.6910 C.3   264  SER264      0.1924
    125  C         -7.1510  -15.0470  -35.6630 C.2   264  SER264      0.2314
    126  O         -8.2380  -15.4760  -36.0400 O.2   264  SER264     -0.2863
    127  CB        -7.0190  -12.5510  -35.4500 C.3   264  SER264      0.2116
    128  OG        -7.1360  -11.4580  -34.5530 O.3   264  SER264     -0.2180
    129  N         -6.9790  -18.7640  -32.6820 N.3   267  ALA267     -0.1231
    130  CA        -7.9350  -18.9330  -31.5820 C.3   267  ALA267      0.1679
    131  C         -9.3080  -19.3810  -32.0870 C.2   267  ALA267      0.2434
    132  O         -9.9780  -20.1690  -31.4270 O.2   267  ALA267     -0.2733
    133  CB        -8.0590  -17.6510  -30.7720 C.3   267  ALA267      0.0304
    134  N         -9.7390  -18.8890  -33.2580 N.am  268  PRO268     -0.2729
    135  CA       -11.0010  -19.4450  -33.7620 C.3   268  PRO268      0.1401
    136  C        -10.9140  -20.9460  -34.0570 C.2   268  PRO268      0.2269
    137  O        -11.9140  -21.6460  -33.9020 O.2   268  PRO268     -0.2865
    138  CB       -11.2560  -18.6400  -35.0390 C.3   268  PRO268      0.0296
    139  CG       -10.5410  -17.3580  -34.8300 C.3   268  PRO268      0.0237
    140  CD        -9.3200  -17.6950  -34.0140 C.3   268  PRO268      0.0939
@<TRIPOS>BOND
     1     5     6    1
     2     5     2    1
     3     6     7    1
     4     8     7    2
     5     7     9   am
     6     3     2    1
     7     3     4    2
     8     2     1    1
     9   126   125    2
    10   125   124    1
    11   127   124    1
    12   127   128    1
    13   138   139    1
    14   138   135    1
    15   139   140    1
    16   124   123    1
    17   136   137    2
    18   136   135    1
    19   140   134    1
    20   123   116   am
    21   135   134    1
    22    13    12    2
    23   112   110   ar
    24   112   113   ar
    25   106   105    2
    26    11    12    1
    27    11    10    1
    28    11    14    1
    29    18    16   ar
    30   134   131   am
    31   110   108   ar
    32   105   104    1
    33    15    14    1
    34    15    16    1
    35   116   117    2
    36   116   115    1
    37   114   115    1
    38    16    17   ar
    39   129   130    1
    40   113   111   ar
    41   115   118    1
    42   131   130    1
    43   131   132    2
    44   108   107    1
    45   108   109   ar
    46   104   107    1
    47   104   103    1
    48   130   133    1
    49   111   109   ar
    50    46    44    1
    51   118   119    1
    52    97    96    2
    53    96    95    1
    54    45    44    1
    55    63    62   ar
    56   119   120    1
    57    44    43    2
    58    94    95    1
    59    64    62   ar
    60    95    98    1
    61    62    61    1
    62   120   122   ar
    63   120   121   ar
    64    43    42    1
    65    98    99    1
    66    25    26    1
    67    25    24    1
    68    61    60    1
    69    42    41    1
    70    86    85    2
    71    24    23    1
    72    99   100    1
    73   102   100   ar
    74    55    53   am
    75    41    40    1
    76    23    20    1
    77    54    53    2
    78    59    58    2
    79   100   101   ar
    80    60    57    1
    81    53    52    1
    82    57    58    1
    83    57    56    1
    84    85    84    1
    85    52    51    1
    86    20    19    1
    87    20    21    1
    88    40    37    1
    89    50    49    2
    90    56    49   am
    91    35    33   ar
    92    84    87    1
    93    84    83    1
    94    39    38    2
    95    49    48    1
    96    87    88    1
    97    51    48    1
    98    37    38    1
    99    37    36    1
   100    21    22    2
   101    88    89    1
   102    33    32    1
   103    33    34   ar
   104    48    47    1
   105    65    66    1
   106    32    31    1
   107    89    90    1
   108    66    67    1
   109    90    91    2
   110    75    74    1
   111    31    28    1
   112    91    92    1
   113    91    93    1
   114    27    28    1
   115    67    68    2
   116    28    29    1
   117    74    76    1
   118    74    73    1
   119    73    70    1
   120    29    30    2
   121    69    70    1
   122    70    71    1
   123    71    77   am
   124    71    72    2
   125    77    78    1
   126    82    81    1
   127    81    78    1
   128    78    79    1
   129    79    80    2
