@<TRIPOS>MOLECULE
tmp/5bz3A03.pdb
 87 80 0 0 0
SMALL
GASTEIGER

@<TRIPOS>ATOM
      1  N          7.0710  -33.1660   -5.9350 N.3   181  ARG181     -0.1231
      2  CA         7.9000  -32.8150   -7.0880 C.3   181  ARG181      0.1694
      3  C          7.1910  -31.7830   -7.9610 C.2   181  ARG181      0.2591
      4  O          7.7920  -30.8010   -8.3980 O.2   181  ARG181     -0.2718
      5  CB         8.2310  -34.0510   -7.9300 C.3   181  ARG181      0.0321
      6  CG         9.3050  -33.8020   -8.9900 C.3   181  ARG181      0.0489
      7  CD         9.0080  -34.5470  -10.2860 C.3   181  ARG181      0.2205
      8  NE        10.1130  -34.4850  -11.2420 N.pl3 181  ARG181     -0.0865
      9  CZ        10.0020  -34.7740  -12.5370 C.cat 181  ARG181      0.5346
     10  NH1        8.8310  -35.1350  -13.0470 N.pl3 181  ARG181      0.1354
     11  NH2       11.0640  -34.6930  -13.3290 N.pl3 181  ARG181      0.1354
     12  N          5.9050  -32.0110   -8.2020 N.am  182  LEU182     -0.1980
     13  CA         5.1350  -31.1670   -9.1100 C.3   182  LEU182      0.1596
     14  C          4.7480  -29.8330   -8.4790 C.2   182  LEU182      0.2287
     15  O          4.6910  -28.8200   -9.1750 O.2   182  LEU182     -0.2864
     16  CB         3.8820  -31.9090   -9.5820 C.3   182  LEU182      0.0297
     17  CG         4.1530  -33.1310  -10.4690 C.3   182  LEU182      0.0022
     18  CD1        2.8730  -33.9200  -10.7200 C.3   182  LEU182      0.0001
     19  CD2        4.7830  -32.7230  -11.7900 C.3   182  LEU182      0.0001
     20  N          8.1150  -27.9260   -8.6730 N.3   185  LEU185     -0.1245
     21  CA         8.3380  -27.4590  -10.0350 C.3   185  LEU185      0.1561
     22  C          7.3770  -26.3280  -10.3900 C.2   185  LEU185      0.2260
     23  O          7.7690  -25.3560  -11.0350 O.2   185  LEU185     -0.2867
     24  CB         8.1860  -28.6160  -11.0260 C.3   185  LEU185      0.0270
     25  CG         9.3000  -29.6680  -11.0340 C.3   185  LEU185      0.0019
     26  CD1        8.9030  -30.8360  -11.9230 C.3   185  LEU185      0.0001
     27  CD2       10.6270  -29.0760  -11.4950 C.3   185  LEU185      0.0001
     28  N         11.6750  -13.1060  -13.2310 N.3   196  LEU196     -0.1245
     29  CA        12.0860  -12.7990  -14.6010 C.3   196  LEU196      0.1561
     30  C         11.2430  -11.6590  -15.1720 C.2   196  LEU196      0.2260
     31  O         11.6150  -11.0380  -16.1680 O.2   196  LEU196     -0.2867
     32  CB        11.9870  -14.0400  -15.5010 C.3   196  LEU196      0.0270
     33  CG        12.1540  -13.7960  -17.0100 C.3   196  LEU196      0.0019
     34  CD1       13.4640  -13.0920  -17.3060 C.3   196  LEU196      0.0001
     35  CD2       12.0910  -15.0820  -17.8090 C.3   196  LEU196      0.0001
     36  N          9.2030  -16.6200  -29.2860 N.3   219  ALA219     -0.1231
     37  CA         9.9750  -17.7190  -28.7160 C.3   219  ALA219      0.1694
     38  C          9.7360  -17.8290  -27.2100 C.2   219  ALA219      0.2591
     39  O          9.5930  -18.9250  -26.6680 O.2   219  ALA219     -0.2718
     40  CB        11.4600  -17.5280  -29.0070 C.3   219  ALA219      0.0304
     41  N          9.6850  -16.6810  -26.5410 N.am  220  LEU220     -0.1980
     42  CA         9.4460  -16.6370  -25.1040 C.3   220  LEU220      0.1596
     43  C          8.0570  -17.1690  -24.7530 C.2   220  LEU220      0.2287
     44  O          7.9110  -18.0140  -23.8710 O.2   220  LEU220     -0.2864
     45  CB         9.6070  -15.2090  -24.5810 C.3   220  LEU220      0.0297
     46  CG         9.3750  -14.9960  -23.0830 C.3   220  LEU220      0.0022
     47  CD1       10.6800  -15.1100  -22.3080 C.3   220  LEU220      0.0001
     48  CD2        8.7070  -13.6530  -22.8370 C.3   220  LEU220      0.0001
     49  N          7.8770  -20.8960  -25.4650 N.3   223  GLY223     -0.1210
     50  CA         8.7560  -21.5890  -24.5430 C.3   223  GLY223      0.1956
     51  C          8.1430  -21.7130  -23.1610 C.2   223  GLY223      0.2611
     52  O          8.2430  -22.7570  -22.5190 O.2   223  GLY223     -0.2717
     53  N          7.5050  -20.6410  -22.7060 N.am  224  MET224     -0.1979
     54  CA         6.8330  -20.6410  -21.4120 C.3   224  MET224      0.1605
     55  C          5.6450  -21.6000  -21.4110 C.2   224  MET224      0.2287
     56  O          5.4190  -22.3060  -20.4280 O.2   224  MET224     -0.2864
     57  CB         6.3830  -19.2250  -21.0530 C.3   224  MET224      0.0413
     58  CG         7.5220  -18.3050  -20.6190 C.3   224  MET224      0.0598
     59  SD         7.9940  -18.5120  -18.8900 S.3   224  MET224     -0.1393
     60  CE         9.4600  -19.5180  -19.0410 C.3   224  MET224      0.0692
     61  N          5.5510  -24.1430  -23.2780 N.3   226  ALA226     -0.1231
     62  CA         6.2190  -25.4370  -23.4000 C.3   226  ALA226      0.1694
     63  C          6.7140  -25.9300  -22.0420 C.2   226  ALA226      0.2591
     64  O          6.5620  -27.1030  -21.7070 O.2   226  ALA226     -0.2718
     65  CB         7.3790  -25.3350  -24.3880 C.3   226  ALA226      0.0304
     66  N          7.3060  -25.0260  -21.2660 N.am  227  LEU227     -0.1980
     67  CA         7.8300  -25.3680  -19.9490 C.3   227  LEU227      0.1596
     68  C          6.6810  -25.7180  -18.9910 C.2   227  LEU227      0.2287
     69  O          6.7640  -26.6980  -18.2490 O.2   227  LEU227     -0.2864
     70  CB         8.6800  -24.2150  -19.3930 C.3   227  LEU227      0.0297
     71  CG         9.5170  -24.4790  -18.1310 C.3   227  LEU227      0.0022
     72  CD1       10.4950  -25.6270  -18.3440 C.3   227  LEU227      0.0001
     73  CD2       10.2740  -23.2250  -17.7140 C.3   227  LEU227      0.0001
     74  N          5.4860  -29.2170  -19.9340 N.3   230  SER230     -0.1202
     75  CA         6.4160  -30.2730  -19.5410 C.3   230  SER230      0.2020
     76  C          6.2940  -30.5720  -18.0440 C.2   230  SER230      0.2618
     77  O          6.5320  -31.6990  -17.6220 O.2   230  SER230     -0.2717
     78  CB         7.8600  -29.8940  -19.8920 C.3   230  SER230      0.2103
     79  OG         8.4350  -29.0430  -18.9120 O.3   230  SER230     -0.2182
     80  N          5.9030  -29.5760  -17.2510 N.am  231  ILE231     -0.1979
     81  CA         5.6690  -29.8000  -15.8210 C.3   231  ILE231      0.1595
     82  C          4.3540  -30.5470  -15.6250 C.2   231  ILE231      0.2287
     83  O          4.2160  -31.3260  -14.6850 O.2   231  ILE231     -0.2864
     84  CB         5.6390  -28.4730  -15.0200 C.3   231  ILE231      0.0276
     85  CG1        7.0130  -27.8020  -15.0560 C.3   231  ILE231      0.0022
     86  CG2        5.2550  -28.7210  -13.5590 C.3   231  ILE231      0.0022
     87  CD1        6.9720  -26.2990  -14.8560 C.3   231  ILE231      0.0001
@<TRIPOS>BOND
     1    36    37    1
     2    40    37    1
     3    37    38    1
     4    38    39    2
     5    38    41   am
     6    41    42    1
     7    49    50    1
     8    42    43    1
     9    42    45    1
    10    43    44    2
    11    45    46    1
    12    50    51    1
    13    65    62    1
    14    62    61    1
    15    62    63    1
    16    51    53   am
    17    51    52    2
    18    46    48    1
    19    46    47    1
    20    53    54    1
    21    63    64    2
    22    63    66   am
    23    54    55    1
    24    54    57    1
    25    55    56    2
    26    66    67    1
    27    57    58    1
    28    58    59    1
    29    67    70    1
    30    67    68    1
    31    74    75    1
    32    78    75    1
    33    78    79    1
    34    75    76    1
    35    70    71    1
    36    60    59    1
    37    68    69    2
    38    72    71    1
    39    71    73    1
    40    76    77    2
    41    76    80   am
    42    35    33    1
    43    34    33    1
    44    80    81    1
    45    33    32    1
    46    31    30    2
    47    81    82    1
    48    81    84    1
    49    82    83    2
    50    32    29    1
    51    30    29    1
    52    85    84    1
    53    85    87    1
    54    84    86    1
    55    29    28    1
    56    11     9    1
    57    10     9    1
    58     9     8    2
    59    26    25    1
    60    19    17    1
    61    27    25    1
    62     8     7    1
    63    23    22    2
    64    25    24    1
    65    24    21    1
    66    18    17    1
    67    17    16    1
    68    22    21    1
    69     7     6    1
    70    21    20    1
    71    16    13    1
    72    15    14    2
    73    13    14    1
    74    13    12    1
    75     6     5    1
    76     4     3    2
    77    12     3   am
    78     3     2    1
    79     5     2    1
    80     2     1    1
