@<TRIPOS>MOLECULE
tmp/5bz3A00.pdb
 139 128 0 0 0
SMALL
GASTEIGER

@<TRIPOS>ATOM
      1  N        -11.8310  -34.9390  -36.1480 N.3    50  GLU50      -0.1245
      2  CA       -10.8280  -35.0240  -35.1050 C.3    50  GLU50       0.1567
      3  C         -9.5120  -35.5180  -35.6780 C.2    50  GLU50       0.2260
      4  O         -9.4670  -36.5450  -36.3510 O.2    50  GLU50      -0.2867
      5  CB       -11.3020  -35.9610  -33.9930 C.3    50  GLU50       0.0388
      6  CG       -11.5700  -35.2610  -32.6860 C.3    50  GLU50       0.1160
      7  CD       -10.3020  -34.7640  -32.0400 C.2    50  GLU50       0.3649
      8  OE1      -10.1660  -33.5370  -31.8860 O.co2  50  GLU50      -0.2457
      9  OE2       -9.4420  -35.5990  -31.6920 O.co2  50  GLU50      -0.2457
     10  N         -5.7920  -30.5710  -33.7380 N.3    55  GLU55      -0.1245
     11  CA        -5.8200  -30.4170  -32.2940 C.3    55  GLU55       0.1567
     12  C         -4.5940  -29.6600  -31.7980 C.2    55  GLU55       0.2260
     13  O         -4.6880  -28.9220  -30.8230 O.2    55  GLU55      -0.2867
     14  CB        -5.9290  -31.7760  -31.6040 C.3    55  GLU55       0.0388
     15  CG        -7.3590  -32.2950  -31.5220 C.3    55  GLU55       0.1160
     16  CD        -8.2920  -31.3230  -30.8070 C.2    55  GLU55       0.3649
     17  OE1       -7.7970  -30.4970  -30.0120 O.co2  55  GLU55      -0.2457
     18  OE2       -9.5160  -31.3730  -31.0440 O.co2  55  GLU55      -0.2457
     19  N        -11.3340  -24.5340  -16.6790 N.3   125  SER125     -0.1217
     20  CA       -10.6900  -24.3720  -17.9830 C.3   125  SER125      0.1889
     21  C        -11.0220  -22.9670  -18.4710 C.2   125  SER125      0.2288
     22  O        -12.1110  -22.7300  -18.9790 O.2   125  SER125     -0.2866
     23  CB       -11.1710  -25.4380  -18.9720 C.3   125  SER125      0.2089
     24  OG       -10.2440  -25.6250  -20.0280 O.3   125  SER125     -0.2183
     25  N         -1.6830  -22.9360  -21.4950 N.3   236  ILE236     -0.1245
     26  CA        -2.2150  -21.5750  -21.4670 C.3   236  ILE236      0.1561
     27  C         -1.8170  -20.8230  -20.2040 C.2   236  ILE236      0.2260
     28  O         -1.8850  -19.5940  -20.1680 O.2   236  ILE236     -0.2867
     29  CB        -3.7660  -21.5300  -21.5950 C.3   236  ILE236      0.0252
     30  CG1       -4.4620  -22.3730  -20.5150 C.3   236  ILE236      0.0019
     31  CG2       -4.1780  -21.9300  -22.9990 C.3   236  ILE236      0.0019
     32  CD1       -5.9870  -22.2240  -20.5230 C.3   236  ILE236      0.0001
     33  N         -9.2140  -23.0070  -32.2810 N.3   270  PHE270     -0.1241
     34  CA        -9.3120  -23.6090  -30.9510 C.3   270  PHE270      0.1605
     35  C        -10.7680  -23.8540  -30.5570 C.2   270  PHE270      0.2264
     36  O        -11.1580  -24.9780  -30.2340 O.2   270  PHE270     -0.2867
     37  CB        -8.6340  -22.7230  -29.9010 C.3   270  PHE270      0.0534
     38  CG        -8.8810  -23.1620  -28.4850 C.ar  270  PHE270     -0.0203
     39  CD1       -8.5610  -24.4440  -28.0770 C.ar  270  PHE270     -0.0042
     40  CD2       -9.4250  -22.2850  -27.5620 C.ar  270  PHE270     -0.0042
     41  CE1       -8.7860  -24.8480  -26.7700 C.ar  270  PHE270     -0.0003
     42  CE2       -9.6520  -22.6840  -26.2510 C.ar  270  PHE270     -0.0003
     43  CZ        -9.3290  -23.9630  -25.8600 C.ar  270  PHE270     -0.0000
     44  N        -13.5640  -27.3470  -30.3950 N.3   274  VAL274     -0.1245
     45  CA       -14.4520  -27.7110  -29.2980 C.3   274  VAL274      0.1561
     46  C        -15.7400  -28.2720  -29.8960 C.2   274  VAL274      0.2260
     47  O        -16.2050  -29.3460  -29.5120 O.2   274  VAL274     -0.2867
     48  CB       -14.7710  -26.5080  -28.3750 C.3   274  VAL274      0.0252
     49  CG1      -15.9970  -26.7880  -27.5020 C.3   274  VAL274      0.0019
     50  CG2      -13.5720  -26.1650  -27.5080 C.3   274  VAL274      0.0019
     51  N        -15.6070  -31.7360  -31.6810 N.3   277  ARG277     -0.1231
     52  CA       -15.5000  -32.8790  -30.7810 C.3   277  ARG277      0.1694
     53  C        -16.8220  -33.2410  -30.1080 C.2   277  ARG277      0.2592
     54  O        -16.9930  -34.3710  -29.6480 O.2   277  ARG277     -0.2718
     55  CB       -14.4480  -32.6070  -29.7070 C.3   277  ARG277      0.0321
     56  CG       -13.0260  -32.5920  -30.2320 C.3   277  ARG277      0.0489
     57  CD       -12.0300  -32.6580  -29.0930 C.3   277  ARG277      0.2205
     58  NE       -12.2870  -31.6140  -28.1110 N.pl3 277  ARG277     -0.0865
     59  CZ       -11.7470  -30.4000  -28.1400 C.cat 277  ARG277      0.5346
     60  NH1      -10.8980  -30.0500  -29.0980 N.pl3 277  ARG277      0.1354
     61  NH2      -12.0590  -29.5350  -27.1940 N.pl3 277  ARG277      0.1354
     62  N        -17.7490  -32.2880  -30.0490 N.am  278  LEU278     -0.1966
     63  CA       -19.0180  -32.4970  -29.3550 C.3   278  LEU278      0.1728
     64  C        -19.7620  -33.7320  -29.8460 C.2   278  LEU278      0.2616
     65  O        -20.1080  -33.8460  -31.0220 O.2   278  LEU278     -0.2715
     66  CB       -19.9290  -31.2760  -29.5000 C.3   278  LEU278      0.0311
     67  CG       -19.5120  -29.9860  -28.7890 C.3   278  LEU278      0.0022
     68  CD1      -20.6670  -29.0040  -28.8060 C.3   278  LEU278      0.0001
     69  CD2      -19.0470  -30.2380  -27.3550 C.3   278  LEU278      0.0001
     70  N        -19.9950  -34.6510  -28.9160 N.am  279  GLU279     -0.1977
     71  CA       -20.7580  -35.8650  -29.1650 C.3   279  GLU279      0.1602
     72  C        -22.1820  -35.6560  -28.6520 C.2   279  GLU279      0.2287
     73  O        -22.4160  -35.6610  -27.4440 O.2   279  GLU279     -0.2864
     74  CB       -20.0850  -37.0540  -28.4740 C.3   279  GLU279      0.0415
     75  CG       -20.6930  -38.4060  -28.7820 C.3   279  GLU279      0.1163
     76  CD       -20.0260  -39.5270  -28.0040 C.2   279  GLU279      0.3649
     77  OE1      -19.2150  -39.2250  -27.1020 O.co2 279  GLU279     -0.2457
     78  OE2      -20.3080  -40.7090  -28.2950 O.co2 279  GLU279     -0.2457
     79  N        -15.5960  -26.0460  -17.3670 N.3   329  ARG329     -0.1231
     80  CA       -14.6940  -27.1640  -17.1050 C.3   329  ARG329      0.1698
     81  C        -14.1020  -27.6580  -18.4210 C.2   329  ARG329      0.2632
     82  O        -14.5110  -27.2070  -19.4900 O.2   329  ARG329     -0.2714
     83  CB       -15.4290  -28.3040  -16.3890 C.3   329  ARG329      0.0321
     84  CG       -16.2630  -27.8830  -15.1710 C.3   329  ARG329      0.0489
     85  CD       -15.4610  -27.0680  -14.1800 C.3   329  ARG329      0.2205
     86  NE       -15.8270  -27.3380  -12.7880 N.pl3 329  ARG329     -0.0865
     87  CZ       -16.8750  -26.8100  -12.1590 C.cat 329  ARG329      0.5346
     88  NH1      -17.6900  -25.9740  -12.7900 N.pl3 329  ARG329      0.1354
     89  NH2      -17.1080  -27.1200  -10.8900 N.pl3 329  ARG329      0.1354
     90  N        -13.1450  -28.5800  -18.3470 N.am  330  GLY330     -0.1718
     91  CA       -12.4790  -29.0660  -19.5420 C.2   330  GLY330      0.1480
     92  C        -11.7580  -30.3940  -19.3980 C.2   330  GLY330      0.2820
     93  O        -12.2840  -31.3550  -18.8380 O.2   330  GLY330     -0.2669
     94  N        -10.5350  -30.4310  -19.9190 N.am  331  GLU331     -0.1943
     95  CA        -9.7810  -31.6720  -20.0820 C.3   331  GLU331      0.1605
     96  C         -9.4580  -32.3930  -18.7740 C.2   331  GLU331      0.2287
     97  O         -9.5670  -33.6180  -18.7010 O.2   331  GLU331     -0.2864
     98  CB        -8.4740  -31.3960  -20.8490 C.3   331  GLU331      0.0415
     99  CG        -7.4460  -30.4980  -20.1460 C.3   331  GLU331      0.1163
    100  CD        -7.7900  -29.0180  -20.2140 C.2   331  GLU331      0.3649
    101  OE1       -8.9190  -28.6780  -20.6260 O.co2 331  GLU331     -0.2457
    102  OE2       -6.9230  -28.1910  -19.8620 O.co2 331  GLU331     -0.2457
    103  N        -12.2160  -34.6660  -17.6360 N.3   334  LEU334     -0.1245
    104  CA       -12.3810  -35.8720  -18.4460 C.3   334  LEU334      0.1561
    105  C        -11.2780  -36.8870  -18.1610 C.2   334  LEU334      0.2260
    106  O        -11.5280  -38.0910  -18.1000 O.2   334  LEU334     -0.2867
    107  CB       -12.3950  -35.5190  -19.9360 C.3   334  LEU334      0.0270
    108  CG       -13.5830  -34.6810  -20.4170 C.3   334  LEU334      0.0019
    109  CD1      -13.4280  -34.3070  -21.8790 C.3   334  LEU334      0.0001
    110  CD2      -14.8980  -35.4200  -20.1930 C.3   334  LEU334      0.0001
    111  N        -18.8690  -35.8990  -18.9000 N.3   355  LEU355     -0.1245
    112  CA       -18.7570  -35.3380  -20.2480 C.3   355  LEU355      0.1561
    113  C        -19.8620  -34.3070  -20.4630 C.2   355  LEU355      0.2260
    114  O        -19.6070  -33.1930  -20.9210 O.2   355  LEU355     -0.2867
    115  CB       -18.8340  -36.4470  -21.3060 C.3   355  LEU355      0.0270
    116  CG       -18.6270  -36.0610  -22.7770 C.3   355  LEU355      0.0019
    117  CD1      -17.1990  -35.6040  -23.0390 C.3   355  LEU355      0.0001
    118  CD2      -18.9830  -37.2270  -23.6910 C.3   355  LEU355      0.0001
    119  N        -18.9660  -31.2470  -18.5560 N.3   358  VAL358     -0.1231
    120  CA       -17.8960  -30.5070  -19.2180 C.3   358  VAL358      0.1692
    121  C        -18.4580  -29.6570  -20.3620 C.2   358  VAL358      0.2591
    122  O        -18.1050  -28.4860  -20.5110 O.2   358  VAL358     -0.2718
    123  CB       -16.7910  -31.4580  -19.7560 C.3   358  VAL358      0.0266
    124  CG1      -15.9550  -30.7870  -20.8580 C.3   358  VAL358      0.0020
    125  CG2      -15.8930  -31.9120  -18.6230 C.3   358  VAL358      0.0020
    126  N        -19.3460  -30.2450  -21.1540 N.am  359  VAL359     -0.1980
    127  CA       -19.8990  -29.5560  -22.3180 C.3   359  VAL359      0.1595
    128  C        -20.7650  -28.3680  -21.9160 C.2   359  VAL359      0.2287
    129  O        -20.6280  -27.2850  -22.4800 O.2   359  VAL359     -0.2864
    130  CB       -20.7200  -30.5240  -23.1990 C.3   359  VAL359      0.0276
    131  CG1      -21.6180  -29.7690  -24.1850 C.3   359  VAL359      0.0022
    132  CG2      -19.7860  -31.4550  -23.9500 C.3   359  VAL359      0.0022
    133  N        -19.0860  -25.4280  -20.1410 N.3   362  THR362     -0.1218
    134  CA       -18.3570  -24.6720  -21.1660 C.3   362  THR362      0.1862
    135  C        -19.2830  -23.7390  -21.9530 C.2   362  THR362      0.2287
    136  O        -18.9470  -22.5790  -22.1910 O.2   362  THR362     -0.2866
    137  CB       -17.6330  -25.6120  -22.1660 C.3   362  THR362      0.1770
    138  OG1      -16.6050  -26.3480  -21.4910 O.3   362  THR362     -0.2211
    139  CG2      -16.9980  -24.8160  -23.3150 C.3   362  THR362      0.0375
@<TRIPOS>BOND
     1     4     3    2
     2     1     2    1
     3     3     2    1
     4     2     5    1
     5     5     6    1
     6    10    11    1
     7     6     7    1
     8    11    12    1
     9    11    14    1
    10    33    34    1
    11     7     8   ar
    12     7     9   ar
    13    12    13    2
    14    51    52    1
    15    14    15    1
    16    15    16    1
    17    18    16   ar
    18    65    64    2
    19    34    35    1
    20    34    37    1
    21    16    17   ar
    22    52    53    1
    23    52    55    1
    24    35    36    2
    25    44    45    1
    26    56    55    1
    27    56    57    1
    28    53    62   am
    29    53    54    2
    30    62    63    1
    31    37    38    1
    32    46    47    2
    33    46    45    1
    34    64    63    1
    35    64    70   am
    36    66    63    1
    37    66    67    1
    38    45    48    1
    39    71    70    1
    40    71    72    1
    41    71    74    1
    42    60    59    1
    43    57    58    1
    44    68    67    1
    45    67    69    1
    46    75    74    1
    47    75    76    1
    48    72    73    2
    49    38    39   ar
    50    38    40   ar
    51    48    50    1
    52    48    49    1
    53    78    76   ar
    54    59    58    2
    55    59    61    1
    56    39    41   ar
    57    76    77   ar
    58    40    42   ar
    59    41    43   ar
    60    42    43   ar
    61   131   130    1
    62   132   130    1
    63   118   116    1
    64   139   137    1
    65   130   127    1
    66   117   116    1
    67    31    29    1
    68   116   115    1
    69   129   128    2
    70   127   128    1
    71   127   126    1
    72   136   135    2
    73   137   138    1
    74   137   134    1
    75   135   134    1
    76   109   108    1
    77    29    26    1
    78    29    30    1
    79    25    26    1
    80    26    27    1
    81   115   112    1
    82   134   133    1
    83   126   121   am
    84   114   113    2
    85   124   123    1
    86    98    99    1
    87    98    95    1
    88   101   100   ar
    89    32    30    1
    90   122   121    2
    91   113   112    1
    92   108   110    1
    93   108   107    1
    94   121   120    1
    95   112   111    1
    96   100    99    1
    97   100   102   ar
    98    27    28    2
    99    95    94    1
   100    95    96    1
   101    24    23    1
   102   107   104    1
   103    94    92   am
   104   123   120    1
   105   123   125    1
   106    91    92    1
   107    91    90    2
   108    82    81    2
   109    92    93    2
   110   120   119    1
   111    22    21    2
   112    23    20    1
   113    96    97    2
   114    21    20    1
   115   104   105    1
   116   104   103    1
   117    81    90    1
   118    81    80    1
   119   105   106    2
   120    20    19    1
   121    79    80    1
   122    80    83    1
   123    83    84    1
   124    84    85    1
   125    85    86    1
   126    88    87    1
   127    86    87    2
   128    87    89    1
