@<TRIPOS>MOLECULE
tmp/5bz3A02.pdb
 90 82 0 0 0
SMALL
GASTEIGER

@<TRIPOS>ATOM
      1  N        -22.4700  -11.8280  -33.5180 N.3    23  LYS23      -0.1245
      2  CA       -22.3470  -10.3830  -33.3220 C.3    23  LYS23       0.1561
      3  C        -23.6660   -9.6750  -33.6500 C.2    23  LYS23       0.2260
      4  O        -24.1750   -8.9080  -32.8340 O.2    23  LYS23      -0.2867
      5  CB       -21.2260   -9.7870  -34.1810 C.3    23  LYS23       0.0271
      6  CG       -19.8090  -10.0440  -33.6770 C.3    23  LYS23       0.0035
      7  CD       -18.7960   -9.2340  -34.4810 C.3    23  LYS23       0.0206
      8  CE       -17.3690   -9.4420  -33.9920 C.3    23  LYS23       0.1093
      9  NZ       -16.7780  -10.7220  -34.4740 N.3    23  LYS23      -0.1314
     10  N        -26.0710   -9.9870  -30.9940 N.3    26  ASN26      -0.1240
     11  CA       -25.5880   -9.5790  -29.6770 C.3    26  ASN26       0.1653
     12  C        -25.4290  -10.7570  -28.7180 C.2    26  ASN26       0.2266
     13  O        -25.6280  -10.6160  -27.5100 O.2    26  ASN26      -0.2867
     14  CB       -26.5230   -8.5380  -29.0530 C.3    26  ASN26       0.1155
     15  CG       -25.8190   -7.6720  -28.0250 C.2    26  ASN26       0.2627
     16  OD1      -26.1400   -7.7070  -26.8380 O.2    26  ASN26      -0.2716
     17  ND2      -24.8350   -6.9040  -28.4790 N.am   26  ASN26      -0.0877
     18  N        -19.6790  -14.0070  -29.2110 N.3    29  VAL29      -0.1245
     19  CA       -19.0480  -14.3640  -30.4780 C.3    29  VAL29       0.1561
     20  C        -18.3750  -15.7310  -30.4040 C.2    29  VAL29       0.2260
     21  O        -18.3480  -16.4660  -31.3900 O.2    29  VAL29      -0.2867
     22  CB       -17.9980  -13.3020  -30.9000 C.3    29  VAL29       0.0252
     23  CG1      -17.3290  -13.6800  -32.2190 C.3    29  VAL29       0.0019
     24  CG2      -18.6420  -11.9260  -31.0090 C.3    29  VAL29       0.0019
     25  N        -13.0450  -10.0510  -25.4240 N.3   135  GLU135     -0.1231
     26  CA       -14.0360   -9.6160  -26.3980 C.3   135  GLU135      0.1699
     27  C        -14.7560   -8.3370  -25.9520 C.2   135  GLU135      0.2592
     28  O        -14.9840   -7.4310  -26.7540 O.2   135  GLU135     -0.2718
     29  CB       -15.0590  -10.7280  -26.6410 C.3   135  GLU135      0.0402
     30  CG       -15.9490  -10.4860  -27.8500 C.3   135  GLU135      0.1161
     31  CD       -15.2320  -10.7600  -29.1540 C.2   135  GLU135      0.3649
     32  OE1      -15.2480   -9.8800  -30.0410 O.co2 135  GLU135     -0.2457
     33  OE2      -14.6570  -11.8600  -29.2920 O.co2 135  GLU135     -0.2457
     34  N        -15.1010   -8.2610  -24.6700 N.am  136  LEU136     -0.1980
     35  CA       -15.8920   -7.1410  -24.1610 C.3   136  LEU136      0.1596
     36  C        -15.0420   -5.9880  -23.6330 C.2   136  LEU136      0.2287
     37  O        -15.5790   -4.9870  -23.1600 O.2   136  LEU136     -0.2864
     38  CB       -16.8390   -7.6350  -23.0690 C.3   136  LEU136      0.0297
     39  CG       -17.8170   -8.7240  -23.5200 C.3   136  LEU136      0.0022
     40  CD1      -18.6270   -9.2400  -22.3440 C.3   136  LEU136      0.0001
     41  CD2      -18.7410   -8.2140  -24.6270 C.3   136  LEU136      0.0001
     42  N        -12.9100   -5.7360  -21.1100 N.3   138  VAL138     -0.1245
     43  CA       -12.9020   -5.5680  -19.6600 C.3   138  VAL138      0.1561
     44  C        -11.7480   -6.3010  -18.9860 C.2   138  VAL138      0.2260
     45  O        -11.8280   -6.6270  -17.8010 O.2   138  VAL138     -0.2867
     46  CB       -14.2280   -6.0640  -19.0390 C.3   138  VAL138      0.0252
     47  CG1      -15.3930   -5.2410  -19.5700 C.3   138  VAL138      0.0019
     48  CG2      -14.4440   -7.5470  -19.3200 C.3   138  VAL138      0.0019
     49  N        -21.5660  -12.6950  -20.2410 N.3   370  LYS370     -0.1245
     50  CA       -21.8080  -11.4740  -21.0030 C.3   370  LYS370      0.1561
     51  C        -22.8090  -10.5560  -20.2860 C.2   370  LYS370      0.2260
     52  O        -22.4950   -9.3940  -20.0260 O.2   370  LYS370     -0.2867
     53  CB       -22.2880  -11.8080  -22.4210 C.3   370  LYS370      0.0271
     54  CG       -22.4270  -10.5960  -23.3310 C.3   370  LYS370      0.0035
     55  CD       -22.6350  -11.0070  -24.7820 C.3   370  LYS370      0.0206
     56  CE       -22.9020   -9.8050  -25.6690 C.3   370  LYS370      0.1093
     57  NZ       -24.2680   -9.2650  -25.4260 N.3   370  LYS370     -0.1314
     58  N        -21.4570   -9.2490  -16.8320 N.3   373  ILE373     -0.1231
     59  CA       -20.4860   -8.1740  -17.0030 C.3   373  ILE373      0.1692
     60  C        -21.1980   -6.8400  -17.2480 C.2   373  ILE373      0.2591
     61  O        -20.8520   -5.8310  -16.6430 O.2   373  ILE373     -0.2718
     62  CB       -19.5100   -8.4830  -18.1620 C.3   373  ILE373      0.0266
     63  CG1      -18.5210   -9.5660  -17.7260 C.3   373  ILE373      0.0019
     64  CG2      -18.7280   -7.2390  -18.5870 C.3   373  ILE373      0.0020
     65  CD1      -17.7820  -10.2270  -18.8730 C.3   373  ILE373      0.0001
     66  N        -22.1850   -6.8400  -18.1390 N.am  374  ALA374     -0.1980
     67  CA       -22.9680   -5.6370  -18.4160 C.3   374  ALA374      0.1597
     68  C        -23.6400   -5.1310  -17.1340 C.2   374  ALA374      0.2287
     69  O        -23.7190   -3.9300  -16.8800 O.2   374  ALA374     -0.2864
     70  CB       -24.0090   -5.9190  -19.4900 C.3   374  ALA374      0.0319
     71  N        -21.0820   -3.5590  -14.9160 N.3   377  GLU377     -0.1231
     72  CA       -20.6700   -2.2790  -15.4850 C.3   377  GLU377      0.1699
     73  C        -21.7560   -1.2160  -15.3110 C.2   377  GLU377      0.2592
     74  O        -21.4540   -0.0370  -15.1320 O.2   377  GLU377     -0.2718
     75  CB       -20.3220   -2.4400  -16.9680 C.3   377  GLU377      0.0402
     76  CG       -19.0530   -3.2510  -17.2260 C.3   377  GLU377      0.1161
     77  CD       -17.7980   -2.5690  -16.7100 C.2   377  GLU377      0.3649
     78  OE1      -17.6200   -1.3640  -16.9830 O.co2 377  GLU377     -0.2457
     79  OE2      -16.9910   -3.2370  -16.0270 O.co2 377  GLU377     -0.2457
     80  N        -23.0180   -1.6350  -15.3710 N.am  378  ARG378     -0.1980
     81  CA       -24.1360   -0.7320  -15.1080 C.3   378  ARG378      0.1597
     82  C        -24.0640   -0.1800  -13.6890 C.2   378  ARG378      0.2287
     83  O        -24.3240    1.0000  -13.4570 O.2   378  ARG378     -0.2864
     84  CB       -25.4790   -1.4420  -15.3130 C.3   378  ARG378      0.0334
     85  CG       -26.0050   -1.3930  -16.7370 C.3   378  ARG378      0.0492
     86  CD       -27.4490   -1.8650  -16.8370 C.3   378  ARG378      0.2205
     87  NE       -27.5510   -3.3160  -17.0040 N.pl3 378  ARG378     -0.0865
     88  CZ       -28.1840   -4.1370  -16.1690 C.cat 378  ARG378      0.5346
     89  NH1      -28.7950   -3.6750  -15.0840 N.pl3 378  ARG378      0.1354
     90  NH2      -28.2120   -5.4400  -16.4210 N.pl3 378  ARG378      0.1354
@<TRIPOS>BOND
     1     7     8    1
     2     7     6    1
     3     9     8    1
     4     5     6    1
     5     5     2    1
     6     3     2    1
     7     3     4    2
     8     1     2    1
     9    23    22    1
    10    21    20    2
    11    24    22    1
    12    10    11    1
    13    22    19    1
    14    19    20    1
    15    19    18    1
    16    32    31   ar
    17    11    14    1
    18    11    12    1
    19    33    31   ar
    20    31    30    1
    21    14    15    1
    22    12    13    2
    23    17    15   am
    24    15    16    2
    25    30    29    1
    26    28    27    2
    27    29    26    1
    28    26    27    1
    29    26    25    1
    30    27    34   am
    31    56    57    1
    32    56    55    1
    33    55    54    1
    34    34    35    1
    35    41    39    1
    36    35    36    1
    37    35    38    1
    38    36    37    2
    39    39    38    1
    40    39    40    1
    41    54    53    1
    42    53    50    1
    43    42    43    1
    44    50    51    1
    45    50    49    1
    46    51    52    2
    47    43    46    1
    48    43    44    1
    49    47    46    1
    50    70    67    1
    51    48    46    1
    52    44    45    2
    53    65    63    1
    54    64    62    1
    55    67    66    1
    56    67    68    1
    57    62    63    1
    58    62    59    1
    59    66    60   am
    60    60    59    1
    61    60    61    2
    62    76    75    1
    63    76    77    1
    64    68    69    2
    65    87    86    1
    66    87    88    2
    67    59    58    1
    68    78    77   ar
    69    75    72    1
    70    86    85    1
    71    85    84    1
    72    77    79   ar
    73    90    88    1
    74    88    89    1
    75    72    73    1
    76    72    71    1
    77    80    73   am
    78    80    81    1
    79    84    81    1
    80    73    74    2
    81    81    82    1
    82    82    83    2
