@<TRIPOS>MOLECULE
tmp/5bz4J00.pdb
 227 212 0 0 0
SMALL
GASTEIGER

@<TRIPOS>ATOM
      1  N         64.7000  -92.5850   31.3710 N.3    15  ARG15      -0.1231
      2  CA        65.0610  -93.1490   32.6700 C.3    15  ARG15       0.1694
      3  C         66.3020  -94.0250   32.5440 C.2    15  ARG15       0.2592
      4  O         66.6060  -94.5420   31.4650 O.2    15  ARG15      -0.2718
      5  CB        63.8960  -93.9520   33.2690 C.3    15  ARG15       0.0321
      6  CG        62.7050  -93.1010   33.7240 C.3    15  ARG15       0.0489
      7  CD        61.6430  -93.8820   34.5140 C.3    15  ARG15       0.2205
      8  NE        61.1750  -93.1190   35.6740 N.pl3  15  ARG15      -0.0865
      9  CZ        59.9170  -93.0800   36.1060 C.cat  15  ARG15       0.5346
     10  NH1       58.9680  -93.7560   35.4760 N.pl3  15  ARG15       0.1354
     11  NH2       59.6070  -92.3530   37.1710 N.pl3  15  ARG15       0.1354
     12  N         67.0340  -94.1480   33.6460 N.am   16  TYR16      -0.1976
     13  CA        68.1220  -95.1170   33.7820 C.3    16  TYR16       0.1639
     14  C         67.5560  -96.4870   33.4460 C.2    16  TYR16       0.2290
     15  O         66.6000  -96.9280   34.0910 O.2    16  TYR16      -0.2864
     16  CB        68.6680  -95.0640   35.2130 C.3    16  TYR16       0.0560
     17  CG        69.8200  -95.9700   35.5950 C.ar   16  TYR16      -0.0198
     18  CD1       71.0040  -95.9560   34.8980 C.ar   16  TYR16      -0.0009
     19  CD2       69.7290  -96.7860   36.7040 C.ar   16  TYR16      -0.0009
     20  CE1       72.0450  -96.7580   35.2630 C.ar   16  TYR16       0.0417
     21  CE2       70.7600  -97.5910   37.0780 C.ar   16  TYR16       0.0417
     22  CZ        71.9220  -97.5710   36.3520 C.ar   16  TYR16       0.1957
     23  OH        72.9740  -98.3770   36.7120 O.3    16  TYR16      -0.2866
     24  N         81.0190  -88.9430   32.6460 N.3    56  TYR56      -0.1241
     25  CA        81.5210  -90.3250   32.6630 C.3    56  TYR56       0.1605
     26  C         82.1280  -90.7340   31.3350 C.2    56  TYR56       0.2264
     27  O         81.6750  -91.7130   30.7310 O.2    56  TYR56      -0.2867
     28  CB        80.4020  -91.3100   33.0390 C.3    56  TYR56       0.0534
     29  CG        79.8220  -91.0090   34.3840 C.ar   56  TYR56      -0.0201
     30  CD1       80.4520  -91.4350   35.5380 C.ar   56  TYR56      -0.0009
     31  CD2       78.6660  -90.2700   34.5050 C.ar   56  TYR56      -0.0009
     32  CE1       79.9430  -91.1410   36.7870 C.ar   56  TYR56       0.0417
     33  CE2       78.1430  -89.9760   35.7490 C.ar   56  TYR56       0.0417
     34  CZ        78.7920  -90.4120   36.8860 C.ar   56  TYR56       0.1957
     35  OH        78.2800  -90.1140   38.1270 O.3    56  TYR56      -0.2866
     36  N         78.3020  -82.3740   38.1520 N.3    87  CYS87      -0.1235
     37  CA        76.9670  -81.8160   37.8860 C.3    87  CYS87       0.1677
     38  C         76.9630  -80.4410   37.2070 C.2    87  CYS87       0.2270
     39  O         75.9810  -80.0740   36.5540 O.2    87  CYS87      -0.2867
     40  CB        76.1760  -81.7200   39.1830 C.3    87  CYS87       0.0956
     41  SG        75.8540  -83.2990   39.9280 S.3    87  CYS87      -0.0801
     42  N         73.6260  -92.2120   31.2770 N.3   117  MET117     -0.1245
     43  CA        73.8840  -92.8750   32.5410 C.3   117  MET117      0.1570
     44  C         73.4840  -94.3590   32.5170 C.2   117  MET117      0.2261
     45  O         73.9880  -95.1450   33.3140 O.2   117  MET117     -0.2867
     46  CB        73.1790  -92.1310   33.6850 C.3   117  MET117      0.0387
     47  CG        73.7890  -90.7670   33.9630 C.3   117  MET117      0.0595
     48  SD        73.0980  -89.8890   35.3740 S.3   117  MET117     -0.1393
     49  CE        74.1900  -90.4820   36.6780 C.3   117  MET117      0.0692
     50  N         81.2680  -91.2060   43.1030 N.3   146  ARG146     -0.1245
     51  CA        80.6230  -90.4260   44.1650 C.3   146  ARG146      0.1563
     52  C         81.3710  -90.4620   45.4910 C.2   146  ARG146      0.2260
     53  O         81.2640  -89.5180   46.2820 O.2   146  ARG146     -0.2867
     54  CB        79.1920  -90.9050   44.3720 C.3   146  ARG146      0.0307
     55  CG        78.2610  -90.4170   43.2950 C.3   146  ARG146      0.0489
     56  CD        77.1170  -91.3340   43.1110 C.3   146  ARG146      0.2205
     57  NE        76.3980  -90.9790   41.9000 N.pl3 146  ARG146     -0.0865
     58  CZ        75.3970  -91.6830   41.3920 C.cat 146  ARG146      0.5346
     59  NH1       74.9900  -92.7980   41.9940 N.pl3 146  ARG146      0.1354
     60  NH2       74.8080  -91.2690   40.2790 N.pl3 146  ARG146      0.1354
     61  N         76.8990  -89.4900   47.2640 N.3   160  MET160     -0.1230
     62  CA        76.1350  -88.2580   47.2980 C.3   160  MET160      0.1702
     63  C         74.9780  -88.3130   48.2890 C.2   160  MET160      0.2592
     64  O         74.5230  -87.2810   48.7780 O.2   160  MET160     -0.2718
     65  CB        75.6030  -87.9340   45.9000 C.3   160  MET160      0.0401
     66  CG        76.6440  -87.8350   44.8290 C.3   160  MET160      0.0596
     67  SD        77.6750  -86.3680   45.0330 S.3   160  MET160     -0.1393
     68  CE        79.2520  -87.0260   45.5990 C.3   160  MET160      0.0692
     69  N         74.4920  -89.5170   48.5650 N.am  161  LEU161     -0.1980
     70  CA        73.3890  -89.6680   49.4920 C.3   161  LEU161      0.1596
     71  C         73.8240  -89.4110   50.9170 C.2   161  LEU161      0.2287
     72  O         73.0350  -88.9410   51.7300 O.2   161  LEU161     -0.2864
     73  CB        72.7600  -91.0520   49.3730 C.3   161  LEU161      0.0297
     74  CG        71.5140  -91.0840   48.4910 C.3   161  LEU161      0.0022
     75  CD1       71.8220  -90.6420   47.0900 C.3   161  LEU161      0.0001
     76  CD2       70.9990  -92.4590   48.4600 C.3   161  LEU161      0.0001
     77  N         57.3000  -82.5640   40.6720 N.3   186  HIS186     -0.1241
     78  CA        56.6010  -83.4200   39.7060 C.3   186  HIS186      0.1621
     79  C         55.4270  -82.6910   39.1080 C.2   186  HIS186      0.2264
     80  O         55.1920  -82.7340   37.9090 O.2   186  HIS186     -0.2867
     81  CB        56.1200  -84.7110   40.3530 C.3   186  HIS186      0.0745
     82  CG        57.1730  -85.7570   40.4630 C.ar  186  HIS186      0.0817
     83  ND1       57.3920  -86.6960   39.4700 N.ar  186  HIS186     -0.2268
     84  CD2       58.0600  -86.0440   41.4440 C.ar  186  HIS186      0.1154
     85  CE1       58.3680  -87.4970   39.8320 C.ar  186  HIS186      0.1986
     86  NE2       58.7940  -87.1280   41.0290 N.ar  186  HIS186     -0.2212
     87  N         60.6050  -89.5850   33.2610 N.3   218  HIS218     -0.1241
     88  CA        60.7290  -89.5390   34.7220 C.3   218  HIS218      0.1621
     89  C         59.5670  -88.8800   35.5360 C.2   218  HIS218      0.2264
     90  O         59.2850  -89.3170   36.6540 O.2   218  HIS218     -0.2867
     91  CB        62.0530  -88.8350   35.0670 C.3   218  HIS218      0.0745
     92  CG        62.6750  -89.2920   36.3430 C.ar  218  HIS218      0.0817
     93  ND1       62.8160  -88.4570   37.4360 N.ar  218  HIS218     -0.2268
     94  CD2       63.2160  -90.4750   36.7100 C.ar  218  HIS218      0.1154
     95  CE1       63.3960  -89.1130   38.4150 C.ar  218  HIS218      0.1986
     96  NE2       63.6510  -90.3440   38.0050 N.ar  218  HIS218     -0.2212
     97  N         55.9740  -87.9260   37.1770 N.3   220  ARG220     -0.1245
     98  CA        54.7580  -88.6750   37.5150 C.3   220  ARG220      0.1563
     99  C         53.5410  -87.7890   37.7930 C.2   220  ARG220      0.2260
    100  O         53.6050  -86.8260   38.5640 O.2   220  ARG220     -0.2867
    101  CB        55.0050  -89.5750   38.7290 C.3   220  ARG220      0.0307
    102  CG        56.0220  -90.6660   38.4850 C.3   220  ARG220      0.0489
    103  CD        56.6470  -91.1550   39.7810 C.3   220  ARG220      0.2205
    104  NE        57.6710  -92.1630   39.5340 N.pl3 220  ARG220     -0.0865
    105  CZ        57.5830  -93.4230   39.9410 C.cat 220  ARG220      0.5346
    106  NH1       56.5130  -93.8370   40.5990 N.pl3 220  ARG220      0.1354
    107  NH2       58.5530  -94.2760   39.6690 N.pl3 220  ARG220      0.1354
    108  N         52.1570  -88.6270   41.7640 N.3   223  THR223     -0.1218
    109  CA        53.0290  -88.5440   42.9300 C.3   223  THR223      0.1862
    110  C         52.3400  -87.7950   44.0810 C.2   223  THR223      0.2287
    111  O         51.7640  -86.7240   43.8720 O.2   223  THR223     -0.2866
    112  CB        54.3540  -87.8450   42.5870 C.3   223  THR223      0.1770
    113  OG1       54.9960  -88.6200   41.5700 O.3   223  THR223     -0.2211
    114  CG2       55.2950  -87.6670   43.7270 C.3   223  THR223      0.0375
    115  N         52.2970  -91.4220   49.2430 N.3   227  ALA227     -0.1231
    116  CA        53.0290  -92.5160   48.6200 C.3   227  ALA227      0.1694
    117  C         54.5180  -92.3960   48.8810 C.2   227  ALA227      0.2591
    118  O         55.2070  -93.4020   49.0230 O.2   227  ALA227     -0.2718
    119  CB        52.7590  -92.5490   47.1360 C.3   227  ALA227      0.0304
    120  N         55.0140  -91.1650   48.9360 N.am  228  LEU228     -0.1980
    121  CA        56.4300  -90.9410   49.2020 C.3   228  LEU228      0.1596
    122  C         56.7870  -91.3260   50.6310 C.2   228  LEU228      0.2287
    123  O         57.9170  -91.7260   50.9100 O.2   228  LEU228     -0.2864
    124  CB        56.8120  -89.4820   48.9360 C.3   228  LEU228      0.0297
    125  CG        56.9840  -89.0870   47.4730 C.3   228  LEU228      0.0022
    126  CD1       57.5350  -87.6980   47.3710 C.3   228  LEU228      0.0001
    127  CD2       57.9070  -90.0550   46.7950 C.3   228  LEU228      0.0001
    128  N         58.2330  -94.9760   51.1340 N.3   231  LEU231     -0.1245
    129  CA        59.5140  -95.4270   50.6010 C.3   231  LEU231      0.1561
    130  C         60.6060  -95.5330   51.6710 C.2   231  LEU231      0.2260
    131  O         60.6600  -94.7290   52.6040 O.2   231  LEU231     -0.2867
    132  CB        59.9950  -94.5030   49.4790 C.3   231  LEU231      0.0270
    133  CG        59.0690  -94.1960   48.3090 C.3   231  LEU231      0.0019
    134  CD1       59.7360  -93.1850   47.3800 C.3   231  LEU231      0.0001
    135  CD2       58.6920  -95.4640   47.5530 C.3   231  LEU231      0.0001
    136  N         67.5180  -95.0070   51.4070 N.3   234  VAL234     -0.1245
    137  CA        68.5640  -95.9030   50.9570 C.3   234  VAL234      0.1561
    138  C         69.5140  -96.1860   52.1100 C.2   234  VAL234      0.2260
    139  O         69.8970  -97.3280   52.3370 O.2   234  VAL234     -0.2867
    140  CB        69.3100  -95.3040   49.7610 C.3   234  VAL234      0.0252
    141  CG1       69.9750  -96.3830   48.9360 C.3   234  VAL234      0.0019
    142  CG2       68.3300  -94.5610   48.8960 C.3   234  VAL234      0.0019
    143  N         64.6550  -92.7430   47.0760 N.3   246  ALA246     -0.1231
    144  CA        64.5570  -92.6210   45.6370 C.3   246  ALA246      0.1694
    145  C         63.5580  -91.5330   45.2530 C.2   246  ALA246      0.2592
    146  O         63.7220  -90.8620   44.2320 O.2   246  ALA246     -0.2718
    147  CB        64.1500  -93.9420   45.0330 C.3   246  ALA246      0.0304
    148  N         62.5290  -91.3650   46.0790 N.am  247  GLY247     -0.1957
    149  CA        61.4800  -90.3960   45.8240 C.3   247  GLY247      0.1869
    150  C         61.8860  -88.9320   45.8680 C.2   247  GLY247      0.2309
    151  O         61.5210  -88.1770   44.9680 O.2   247  GLY247     -0.2863
    152  N         64.9750  -87.7650   45.7620 N.3   249  SER249     -0.1202
    153  CA        66.2870  -87.5880   45.1460 C.3   249  SER249      0.2020
    154  C         66.1760  -87.3760   43.6570 C.2   249  SER249      0.2619
    155  O         65.2210  -87.8190   43.0460 O.2   249  SER249     -0.2717
    156  CB        67.1760  -88.7960   45.4020 C.3   249  SER249      0.2103
    157  OG        67.3060  -89.0270   46.7770 O.3   249  SER249     -0.2182
    158  N         67.1700  -86.7230   43.0660 N.am  250  SER250     -0.1937
    159  CA        67.1900  -86.5910   41.6240 C.3   250  SER250      0.2055
    160  C         67.2990  -87.9720   41.0280 C.2   250  SER250      0.2644
    161  O         67.7740  -88.9040   41.6800 O.2   250  SER250     -0.2714
    162  CB        68.3390  -85.7110   41.1370 C.3   250  SER250      0.2130
    163  OG        69.5590  -86.0470   41.7610 O.3   250  SER250     -0.2179
    164  N         66.8400  -88.1070   39.7920 N.am  251  GLY251     -0.1939
    165  CA        66.9140  -89.3820   39.1170 C.3   251  GLY251      0.2014
    166  C         68.3040  -89.6040   38.5690 C.2   251  GLY251      0.2638
    167  O         69.1260  -88.7120   38.6390 O.2   251  GLY251     -0.2714
    168  N         68.5730  -90.8160   38.0970 N.am  252  GLN252     -0.1977
    169  CA        69.6640  -91.1510   37.1780 C.3   252  GLN252      0.1601
    170  C         69.1350  -91.3450   35.7960 C.2   252  GLN252      0.2287
    171  O         68.2370  -92.1450   35.6260 O.2   252  GLN252     -0.2864
    172  CB        70.3620  -92.4010   37.6550 C.3   252  GLN252      0.0394
    173  CG        71.6780  -92.1250   38.3100 C.3   252  GLN252      0.0908
    174  CD        72.2090  -93.3000   39.1320 C.2   252  GLN252      0.2608
    175  OE1       71.9700  -93.3870   40.3360 O.2   252  GLN252     -0.2717
    176  NE2       72.6390  -94.3190   38.4400 N.am  252  GLN252     -0.0878
    177  N         78.7530  -81.1990   50.1940 N.3   291  MET291     -0.1245
    178  CA        78.6800  -80.7910   48.7940 C.3   291  MET291      0.1570
    179  C         77.5410  -79.8170   48.4970 C.2   291  MET291      0.2261
    180  O         77.7030  -78.8430   47.7370 O.2   291  MET291     -0.2867
    181  CB        78.4290  -81.9980   47.9000 C.3   291  MET291      0.0387
    182  CG        77.2570  -81.6970   47.0140 C.3   291  MET291      0.0595
    183  SD        76.5000  -83.0310   46.1960 S.3   291  MET291     -0.1393
    184  CE        77.9540  -83.2790   45.1900 C.3   291  MET291      0.0692
    185  N         69.6120  -81.9220   43.3810 N.3   321  ALA321     -0.1231
    186  CA        70.1960  -83.2460   43.4010 C.3   321  ALA321      0.1694
    187  C         69.4330  -84.1270   44.3770 C.2   321  ALA321      0.2592
    188  O         69.1280  -85.2710   44.0800 O.2   321  ALA321     -0.2718
    189  CB        71.6620  -83.1620   43.7840 C.3   321  ALA321      0.0304
    190  N         69.1640  -83.5880   45.5610 N.am  322  PHE322     -0.1976
    191  CA        68.3330  -84.2650   46.5430 C.3   322  PHE322      0.1639
    192  C         67.4640  -83.1990   47.1740 C.2   322  PHE322      0.2290
    193  O         67.8750  -82.0420   47.2220 O.2   322  PHE322     -0.2864
    194  CB        69.1890  -84.9910   47.5840 C.3   322  PHE322      0.0560
    195  CG        70.3260  -85.7720   46.9900 C.ar  322  PHE322     -0.0200
    196  CD1       70.0940  -86.9850   46.3740 C.ar  322  PHE322     -0.0042
    197  CD2       71.6290  -85.2920   47.0520 C.ar  322  PHE322     -0.0042
    198  CE1       71.1290  -87.6960   45.8180 C.ar  322  PHE322     -0.0003
    199  CE2       72.6730  -86.0110   46.5070 C.ar  322  PHE322     -0.0003
    200  CZ        72.4200  -87.2130   45.8880 C.ar  322  PHE322     -0.0000
    201  N         68.0540  -86.1740   36.2550 N.3   354  HIS354     -0.1241
    202  CA        69.3980  -85.5750   36.3750 C.3   354  HIS354      0.1621
    203  C         70.4360  -86.3230   35.5420 C.2   354  HIS354      0.2264
    204  O         71.2370  -87.0810   36.0870 O.2   354  HIS354     -0.2867
    205  CB        69.8320  -85.5400   37.8570 C.3   354  HIS354      0.0745
    206  CG        71.1420  -84.8550   38.1230 C.ar  354  HIS354      0.0817
    207  ND1       71.6520  -83.8360   37.3300 N.ar  354  HIS354     -0.2268
    208  CD2       72.0390  -85.0090   39.1280 C.ar  354  HIS354      0.1154
    209  CE1       72.8000  -83.4220   37.8240 C.ar  354  HIS354      0.1986
    210  NE2       73.0590  -84.1130   38.9200 N.ar  354  HIS354     -0.2212
    211  N         73.6240  -86.2170   34.2170 N.3   356  VAL356     -0.1245
    212  CA        74.5660  -85.2730   34.7950 C.3   356  VAL356      0.1561
    213  C         75.1300  -84.1920   33.8610 C.2   356  VAL356      0.2260
    214  O         74.8360  -83.0160   34.0560 O.2   356  VAL356     -0.2867
    215  CB        75.7350  -86.0150   35.4200 C.3   356  VAL356      0.0252
    216  CG1       76.4810  -85.0760   36.3130 C.3   356  VAL356      0.0019
    217  CG2       75.2320  -87.1950   36.2220 C.3   356  VAL356      0.0019
    218  N         74.9270  -77.7650   42.9170 N.3   384  CYS384     -0.1235
    219  CA        75.9850  -78.4310   43.6690 C.3   384  CYS384      0.1677
    220  C         76.7210  -79.4380   42.7910 C.2   384  CYS384      0.2270
    221  O         76.1910  -79.8940   41.7810 O.2   384  CYS384     -0.2867
    222  CB        75.4130  -79.1060   44.9040 C.3   384  CYS384      0.0956
    223  SG        74.3480  -80.4940   44.6050 S.3   384  CYS384     -0.0801
    224  N         79.5130  -82.8500   42.6950 N.3   386  GLY386     -0.1225
    225  CA        80.3100  -83.9150   43.3000 C.3   386  GLY386      0.1811
    226  C         81.7080  -83.5090   43.6520 C.2   386  GLY386      0.2280
    227  O         82.4140  -82.9470   42.8170 O.2   386  GLY386     -0.2866
@<TRIPOS>BOND
     1    27    26    2
     2    42    43    1
     3    26    25    1
     4     1     2    1
     5     4     3    2
     6    44    43    1
     7    44    45    2
     8    43    46    1
     9     3     2    1
    10     3    12   am
    11    24    25    1
    12    25    28    1
    13     2     5    1
    14    28    29    1
    15    87    88    1
    16     5     6    1
    17    14    13    1
    18    14    15    2
    19    12    13    1
    20    46    47    1
    21     6     7    1
    22    13    16    1
    23   213   214    2
    24   213   212    1
    25    47    48    1
    26   211   212    1
    27    29    31   ar
    28    29    30   ar
    29    31    33   ar
    30     7     8    1
    31    88    91    1
    32    88    89    1
    33   212   215    1
    34    18    20   ar
    35    18    17   ar
    36    91    92    1
    37    16    17    1
    38    20    22   ar
    39    48    49    1
    40   215   217    1
    41   215   216    1
    42    10     9    1
    43    89    90    2
    44    30    32   ar
    45   203   204    2
    46   203   202    1
    47    17    19   ar
    48   171   170    2
    49     8     9    2
    50    33    34   ar
    51   170   169    1
    52     9    11    1
    53   201   202    1
    54    92    94   ar
    55    92    93   ar
    56    22    23    1
    57    22    21   ar
    58   202   205    1
    59    39    38    2
    60    19    21   ar
    61    94    96   ar
    62    32    34   ar
    63    34    35    1
    64    97    98    1
    65   169   172    1
    66   169   168    1
    67    38    37    1
    68   207   209   ar
    69   207   206   ar
    70    93    95   ar
    71    98    99    1
    72    98   101    1
    73   172   173    1
    74    99   100    2
    75   209   210   ar
    76   205   206    1
    77    37    36    1
    78    37    40    1
    79    80    79    2
    80    96    95   ar
    81   168   166   am
    82   206   208   ar
    83   173   174    1
    84   176   174   am
    85   102   101    1
    86   102   103    1
    87   166   167    2
    88   166   165    1
    89   210   208   ar
    90    79    78    1
    91   165   164    1
    92   174   175    2
    93    40    41    1
    94    83    85   ar
    95    83    82   ar
    96   104   103    1
    97   104   105    2
    98   107   105    1
    99    78    81    1
   100    78    77    1
   101   164   160   am
   102    85    86   ar
   103   105   106    1
   104    60    58    1
   105    81    82    1
   106    82    84   ar
   107   160   159    1
   108   160   161    2
   109    86    84   ar
   110   162   159    1
   111   162   163    1
   112    58    57    2
   113    58    59    1
   114   113   112    1
   115   159   158    1
   116   108   109    1
   117   221   220    2
   118    57    56    1
   119   112   109    1
   120   112   114    1
   121   224   225    1
   122   220   219    1
   123   227   226    2
   124   218   219    1
   125   109   110    1
   126   155   154    2
   127   158   154   am
   128    50    51    1
   129    56    55    1
   130    55    54    1
   131   225   226    1
   132   185   186    1
   133   186   189    1
   134   186   187    1
   135   154   153    1
   136   219   222    1
   137   111   110    2
   138   188   187    2
   139    51    54    1
   140    51    52    1
   141   146   145    2
   142   187   190   am
   143   223   222    1
   144    66    67    1
   145    66    65    1
   146   151   150    2
   147    67    68    1
   148   147   144    1
   149   153   156    1
   150   153   152    1
   151   184   183    1
   152   145   144    1
   153   145   148   am
   154   156   157    1
   155    52    53    2
   156   190   191    1
   157   144   143    1
   158   198   200   ar
   159   198   196   ar
   160   149   150    1
   161   149   148    1
   162   200   199   ar
   163    65    62    1
   164   183   182    1
   165   196   195   ar
   166   199   197   ar
   167   191   192    1
   168   191   194    1
   169   127   125    1
   170   195   197   ar
   171   195   194    1
   172   182   181    1
   173    75    74    1
   174   119   116    1
   175   192   193    2
   176    61    62    1
   177    62    63    1
   178   126   125    1
   179   134   133    1
   180   125   124    1
   181   135   133    1
   182   180   179    2
   183   181   178    1
   184    63    69   am
   185    63    64    2
   186   133   132    1
   187    76    74    1
   188    74    73    1
   189   179   178    1
   190    69    70    1
   191   116   117    1
   192   116   115    1
   193   178   177    1
   194   117   120   am
   195   117   118    2
   196   142   140    1
   197   124   121    1
   198   120   121    1
   199   141   140    1
   200   121   122    1
   201    73    70    1
   202   132   129    1
   203    70    71    1
   204   140   137    1
   205   129   128    1
   206   129   130    1
   207   122   123    2
   208    71    72    2
   209   137   136    1
   210   137   138    1
   211   130   131    2
   212   138   139    2
