@<TRIPOS>MOLECULE
tmp/5bzbB02.pdb
 115 111 0 0 0
SMALL
GASTEIGER

@<TRIPOS>ATOM
      1  N        -25.3990  -55.7990   36.0580 N.3    11  VAL11      -0.1245
      2  CA       -26.6180  -56.5820   36.2810 C.3    11  VAL11       0.1561
      3  C        -26.4700  -57.9820   35.6450 C.2    11  VAL11       0.2260
      4  O        -26.6930  -58.9870   36.3250 O.2    11  VAL11      -0.2867
      5  CB       -27.8760  -55.7990   35.7900 C.3    11  VAL11       0.0252
      6  CG1      -29.0300  -56.7230   35.3880 C.3    11  VAL11       0.0019
      7  CG2      -28.3290  -54.7920   36.8390 C.3    11  VAL11       0.0019
      8  N        -23.7020  -60.1240   37.5220 N.3    14  ILE14      -0.1231
      9  CA       -24.2050  -60.4900   38.8520 C.3    14  ILE14       0.1692
     10  C        -25.2060  -61.6240   38.7350 C.2    14  ILE14       0.2591
     11  O        -25.0660  -62.6110   39.4540 O.2    14  ILE14      -0.2718
     12  CB       -24.7580  -59.2630   39.6440 C.3    14  ILE14       0.0266
     13  CG1      -23.5930  -58.4000   40.1950 C.3    14  ILE14       0.0019
     14  CG2      -25.6950  -59.6900   40.7890 C.3    14  ILE14       0.0020
     15  CD1      -24.0120  -57.0170   40.8150 C.3    14  ILE14       0.0001
     16  N        -26.1890  -61.4930   37.8130 N.am   15  ALA15      -0.1980
     17  CA       -27.2410  -62.4810   37.5590 C.3    15  ALA15       0.1597
     18  C        -26.6660  -63.8190   37.1120 C.2    15  ALA15       0.2287
     19  O        -27.1510  -64.8570   37.5670 O.2    15  ALA15      -0.2864
     20  CB       -28.2160  -61.9560   36.5170 C.3    15  ALA15       0.0319
     21  N        -25.1500  -65.4790   40.1160 N.3    18  MET18      -0.1245
     22  CA       -26.2910  -65.9810   40.9000 C.3    18  MET18       0.1570
     23  C        -26.8750  -67.2680   40.3120 C.2    18  MET18       0.2261
     24  O        -27.0920  -68.2230   41.0620 O.2    18  MET18      -0.2867
     25  CB       -27.4030  -64.9280   40.9890 C.3    18  MET18       0.0387
     26  CG       -27.1050  -63.7930   41.9220 C.3    18  MET18       0.0595
     27  SD       -28.5630  -62.7340   42.1220 S.3    18  MET18      -0.1393
     28  CE       -29.5320  -63.7180   43.3040 C.3    18  MET18       0.0692
     29  N        -27.2400  -71.1350   41.7690 N.3    22  LEU22      -0.1231
     30  CA       -28.5810  -71.6520   41.9500 C.3    22  LEU22       0.1693
     31  C        -28.8930  -72.9000   41.1330 C.2    22  LEU22       0.2592
     32  O        -29.2980  -73.9080   41.7060 O.2    22  LEU22      -0.2718
     33  CB       -29.6230  -70.5440   41.6760 C.3    22  LEU22       0.0284
     34  CG       -29.7940  -69.4950   42.7750 C.3    22  LEU22       0.0019
     35  CD1      -30.3390  -68.2110   42.2150 C.3    22  LEU22       0.0001
     36  CD2      -30.6850  -70.0020   43.8650 C.3    22  LEU22       0.0001
     37  N        -28.6840  -72.8460   39.8110 N.am   23  TYR23      -0.1976
     38  CA       -29.0990  -73.9080   38.8890 C.3    23  TYR23       0.1639
     39  C        -27.9730  -74.6960   38.2250 C.2    23  TYR23       0.2290
     40  O        -28.2680  -75.6300   37.4860 O.2    23  TYR23      -0.2864
     41  CB       -30.0400  -73.3070   37.8260 C.3    23  TYR23       0.0560
     42  CG       -31.0030  -72.2770   38.3970 C.ar   23  TYR23      -0.0198
     43  CD1      -31.9040  -72.6150   39.4090 C.ar   23  TYR23      -0.0009
     44  CD2      -30.9560  -70.9480   37.9840 C.ar   23  TYR23      -0.0009
     45  CE1      -32.7490  -71.6570   39.9790 C.ar   23  TYR23       0.0417
     46  CE2      -31.7920  -69.9840   38.5440 C.ar   23  TYR23       0.0417
     47  CZ       -32.7010  -70.3460   39.5260 C.ar   23  TYR23       0.1957
     48  OH       -33.5330  -69.3950   40.0620 O.3    23  TYR23      -0.2866
     49  N        -36.7760  -76.4070   41.0230 N.3    62  HIS62      -0.1241
     50  CA       -36.7700  -75.2080   41.8720 C.3    62  HIS62       0.1621
     51  C        -38.0790  -74.4570   41.6420 C.2    62  HIS62       0.2264
     52  O        -38.1400  -73.6350   40.7300 O.2    62  HIS62      -0.2867
     53  CB       -35.5620  -74.3210   41.5140 C.3    62  HIS62       0.0745
     54  CG       -34.2940  -75.0940   41.3410 C.ar   62  HIS62       0.0817
     55  ND1      -33.5290  -75.4760   42.4290 N.ar   62  HIS62      -0.2268
     56  CD2      -33.7260  -75.5780   40.2140 C.ar   62  HIS62       0.1154
     57  CE1      -32.5120  -76.1570   41.9280 C.ar   62  HIS62       0.1986
     58  NE2      -32.5890  -76.2470   40.6030 N.ar   62  HIS62      -0.2212
     59  N        -39.6500  -71.9180   42.8890 N.3    64  ASN64      -0.1225
     60  CA       -39.6490  -70.4580   42.9680 C.3    64  ASN64       0.1785
     61  C        -38.7200  -69.7670   41.9560 C.2    64  ASN64       0.2597
     62  O        -38.5210  -68.5530   42.0710 O.2    64  ASN64      -0.2718
     63  CB       -39.3350  -69.9890   44.3910 C.3    64  ASN64       0.1169
     64  CG       -40.3640  -70.3990   45.4100 C.2    64  ASN64       0.2627
     65  OD1      -41.5700  -70.1580   45.2550 O.2    64  ASN64      -0.2716
     66  ND2      -39.8990  -71.0190   46.4850 N.am   64  ASN64      -0.0877
     67  N        -38.1800  -70.5140   40.9510 N.am   65  ALA65      -0.1979
     68  CA       -37.2590  -69.9770   39.9420 C.3    65  ALA65       0.1597
     69  C        -37.7860  -68.7450   39.2110 C.2    65  ALA65       0.2287
     70  O        -36.9840  -67.9230   38.7690 O.2    65  ALA65      -0.2864
     71  CB       -36.8650  -71.0560   38.9510 C.3    65  ALA65       0.0319
     72  N        -39.1210  -66.1650   40.5270 N.3    67  VAL67      -0.1231
     73  CA       -38.7300  -65.0170   41.3650 C.3    67  VAL67       0.1692
     74  C        -37.3710  -64.4730   40.8990 C.2    67  VAL67       0.2592
     75  O        -37.0640  -63.3050   41.1190 O.2    67  VAL67      -0.2718
     76  CB       -38.7680  -65.3340   42.8870 C.3    67  VAL67       0.0266
     77  CG1      -38.4220  -64.1060   43.7290 C.3    67  VAL67       0.0020
     78  CG2      -40.1350  -65.8670   43.2950 C.3    67  VAL67       0.0020
     79  N        -36.5720  -65.3180   40.2330 N.am   68  PHE68      -0.1976
     80  CA       -35.3010  -64.9170   39.6610 C.3    68  PHE68       0.1639
     81  C        -35.5100  -64.4390   38.2010 C.2    68  PHE68       0.2290
     82  O        -35.1580  -63.3090   37.8740 O.2    68  PHE68      -0.2864
     83  CB       -34.2760  -66.0640   39.7400 C.3    68  PHE68       0.0560
     84  CG       -32.9500  -65.7330   39.0790 C.ar   68  PHE68      -0.0200
     85  CD1      -31.9620  -65.0380   39.7710 C.ar   68  PHE68      -0.0042
     86  CD2      -32.7070  -66.0790   37.7530 C.ar   68  PHE68      -0.0042
     87  CE1      -30.7620  -64.6960   39.1490 C.ar   68  PHE68      -0.0003
     88  CE2      -31.5090  -65.7310   37.1340 C.ar   68  PHE68      -0.0003
     89  CZ       -30.5430  -65.0440   37.8370 C.ar   68  PHE68      -0.0000
     90  N        -38.2990  -61.1030   37.2780 N.3    71  PRO71      -0.2102
     91  CA       -37.6470  -59.7920   37.4860 C.3    71  PRO71       0.1504
     92  C        -36.4160  -59.5610   36.5990 C.2    71  PRO71       0.2575
     93  O        -36.1520  -58.4140   36.2540 O.2    71  PRO71      -0.2718
     94  CB       -37.2690  -59.8060   38.9700 C.3    71  PRO71       0.0282
     95  CG       -38.1840  -60.7730   39.5820 C.3    71  PRO71       0.0208
     96  CD       -38.3480  -61.8530   38.5510 C.3    71  PRO71       0.0893
     97  N        -35.6870  -60.6320   36.2000 N.am   72  PHE72      -0.1977
     98  CA       -34.5340  -60.5000   35.3110 C.3    72  PHE72       0.1639
     99  C        -34.9850  -59.9920   33.9220 C.2    72  PHE72       0.2290
    100  O        -34.3410  -59.1050   33.3600 O.2    72  PHE72      -0.2864
    101  CB       -33.7730  -61.8270   35.1770 C.3    72  PHE72       0.0560
    102  CG       -32.6770  -61.7680   34.1330 C.ar   72  PHE72      -0.0200
    103  CD1      -31.4150  -61.2730   34.4510 C.ar   72  PHE72      -0.0042
    104  CD2      -32.9180  -62.1770   32.8220 C.ar   72  PHE72      -0.0042
    105  CE1      -30.4130  -61.1980   33.4830 C.ar   72  PHE72      -0.0003
    106  CE2      -31.9210  -62.0840   31.8500 C.ar   72  PHE72      -0.0003
    107  CZ       -30.6710  -61.6010   32.1880 C.ar   72  PHE72      -0.0000
    108  N        -36.3480  -56.3210   34.0650 N.3    75  LEU75      -0.1245
    109  CA       -35.2090  -55.4220   34.2000 C.3    75  LEU75       0.1561
    110  C        -34.3660  -55.2670   32.9270 C.2    75  LEU75       0.2260
    111  O        -34.1510  -54.1330   32.5000 O.2    75  LEU75      -0.2867
    112  CB       -34.3320  -55.8530   35.3900 C.3    75  LEU75       0.0270
    113  CG       -33.0930  -55.0110   35.7260 C.3    75  LEU75       0.0019
    114  CD1      -33.4710  -53.5750   36.0950 C.3    75  LEU75       0.0001
    115  CD2      -32.3170  -55.6420   36.8710 C.3    75  LEU75       0.0001
@<TRIPOS>BOND
     1   106   107   ar
     2   106   104   ar
     3   107   105   ar
     4   111   110    2
     5   104   102   ar
     6   110   109    1
     7   100    99    2
     8   105   103   ar
     9    99    98    1
    10   108   109    1
    11   102   103   ar
    12   102   101    1
    13   109   112    1
    14   101    98    1
    15    98    97    1
    16     6     5    1
    17   112   113    1
    18     3     2    1
    19     3     4    2
    20   113   114    1
    21   113   115    1
    22     5     2    1
    23     5     7    1
    24     1     2    1
    25    97    92   am
    26    93    92    2
    27    20    17    1
    28    92    91    1
    29    18    17    1
    30    18    19    2
    31    88    86   ar
    32    88    89   ar
    33    90    91    1
    34    90    96    1
    35    91    94    1
    36    40    39    2
    37     8     9    1
    38    17    16    1
    39    86    84   ar
    40    16    10   am
    41    41    42    1
    42    41    38    1
    43    89    87   ar
    44    82    81    2
    45    44    42   ar
    46    44    46   ar
    47    81    80    1
    48    39    38    1
    49    42    43   ar
    50    46    47   ar
    51    96    95    1
    52    10     9    1
    53    10    11    2
    54    70    69    2
    55     9    12    1
    56    38    37    1
    57    71    68    1
    58    94    95    1
    59    84    83    1
    60    84    85   ar
    61    87    85   ar
    62    69    68    1
    63    43    45   ar
    64    47    45   ar
    65    47    48    1
    66    12    13    1
    67    12    14    1
    68    80    83    1
    69    80    79    1
    70    37    31   am
    71    68    67    1
    72    21    22    1
    73    13    15    1
    74    56    58   ar
    75    56    54   ar
    76    79    74   am
    77    23    22    1
    78    23    24    2
    79    72    73    1
    80    58    57   ar
    81    52    51    2
    82    74    75    2
    83    74    73    1
    84    22    25    1
    85    67    61   am
    86    25    26    1
    87    49    50    1
    88    31    32    2
    89    31    30    1
    90    54    53    1
    91    54    55   ar
    92    73    76    1
    93    53    50    1
    94    51    50    1
    95    33    30    1
    96    33    34    1
    97    29    30    1
    98    26    27    1
    99    57    55   ar
   100    61    62    2
   101    61    60    1
   102    27    28    1
   103    35    34    1
   104    34    36    1
   105    76    78    1
   106    76    77    1
   107    59    60    1
   108    60    63    1
   109    63    64    1
   110    65    64    2
   111    64    66   am
