@<TRIPOS>MOLECULE
tmp/5bzbB00.pdb
 102 98 0 0 0
SMALL
GASTEIGER

@<TRIPOS>ATOM
      1  N        -26.0870  -52.3220   32.7550 N.3     8  LEU8       -0.1245
      2  CA       -26.5560  -53.5500   32.1150 C.3     8  LEU8        0.1561
      3  C        -25.5140  -54.6630   32.1870 C.2     8  LEU8        0.2260
      4  O        -25.8910  -55.8200   32.3380 O.2     8  LEU8       -0.2867
      5  CB       -27.0040  -53.2860   30.6640 C.3     8  LEU8        0.0270
      6  CG       -27.7220  -54.4290   29.9080 C.3     8  LEU8        0.0019
      7  CD1      -29.1410  -54.6730   30.4410 C.3     8  LEU8        0.0001
      8  CD2      -27.7690  -54.1410   28.4300 C.3     8  LEU8        0.0001
      9  N        -26.0400  -58.0330   34.3720 N.3    12  PHE12      -0.1227
     10  CA       -25.8340  -59.2640   33.6140 C.3    12  PHE12       0.1736
     11  C        -24.8120  -60.1990   34.2610 C.2    12  PHE12       0.2595
     12  O        -25.0820  -61.3930   34.3890 O.2    12  PHE12      -0.2718
     13  CB       -25.4110  -58.9350   32.1780 C.3    12  PHE12       0.0547
     14  CG       -26.0110  -59.8620   31.1640 C.ar   12  PHE12      -0.0202
     15  CD1      -27.3140  -59.6750   30.7130 C.ar   12  PHE12      -0.0042
     16  CD2      -25.2850  -60.9360   30.6680 C.ar   12  PHE12      -0.0042
     17  CE1      -27.8790  -60.5450   29.7840 C.ar   12  PHE12      -0.0003
     18  CE2      -25.8470  -61.8030   29.7350 C.ar   12  PHE12      -0.0003
     19  CZ       -27.1380  -61.5950   29.2950 C.ar   12  PHE12      -0.0000
     20  N        -23.6530  -59.6590   34.6800 N.am   13  TYR13      -0.1976
     21  CA       -22.6080  -60.4440   35.3280 C.3    13  TYR13       0.1639
     22  C        -23.0320  -60.9730   36.6980 C.2    13  TYR13       0.2290
     23  O        -22.8020  -62.1550   36.9740 O.2    13  TYR13      -0.2864
     24  CB       -21.2830  -59.6760   35.3870 C.3    13  TYR13       0.0560
     25  CG       -20.4310  -59.9480   34.1680 C.ar   13  TYR13      -0.0198
     26  CD1      -20.6470  -59.2640   32.9740 C.ar   13  TYR13      -0.0009
     27  CD2      -19.4530  -60.9370   34.1850 C.ar   13  TYR13      -0.0009
     28  CE1      -19.8990  -59.5480   31.8320 C.ar   13  TYR13       0.0417
     29  CE2      -18.6890  -61.2200   33.0540 C.ar   13  TYR13       0.0417
     30  CZ       -18.9140  -60.5220   31.8800 C.ar   13  TYR13       0.1957
     31  OH       -18.1590  -60.8040   30.7640 O.3    13  TYR13      -0.2866
     32  N        -26.1370  -77.9390   31.6500 N.3    29  GLU29      -0.1245
     33  CA       -26.0090  -77.5510   30.2450 C.3    29  GLU29       0.1567
     34  C        -26.3110  -76.0630   30.0130 C.2    29  GLU29       0.2260
     35  O        -25.7090  -75.4430   29.1310 O.2    29  GLU29      -0.2867
     36  CB       -26.8420  -78.4470   29.3320 C.3    29  GLU29       0.0388
     37  CG       -25.9440  -79.3540   28.5030 C.3    29  GLU29       0.1160
     38  CD       -26.6100  -80.5930   27.9350 C.2    29  GLU29       0.3649
     39  OE1      -27.6950  -80.4690   27.3170 O.co2  29  GLU29      -0.2457
     40  OE2      -26.0250  -81.6910   28.0880 O.co2  29  GLU29      -0.2457
     41  N        -21.4270  -73.4140   34.3370 N.3    33  ASP33      -0.1239
     42  CA       -20.3020  -72.5100   34.5600 C.3    33  ASP33       0.1674
     43  C        -20.7540  -71.1030   34.1960 C.2    33  ASP33       0.2266
     44  O        -21.8280  -70.9600   33.6060 O.2    33  ASP33      -0.2867
     45  CB       -19.0420  -72.9440   33.7790 C.3    33  ASP33       0.1410
     46  CG       -19.2050  -73.2090   32.2860 C.2    33  ASP33       0.3668
     47  OD1      -19.4810  -72.2460   31.5380 O.co2  33  ASP33      -0.2456
     48  OD2      -18.9160  -74.3480   31.8500 O.co2  33  ASP33      -0.2456
     49  N        -19.7390  -69.0170   31.8250 N.3    35  SER35      -0.1202
     50  CA       -19.8860  -68.8540   30.3620 C.3    35  SER35       0.2020
     51  C        -21.2420  -69.3520   29.8450 C.2    35  SER35       0.2618
     52  O        -21.8830  -68.6620   29.0420 O.2    35  SER35      -0.2717
     53  CB       -18.7510  -69.5480   29.6230 C.3    35  SER35       0.2103
     54  OG       -17.5080  -68.9560   29.9650 O.3    35  SER35      -0.2182
     55  N        -21.6900  -70.5270   30.3410 N.am   36  LYS36      -0.1979
     56  CA       -22.9700  -71.1330   29.9890 C.3    36  LYS36       0.1596
     57  C        -24.1190  -70.2550   30.4740 C.2    36  LYS36       0.2287
     58  O        -25.0710  -70.0460   29.7170 O.2    36  LYS36      -0.2864
     59  CB       -23.0840  -72.5430   30.5820 C.3    36  LYS36       0.0298
     60  CG       -22.1760  -73.5540   29.9170 C.3    36  LYS36       0.0038
     61  CD       -22.0900  -74.8100   30.7380 C.3    36  LYS36       0.0206
     62  CE       -21.6990  -76.0100   29.9130 C.3    36  LYS36       0.1093
     63  NZ       -21.7200  -77.2500   30.7360 N.3    36  LYS36      -0.1314
     64  N        -24.0200  -66.8740   31.2140 N.3    38  LEU38      -0.1231
     65  CA       -24.0490  -65.6110   30.4630 C.3    38  LEU38       0.1693
     66  C        -24.7930  -65.7930   29.1360 C.2    38  LEU38       0.2592
     67  O        -25.6280  -64.9550   28.7900 O.2    38  LEU38      -0.2718
     68  CB       -22.6280  -65.0700   30.2140 C.3    38  LEU38       0.0284
     69  CG       -21.9090  -64.4350   31.4020 C.3    38  LEU38       0.0019
     70  CD1      -20.4100  -64.2990   31.1150 C.3    38  LEU38       0.0001
     71  CD2      -22.5070  -63.0750   31.7610 C.3    38  LEU38       0.0001
     72  N        -24.5140  -66.9100   28.4180 N.am   39  TYR39      -0.1976
     73  CA       -25.1710  -67.2410   27.1550 C.3    39  TYR39       0.1639
     74  C        -26.6900  -67.4620   27.3610 C.2    39  TYR39       0.2290
     75  O        -27.4960  -66.9200   26.5900 O.2    39  TYR39      -0.2864
     76  CB       -24.5180  -68.4720   26.4960 C.3    39  TYR39       0.0560
     77  CG       -25.2230  -68.9100   25.2320 C.ar   39  TYR39      -0.0198
     78  CD1      -24.8920  -68.3560   23.9970 C.ar   39  TYR39      -0.0009
     79  CD2      -26.2730  -69.8260   25.2760 C.ar   39  TYR39      -0.0009
     80  CE1      -25.5920  -68.6950   22.8420 C.ar   39  TYR39       0.0417
     81  CE2      -26.9830  -70.1680   24.1280 C.ar   39  TYR39       0.0417
     82  CZ       -26.6370  -69.6010   22.9140 C.ar   39  TYR39       0.1957
     83  OH       -27.2970  -69.9770   21.7720 O.3    39  TYR39      -0.2866
     84  N        -28.5250  -64.3180   28.0980 N.3    42  PHE42      -0.1241
     85  CA       -28.6600  -63.4940   26.8920 C.3    42  PHE42       0.1605
     86  C        -29.8930  -63.9860   26.1030 C.2    42  PHE42       0.2264
     87  O        -30.6980  -63.1610   25.6580 O.2    42  PHE42      -0.2867
     88  CB       -27.3960  -63.4850   26.0160 C.3    42  PHE42       0.0534
     89  CG       -27.5760  -62.6930   24.7370 C.ar   42  PHE42      -0.0203
     90  CD1      -27.4640  -61.3070   24.7350 C.ar   42  PHE42      -0.0042
     91  CD2      -27.8650  -63.3320   23.5380 C.ar   42  PHE42      -0.0042
     92  CE1      -27.6530  -60.5770   23.5610 C.ar   42  PHE42      -0.0003
     93  CE2      -28.0600  -62.5990   22.3640 C.ar   42  PHE42      -0.0003
     94  CZ       -27.9580  -61.2270   22.3850 C.ar   42  PHE42      -0.0000
     95  N        -33.0850  -62.9730   27.8580 N.3    45  MET45      -0.1245
     96  CA       -33.3050  -61.5480   27.5800 C.3    45  MET45       0.1570
     97  C        -33.9850  -61.3440   26.2110 C.2    45  MET45       0.2261
     98  O        -34.8740  -60.5020   26.0950 O.2    45  MET45      -0.2867
     99  CB       -31.9830  -60.7770   27.6450 C.3    45  MET45       0.0387
    100  CG       -32.1340  -59.2790   27.4680 C.3    45  MET45       0.0595
    101  SD       -30.5500  -58.4100   27.5290 S.3    45  MET45      -0.1393
    102  CE       -29.9780  -58.6850   25.8500 C.3    45  MET45       0.0692
@<TRIPOS>BOND
     1    83    82    1
     2    93    94   ar
     3    93    91   ar
     4    94    92   ar
     5    80    82   ar
     6    80    78   ar
     7    82    81   ar
     8    91    89   ar
     9    92    90   ar
    10    78    77   ar
    11    81    79   ar
    12    90    89   ar
    13    89    88    1
    14    77    79   ar
    15    77    76    1
    16    87    86    2
    17   102   101    1
    18    88    85    1
    19    98    97    2
    20    86    85    1
    21    97    96    1
    22    76    73    1
    23    75    74    2
    24    85    84    1
    25    73    74    1
    26    73    72    1
    27    39    38   ar
    28   100   101    1
    29   100    99    1
    30    96    99    1
    31    96    95    1
    32    38    40   ar
    33    38    37    1
    34    72    66   am
    35     8     6    1
    36    37    36    1
    37    67    66    2
    38    52    51    2
    39    35    34    2
    40    66    65    1
    41    19    18   ar
    42    19    17   ar
    43    36    33    1
    44    53    54    1
    45    53    50    1
    46    58    57    2
    47    18    16   ar
    48    17    15   ar
    49    51    55   am
    50    51    50    1
    51     6     7    1
    52     6     5    1
    53    62    63    1
    54    62    61    1
    55    60    59    1
    56    60    61    1
    57    56    55    1
    58    56    57    1
    59    56    59    1
    60    34    33    1
    61    68    65    1
    62    68    69    1
    63    33    32    1
    64    50    49    1
    65    65    64    1
    66     5     2    1
    67    16    14   ar
    68    15    14   ar
    69    31    30    1
    70    70    69    1
    71    14    13    1
    72    69    71    1
    73    47    46   ar
    74    28    30   ar
    75    28    26   ar
    76    48    46   ar
    77    30    29   ar
    78     2     3    1
    79     2     1    1
    80    13    10    1
    81     3     4    2
    82    46    45    1
    83    26    25   ar
    84    29    27   ar
    85    44    43    2
    86    10    11    1
    87    10     9    1
    88    45    42    1
    89    25    27   ar
    90    25    24    1
    91    43    42    1
    92    11    12    2
    93    11    20   am
    94    41    42    1
    95    20    21    1
    96    21    24    1
    97    21    22    1
    98    22    23    2
