@<TRIPOS>MOLECULE
tmp/5bzcA00.pdb
 82 77 0 0 0
SMALL
GASTEIGER

@<TRIPOS>ATOM
      1  N          9.3420    1.4270    0.1530 N.3     6  ASN6       -0.1225
      2  CA         9.3730    0.1530   -0.5730 C.3     6  ASN6        0.1785
      3  C          7.9560   -0.3090   -0.8730 C.2     6  ASN6        0.2597
      4  O          7.1580   -0.4680    0.0440 O.2     6  ASN6       -0.2718
      5  CB        10.1180   -0.9280    0.2640 C.3     6  ASN6        0.1169
      6  CG        11.5520   -0.5750    0.5510 C.2     6  ASN6        0.2627
      7  OD1       12.1770    0.2340   -0.1580 O.2     6  ASN6       -0.2716
      8  ND2       12.1080   -1.1790    1.6140 N.am    6  ASN6       -0.0877
      9  N          7.6210   -0.5200   -2.1420 N.am    7  VAL7       -0.1966
     10  CA         6.2520   -0.8900   -2.4680 C.3     7  VAL7        0.1727
     11  C          6.2090   -2.2150   -3.2270 C.2     7  VAL7        0.2616
     12  O          7.2160   -2.6450   -3.8390 O.2     7  VAL7       -0.2715
     13  CB         5.5500    0.1970   -3.3090 C.3     7  VAL7        0.0290
     14  CG1        5.5870    1.5590   -2.5660 C.3     7  VAL7        0.0023
     15  CG2        6.2570    0.3250   -4.6700 C.3     7  VAL7        0.0023
     16  N          5.0320   -2.8270   -3.2130 N.am    8  THR8       -0.1951
     17  CA         4.8010   -4.1080   -3.8870 C.3     8  THR8        0.1897
     18  C          3.8630   -3.9960   -5.0920 C.2     8  THR8        0.2313
     19  O          3.3030   -2.9330   -5.3730 O.2     8  THR8       -0.2863
     20  CB         4.1280   -5.1420   -2.9550 C.3     8  THR8        0.1794
     21  OG1        2.8180   -4.6700   -2.5880 O.3     8  THR8       -0.2208
     22  CG2        4.9820   -5.4570   -1.6990 C.3     8  THR8        0.0378
     23  N          1.4590   -3.2000   -0.4540 N.3    16  HIS16      -0.1241
     24  CA         2.2250   -3.0600    0.8090 C.3    16  HIS16       0.1621
     25  C          3.2620   -1.9560    0.6340 C.2    16  HIS16       0.2264
     26  O          3.9290   -1.8800   -0.4190 O.2    16  HIS16      -0.2867
     27  CB         2.9190   -4.3910    1.0730 C.3    16  HIS16       0.0745
     28  CG         3.8750   -4.3960    2.2260 C.ar   16  HIS16       0.0817
     29  ND1        5.0700   -5.0900    2.1840 N.ar   16  HIS16      -0.2268
     30  CD2        3.8040   -3.8420    3.4670 C.ar   16  HIS16       0.1154
     31  CE1        5.7150   -4.9330    3.3340 C.ar   16  HIS16       0.1986
     32  NE2        4.9580   -4.2020    4.1390 N.ar   16  HIS16      -0.2212
     33  N          6.4960   -0.3030    2.7670 N.3    18  GLU18      -0.1245
     34  CA         7.4450   -0.4440    3.8660 C.3    18  GLU18       0.1567
     35  C          8.4070    0.7500    3.8950 C.2    18  GLU18       0.2260
     36  O          9.1600    0.9990    2.9260 O.2    18  GLU18      -0.2867
     37  CB         8.1570   -1.7840    3.6850 C.3    18  GLU18       0.0388
     38  CG         9.3190   -2.0650    4.6120 C.3    18  GLU18       0.1160
     39  CD        10.0160   -3.3200    4.1590 C.2    18  GLU18       0.3649
     40  OE1        9.6250   -4.4090    4.6220 O.co2  18  GLU18      -0.2457
     41  OE2       10.9080   -3.2120    3.2880 O.co2  18  GLU18      -0.2457
     42  N         12.6380    0.2440    4.7860 N.3    21  GLY21      -0.1225
     43  CA        12.8880   -1.1670    4.9920 C.3    21  GLY21       0.1811
     44  C         12.8330   -1.6130    6.4460 C.2    21  GLY21       0.2280
     45  O         13.4120   -2.6540    6.7840 O.2    21  GLY21      -0.2866
     46  N          5.1270   -9.3950    6.4130 N.3    59  ARG59      -0.1245
     47  CA         5.2560   -8.1920    7.2160 C.3    59  ARG59       0.1563
     48  C          3.9120   -7.7050    7.7800 C.2    59  ARG59       0.2260
     49  O          2.8950   -7.6560    7.0530 O.2    59  ARG59      -0.2867
     50  CB         5.8580   -7.0360    6.3700 C.3    59  ARG59       0.0307
     51  CG         7.2660   -7.3020    5.7910 C.3    59  ARG59       0.0489
     52  CD         8.3740   -7.0750    6.8390 C.3    59  ARG59       0.2205
     53  NE         8.5150   -5.6520    7.1870 N.pl3  59  ARG59      -0.0865
     54  CZ         9.4080   -5.1460    8.0430 C.cat  59  ARG59       0.5346
     55  NH1        9.4300   -3.8160    8.2700 N.pl3  59  ARG59       0.1354
     56  NH2       10.3080   -5.9480    8.6190 N.pl3  59  ARG59       0.1354
     57  N         10.6950    2.8470   -4.0370 N.3   130  VAL130     -0.1231
     58  CA        11.5720    1.7730   -4.4680 C.3   130  VAL130      0.1692
     59  C         10.7250    0.5540   -4.7960 C.2   130  VAL130      0.2592
     60  O         10.0780   -0.0060   -3.9040 O.2   130  VAL130     -0.2718
     61  CB        12.6460    1.3740   -3.4400 C.3   130  VAL130      0.0266
     62  CG1       13.6980    0.4910   -4.1400 C.3   130  VAL130      0.0020
     63  CG2       13.3180    2.6270   -2.7810 C.3   130  VAL130      0.0020
     64  N         10.7350    0.1620   -6.0790 N.am  131  ASN131     -0.1960
     65  CA        10.0190   -1.0490   -6.4900 C.3   131  ASN131      0.1819
     66  C         10.7920   -2.3140   -6.1660 C.2   131  ASN131      0.2621
     67  O         11.9880   -2.2520   -5.9140 O.2   131  ASN131     -0.2715
     68  CB         9.6300   -0.9120   -7.9570 C.3   131  ASN131      0.1195
     69  CG         8.5910    0.1730   -8.1350 C.2   131  ASN131      0.2630
     70  OD1        7.4040   -0.0530   -7.8560 O.2   131  ASN131     -0.2716
     71  ND2        9.0400    1.3950   -8.4680 N.am  131  ASN131     -0.0877
     72  N         10.1360   -3.4640   -6.1750 N.am  132  ARG132     -0.1977
     73  CA        10.8530   -4.6990   -5.8620 C.3   132  ARG132      0.1597
     74  C         11.9200   -5.0400   -6.9000 C.2   132  ARG132      0.2287
     75  O         12.9090   -5.6770   -6.5360 O.2   132  ARG132     -0.2864
     76  CB         9.8880   -5.8810   -5.5890 C.3   132  ARG132      0.0334
     77  CG        10.5210   -7.2420   -5.1200 C.3   132  ARG132      0.0492
     78  CD        11.3260   -7.1750   -3.7820 C.3   132  ARG132      0.2205
     79  NE        12.6760   -6.6040   -3.9450 N.pl3 132  ARG132     -0.0865
     80  CZ        13.6400   -6.6080   -3.0150 C.cat 132  ARG132      0.5346
     81  NH1       13.4410   -7.1330   -1.8140 N.pl3 132  ARG132      0.1354
     82  NH2       14.8210   -6.0520   -3.2770 N.pl3 132  ARG132      0.1354
@<TRIPOS>BOND
     1    71    69   am
     2    69    68    1
     3    69    70    2
     4    68    65    1
     5    74    75    2
     6    74    73    1
     7    65    66    1
     8    65    64    1
     9    72    66   am
    10    72    73    1
    11    66    67    2
    12    64    59   am
    13    73    76    1
    14    76    77    1
    15    19    18    2
    16    77    78    1
    17    18    17    1
    18    59    58    1
    19    59    60    2
    20    15    13    1
    21    58    57    1
    22    58    61    1
    23    62    61    1
    24    79    78    1
    25    79    80    2
    26    17    16    1
    27    17    20    1
    28    12    11    2
    29    61    63    1
    30    13    14    1
    31    13    10    1
    32    82    80    1
    33    11    16   am
    34    11    10    1
    35    80    81    1
    36    20    21    1
    37    20    22    1
    38    10     9    1
    39     9     3   am
    40     3     2    1
    41     3     4    2
    42     2     1    1
    43     2     5    1
    44    23    24    1
    45    26    25    2
    46     7     6    2
    47     5     6    1
    48     6     8   am
    49    25    24    1
    50    24    27    1
    51    27    28    1
    52    29    28   ar
    53    29    31   ar
    54    28    30   ar
    55    33    34    1
    56    36    35    2
    57    41    39   ar
    58    31    32   ar
    59    30    32   ar
    60    37    34    1
    61    37    38    1
    62    34    35    1
    63    39    38    1
    64    39    40   ar
    65    42    43    1
    66    43    44    1
    67    51    50    1
    68    51    52    1
    69    50    47    1
    70    46    47    1
    71    44    45    2
    72    52    53    1
    73    49    48    2
    74    53    54    2
    75    47    48    1
    76    54    55    1
    77    54    56    1
