@<TRIPOS>MOLECULE
tmp/5bzeA00.pdb
 82 77 0 0 0
SMALL
GASTEIGER

@<TRIPOS>ATOM
      1  N          9.3800    1.3540    0.0360 N.3     6  ASN6       -0.1225
      2  CA         9.4390    0.0940   -0.7030 C.3     6  ASN6        0.1785
      3  C          8.0230   -0.3840   -0.9640 C.2     6  ASN6        0.2597
      4  O          7.3030   -0.5510   -0.0490 O.2     6  ASN6       -0.2718
      5  CB        10.1980   -0.9380    0.1710 C.3     6  ASN6        0.1169
      6  CG        11.6140   -0.5430    0.4610 C.2     6  ASN6        0.2627
      7  OD1       12.2220    0.1480   -0.2610 O.2     6  ASN6       -0.2716
      8  ND2       12.1110   -1.0650    1.5280 N.am    6  ASN6       -0.0877
      9  N          7.6930   -0.5640   -2.2110 N.am    7  VAL7       -0.1966
     10  CA         6.3060   -0.8630   -2.5750 C.3     7  VAL7        0.1727
     11  C          6.2110   -2.1810   -3.3290 C.2     7  VAL7        0.2616
     12  O          7.1380   -2.5730   -4.0380 O.2     7  VAL7       -0.2715
     13  CB         5.6710    0.2790   -3.4050 C.3     7  VAL7        0.0290
     14  CG1        5.7050    1.6040   -2.6430 C.3     7  VAL7        0.0023
     15  CG2        6.3640    0.4330   -4.7440 C.3     7  VAL7        0.0023
     16  N          5.0900   -2.8780   -3.1750 N.am    8  THR8       -0.1951
     17  CA         4.8650   -4.1410   -3.8590 C.3     8  THR8        0.1897
     18  C          3.9710   -3.9960   -5.0870 C.2     8  THR8        0.2313
     19  O          3.3730   -2.9510   -5.3300 O.2     8  THR8       -0.2863
     20  CB         4.1930   -5.1780   -2.9160 C.3     8  THR8        0.1794
     21  OG1        2.8730   -4.7340   -2.5530 O.3     8  THR8       -0.2208
     22  CG2        5.0330   -5.4050   -1.6660 C.3     8  THR8        0.0378
     23  N          1.4940   -3.2490   -0.4030 N.3    16  HIS16      -0.1241
     24  CA         2.2590   -3.1250    0.8460 C.3    16  HIS16       0.1621
     25  C          3.3400   -2.0450    0.6750 C.2    16  HIS16       0.2264
     26  O          4.0050   -1.9750   -0.3750 O.2    16  HIS16      -0.2867
     27  CB         2.8460   -4.5080    1.1710 C.3    16  HIS16       0.0745
     28  CG         3.9010   -4.5320    2.2350 C.ar   16  HIS16       0.0817
     29  ND1        5.1130   -5.1530    2.0370 N.ar   16  HIS16      -0.2268
     30  CD2        3.9000   -4.1040    3.5200 C.ar   16  HIS16       0.1154
     31  CE1        5.8380   -5.0550    3.1400 C.ar   16  HIS16       0.1986
     32  NE2        5.1200   -4.4350    4.0590 N.ar   16  HIS16      -0.2212
     33  N          6.6330   -0.4080    2.8730 N.3    18  GLU18      -0.1245
     34  CA         7.6210   -0.4470    3.9850 C.3    18  GLU18       0.1567
     35  C          8.4790    0.7880    3.9210 C.2    18  GLU18       0.2260
     36  O          9.0670    1.0350    2.9210 O.2    18  GLU18      -0.2867
     37  CB         8.4570   -1.7110    3.8140 C.3    18  GLU18       0.0388
     38  CG         9.5870   -2.0220    4.7190 C.3    18  GLU18       0.1160
     39  CD        10.3290   -3.2450    4.2110 C.2    18  GLU18       0.3649
     40  OE1       10.1570   -4.3310    4.7430 O.co2  18  GLU18      -0.2457
     41  OE2       11.0560   -3.0990    3.2480 O.co2  18  GLU18      -0.2457
     42  N         12.7640    0.1830    4.9330 N.3    21  GLY21      -0.1225
     43  CA        13.0720   -1.2060    5.1200 C.3    21  GLY21       0.1811
     44  C         12.9760   -1.7020    6.5560 C.2    21  GLY21       0.2280
     45  O         13.5730   -2.7140    6.8070 O.2    21  GLY21      -0.2866
     46  N          5.0400   -9.5040    6.4610 N.3    59  ARG59      -0.1245
     47  CA         5.2290   -8.2840    7.2470 C.3    59  ARG59       0.1563
     48  C          3.9210   -7.7880    7.8350 C.2    59  ARG59       0.2260
     49  O          2.8990   -7.7510    7.1400 O.2    59  ARG59      -0.2867
     50  CB         5.7790   -7.1610    6.3520 C.3    59  ARG59       0.0307
     51  CG         7.1550   -7.4090    5.7650 C.3    59  ARG59       0.0489
     52  CD         8.2680   -7.2070    6.8110 C.3    59  ARG59       0.2205
     53  NE         8.4280   -5.7890    7.1620 N.pl3  59  ARG59      -0.0865
     54  CZ         9.3510   -5.3100    7.9950 C.cat  59  ARG59       0.5346
     55  NH1       10.2070   -6.1420    8.5870 N.pl3  59  ARG59       0.1354
     56  NH2        9.4260   -3.9970    8.2310 N.pl3  59  ARG59       0.1354
     57  N         10.7690    2.8170   -4.1360 N.3   130  VAL130     -0.1231
     58  CA        11.6210    1.7080   -4.5450 C.3   130  VAL130      0.1692
     59  C         10.7360    0.5080   -4.8580 C.2   130  VAL130      0.2592
     60  O         10.0350   -0.0020   -3.9830 O.2   130  VAL130     -0.2718
     61  CB        12.6440    1.3530   -3.4410 C.3   130  VAL130      0.0266
     62  CG1       13.6120    0.2990   -3.9350 C.3   130  VAL130      0.0020
     63  CG2       13.4030    2.6010   -2.9540 C.3   130  VAL130      0.0020
     64  N         10.7710    0.0550   -6.1020 N.am  131  ASN131     -0.1960
     65  CA        10.0520   -1.1430   -6.5190 C.3   131  ASN131      0.1819
     66  C         10.8910   -2.3880   -6.2440 C.2   131  ASN131      0.2621
     67  O         12.1160   -2.2970   -6.0810 O.2   131  ASN131     -0.2715
     68  CB         9.6760   -1.0250   -7.9870 C.3   131  ASN131      0.1195
     69  CG         8.6470    0.0560   -8.2140 C.2   131  ASN131      0.2630
     70  OD1        7.4420   -0.1640   -8.0420 O.2   131  ASN131     -0.2716
     71  ND2        9.1050    1.2270   -8.6060 N.am  131  ASN131     -0.0877
     72  N         10.2530   -3.5490   -6.1940 N.am  132  ARG132     -0.1977
     73  CA        10.9720   -4.7620   -5.8780 C.3   132  ARG132      0.1597
     74  C         12.0110   -5.1060   -6.9480 C.2   132  ARG132      0.2287
     75  O         13.0470   -5.6910   -6.6310 O.2   132  ARG132     -0.2864
     76  CB         9.9920   -5.9180   -5.6270 C.3   132  ARG132      0.0334
     77  CG        10.6130   -7.2580   -5.1600 C.3   132  ARG132      0.0492
     78  CD        11.3610   -7.2280   -3.8280 C.3   132  ARG132      0.2205
     79  NE        12.6760   -6.6030   -3.9610 N.pl3 132  ARG132     -0.0865
     80  CZ        13.6510   -6.6630   -3.0610 C.cat 132  ARG132      0.5346
     81  NH1       13.4990   -7.3490   -1.9330 N.pl3 132  ARG132      0.1354
     82  NH2       14.7900   -6.0370   -3.3040 N.pl3 132  ARG132      0.1354
@<TRIPOS>BOND
     1    71    69   am
     2    69    70    2
     3    69    68    1
     4    68    65    1
     5    74    75    2
     6    74    73    1
     7    65    66    1
     8    65    64    1
     9    66    72   am
    10    66    67    2
    11    72    73    1
    12    64    59   am
    13    73    76    1
    14    76    77    1
    15    19    18    2
    16    77    78    1
    17    18    17    1
    18    59    58    1
    19    59    60    2
    20    15    13    1
    21    58    57    1
    22    58    61    1
    23    12    11    2
    24    79    78    1
    25    79    80    2
    26    62    61    1
    27    17    16    1
    28    17    20    1
    29    61    63    1
    30    13    14    1
    31    13    10    1
    32    11    16   am
    33    11    10    1
    34    82    80    1
    35    80    81    1
    36    20    21    1
    37    20    22    1
    38    10     9    1
    39     9     3   am
    40     3     2    1
    41     3     4    2
    42     2     1    1
    43     2     5    1
    44    23    24    1
    45    26    25    2
    46     7     6    2
    47     5     6    1
    48     6     8   am
    49    25    24    1
    50    24    27    1
    51    27    28    1
    52    29    28   ar
    53    29    31   ar
    54    28    30   ar
    55    33    34    1
    56    36    35    2
    57    31    32   ar
    58    41    39   ar
    59    30    32   ar
    60    37    34    1
    61    37    38    1
    62    35    34    1
    63    39    38    1
    64    39    40   ar
    65    42    43    1
    66    43    44    1
    67    51    50    1
    68    51    52    1
    69    50    47    1
    70    46    47    1
    71    44    45    2
    72    52    53    1
    73    49    48    2
    74    53    54    2
    75    47    48    1
    76    54    56    1
    77    54    55    1
