@<TRIPOS>MOLECULE
tmp/5bzfA00.pdb
 82 77 0 0 0
SMALL
GASTEIGER

@<TRIPOS>ATOM
      1  N          9.0050    1.5840    0.0810 N.3     6  ASN6       -0.1225
      2  CA         9.0950    0.3100   -0.6480 C.3     6  ASN6        0.1785
      3  C          7.6960   -0.1840   -0.9830 C.2     6  ASN6        0.2597
      4  O          6.9100   -0.4300   -0.0760 O.2     6  ASN6       -0.2718
      5  CB         9.8410   -0.7630    0.1690 C.3     6  ASN6        0.1169
      6  CG        11.3260   -0.4390    0.3940 C.2     6  ASN6        0.2627
      7  OD1       12.0460   -0.0610   -0.5280 O.2     6  ASN6       -0.2716
      8  ND2       11.7910   -0.6330    1.6250 N.am    6  ASN6       -0.0877
      9  N          7.3770   -0.3290   -2.2710 N.am    7  VAL7       -0.1966
     10  CA         6.0180   -0.7350   -2.6750 C.3     7  VAL7        0.1727
     11  C          5.9480   -2.1080   -3.3700 C.2     7  VAL7        0.2616
     12  O          6.8890   -2.5110   -4.0710 O.2     7  VAL7       -0.2715
     13  CB         5.3200    0.3430   -3.5480 C.3     7  VAL7        0.0290
     14  CG1        5.1720    1.6360   -2.7780 C.3     7  VAL7        0.0023
     15  CG2        6.0930    0.5880   -4.8390 C.3     7  VAL7        0.0023
     16  N          4.8310   -2.8150   -3.1800 N.am    8  THR8       -0.1951
     17  CA         4.6280   -4.1270   -3.8170 C.3     8  THR8        0.1897
     18  C          3.7290   -4.0610   -5.0480 C.2     8  THR8        0.2313
     19  O          3.2770   -2.9770   -5.4550 O.2     8  THR8       -0.2863
     20  CB         4.0230   -5.2050   -2.8600 C.3     8  THR8        0.1794
     21  OG1        2.7090   -4.8180   -2.4320 O.3     8  THR8       -0.2208
     22  CG2        4.9260   -5.4770   -1.6690 C.3     8  THR8        0.0378
     23  N          1.5030   -3.2400   -0.5210 N.3    16  HIS16      -0.1241
     24  CA         2.2880   -3.1630    0.6980 C.3    16  HIS16       0.1621
     25  C          3.2950   -2.0240    0.5920 C.2    16  HIS16       0.2264
     26  O          3.9580   -1.8720   -0.4310 O.2    16  HIS16      -0.2867
     27  CB         3.0110   -4.4880    0.9220 C.3    16  HIS16       0.0745
     28  CG         3.8340   -4.5330    2.1690 C.ar   16  HIS16       0.0817
     29  ND1        5.2060   -4.6750    2.1490 N.ar   16  HIS16      -0.2268
     30  CD2        3.4810   -4.4650    3.4750 C.ar   16  HIS16       0.1154
     31  CE1        5.6620   -4.6900    3.3880 C.ar   16  HIS16       0.1986
     32  NE2        4.6370   -4.5590    4.2120 N.ar   16  HIS16      -0.2212
     33  N          6.4160   -0.4390    3.0190 N.3    18  GLU18      -0.1245
     34  CA         7.3980   -0.2270    4.0600 C.3    18  GLU18       0.1567
     35  C          8.0880    1.1130    4.0450 C.2    18  GLU18       0.2260
     36  O          8.6140    1.4870    3.0680 O.2    18  GLU18      -0.2867
     37  CB         8.5250   -1.2020    3.9030 C.3    18  GLU18       0.0388
     38  CG         8.1720   -2.5780    3.9530 C.3    18  GLU18       0.1160
     39  CD         9.1670   -3.4770    3.3330 C.2    18  GLU18       0.3649
     40  OE1        8.8820   -4.6620    3.2090 O.co2  18  GLU18      -0.2457
     41  OE2       10.2200   -3.0120    2.9620 O.co2  18  GLU18      -0.2457
     42  N         12.4030    0.2920    4.8360 N.3    21  GLY21      -0.1225
     43  CA        12.6010   -1.1360    5.0100 C.3    21  GLY21       0.1811
     44  C         12.4850   -1.6410    6.4360 C.2    21  GLY21       0.2280
     45  O         12.8170   -2.7890    6.7040 O.2    21  GLY21      -0.2866
     46  N          5.1000   -9.4450    6.5070 N.3    59  ARG59      -0.1245
     47  CA         5.2710   -8.2310    7.3200 C.3    59  ARG59       0.1563
     48  C          3.9350   -7.6660    7.8200 C.2    59  ARG59       0.2260
     49  O          2.9730   -7.5440    7.0650 O.2    59  ARG59      -0.2867
     50  CB         5.9980   -7.1540    6.5090 C.3    59  ARG59       0.0307
     51  CG         7.2830   -7.6180    5.8370 C.3    59  ARG59       0.0489
     52  CD         8.4970   -7.1640    6.6080 C.3    59  ARG59       0.2205
     53  NE         8.7010   -5.7240    6.4630 N.pl3  59  ARG59      -0.0865
     54  CZ         9.4530   -4.9780    7.2680 C.cat  59  ARG59       0.5346
     55  NH1        9.5640   -3.6730    7.0370 N.pl3  59  ARG59       0.1354
     56  NH2       10.0890   -5.5300    8.3040 N.pl3  59  ARG59       0.1354
     57  N         10.5530    3.0780   -4.0560 N.3   130  VAL130     -0.1231
     58  CA        11.4310    1.9560   -4.3850 C.3   130  VAL130      0.1692
     59  C         10.6170    0.7210   -4.7570 C.2   130  VAL130      0.2592
     60  O          9.8490    0.2090   -3.9390 O.2   130  VAL130     -0.2718
     61  CB        12.3690    1.5950   -3.2200 C.3   130  VAL130      0.0266
     62  CG1       13.3950    0.5710   -3.6810 C.3   130  VAL130      0.0020
     63  CG2       13.0430    2.8200   -2.6690 C.3   130  VAL130      0.0020
     64  N         10.7940    0.2400   -5.9820 N.am  131  ASN131     -0.1960
     65  CA        10.0750   -0.9520   -6.4540 C.3   131  ASN131      0.1819
     66  C         10.8030   -2.2520   -6.1560 C.2   131  ASN131      0.2621
     67  O         12.0080   -2.2600   -5.9240 O.2   131  ASN131     -0.2715
     68  CB         9.7620   -0.8380   -7.9510 C.3   131  ASN131      0.1195
     69  CG         8.7940    0.2900   -8.2520 C.2   131  ASN131      0.2630
     70  OD1        7.5770    0.1150   -8.1580 O.2   131  ASN131     -0.2716
     71  ND2        9.3320    1.4660   -8.5900 N.am  131  ASN131     -0.0877
     72  N         10.0620   -3.3520   -6.1690 N.am  132  ARG132     -0.1977
     73  CA        10.6370   -4.6800   -5.9430 C.3   132  ARG132      0.1597
     74  C         11.6960   -5.0450   -6.9840 C.2   132  ARG132      0.2287
     75  O         12.7320   -5.6120   -6.6320 O.2   132  ARG132     -0.2864
     76  CB         9.5370   -5.7490   -5.8490 C.3   132  ARG132      0.0334
     77  CG         9.9760   -7.1250   -5.3380 C.3   132  ARG132      0.0492
     78  CD        10.7090   -7.0790   -4.0030 C.3   132  ARG132      0.2205
     79  NE        12.1000   -6.6390   -4.1490 N.pl3 132  ARG132     -0.0865
     80  CZ        13.0170   -6.6560   -3.1780 C.cat 132  ARG132      0.5346
     81  NH1       12.7200   -7.1210   -1.9750 N.pl3 132  ARG132      0.1354
     82  NH2       14.2480   -6.2270   -3.4200 N.pl3 132  ARG132      0.1354
@<TRIPOS>BOND
     1    71    69   am
     2    69    70    2
     3    69    68    1
     4    68    65    1
     5    74    75    2
     6    74    73    1
     7    65    66    1
     8    65    64    1
     9    72    66   am
    10    72    73    1
    11    66    67    2
    12    64    59   am
    13    73    76    1
    14    76    77    1
    15    19    18    2
    16    77    78    1
    17    18    17    1
    18    15    13    1
    19    59    58    1
    20    59    60    2
    21    58    57    1
    22    58    61    1
    23    79    78    1
    24    79    80    2
    25    12    11    2
    26    17    16    1
    27    17    20    1
    28    62    61    1
    29    13    14    1
    30    13    10    1
    31    82    80    1
    32    11    16   am
    33    11    10    1
    34    61    63    1
    35    80    81    1
    36    20    21    1
    37    20    22    1
    38    10     9    1
    39     9     3   am
    40     3     2    1
    41     3     4    2
    42     2     1    1
    43     2     5    1
    44     7     6    2
    45    23    24    1
    46    26    25    2
    47     5     6    1
    48     6     8   am
    49    25    24    1
    50    24    27    1
    51    27    28    1
    52    29    28   ar
    53    29    31   ar
    54    28    30   ar
    55    41    39   ar
    56    33    34    1
    57    36    35    2
    58    40    39   ar
    59    39    38    1
    60    31    32   ar
    61    30    32   ar
    62    37    38    1
    63    37    34    1
    64    35    34    1
    65    42    43    1
    66    43    44    1
    67    51    50    1
    68    51    52    1
    69    44    45    2
    70    53    52    1
    71    53    54    2
    72    46    47    1
    73    50    47    1
    74    55    54    1
    75    49    48    2
    76    54    56    1
    77    47    48    1
