@<TRIPOS>MOLECULE
tmp/5bzhA00.pdb
 82 77 0 0 0
SMALL
GASTEIGER

@<TRIPOS>ATOM
      1  N          9.3300    1.4040    0.1320 N.3     6  ASN6       -0.1225
      2  CA         9.3750    0.1540   -0.6270 C.3     6  ASN6        0.1785
      3  C          7.9480   -0.3080   -0.9220 C.2     6  ASN6        0.2597
      4  O          7.1610   -0.5120    0.0080 O.2     6  ASN6       -0.2718
      5  CB        10.1120   -0.9410    0.1740 C.3     6  ASN6        0.1169
      6  CG        11.5480   -0.5830    0.5100 C.2     6  ASN6        0.2627
      7  OD1       12.1900    0.2360   -0.1550 O.2     6  ASN6       -0.2716
      8  ND2       12.0730   -1.2160    1.5510 N.am    6  ASN6       -0.0877
      9  N          7.6060   -0.4510   -2.2000 N.am    7  VAL7       -0.1966
     10  CA         6.2360   -0.7870   -2.5780 C.3     7  VAL7        0.1727
     11  C          6.1750   -2.1210   -3.3310 C.2     7  VAL7        0.2616
     12  O          7.1540   -2.5690   -3.9860 O.2     7  VAL7       -0.2715
     13  CB         5.5410    0.3460   -3.4140 C.3     7  VAL7        0.0290
     14  CG1        5.5910    1.6980   -2.6580 C.3     7  VAL7        0.0023
     15  CG2        6.2380    0.5080   -4.7770 C.3     7  VAL7        0.0023
     16  N          5.0140   -2.7530   -3.2390 N.am    8  THR8       -0.1951
     17  CA         4.8160   -4.0620   -3.8690 C.3     8  THR8        0.1897
     18  C          3.9020   -3.9670   -5.0840 C.2     8  THR8        0.2313
     19  O          3.3280   -2.9130   -5.3560 O.2     8  THR8       -0.2863
     20  CB         4.1480   -5.0820   -2.9110 C.3     8  THR8        0.1794
     21  OG1        2.8400   -4.6090   -2.5410 O.3     8  THR8       -0.2208
     22  CG2        5.0010   -5.3790   -1.6620 C.3     8  THR8        0.0378
     23  N          1.5370   -3.2130   -0.3860 N.3    16  HIS16      -0.1241
     24  CA         2.2670   -3.1010    0.8890 C.3    16  HIS16       0.1621
     25  C          3.3220   -1.9990    0.7270 C.2    16  HIS16       0.2264
     26  O          3.9730   -1.8940   -0.3250 O.2    16  HIS16      -0.2867
     27  CB         2.9370   -4.4560    1.2080 C.3    16  HIS16       0.0745
     28  CG         3.9320   -4.4250    2.3340 C.ar   16  HIS16       0.0817
     29  ND1        5.2530   -4.8020    2.1660 N.ar   16  HIS16      -0.2268
     30  CD2        3.7990   -4.1050    3.6470 C.ar   16  HIS16       0.1154
     31  CE1        5.8950   -4.6900    3.3200 C.ar   16  HIS16       0.1986
     32  NE2        5.0330   -4.2840    4.2390 N.ar   16  HIS16      -0.2212
     33  N          6.5570   -0.2370    2.8860 N.3    18  GLU18      -0.1245
     34  CA         7.4730   -0.2770    4.0020 C.3    18  GLU18       0.1567
     35  C          8.3690    0.9580    3.9780 C.2    18  GLU18       0.2260
     36  O          8.9670    1.2810    2.9470 O.2    18  GLU18      -0.2867
     37  CB         8.2540   -1.5650    3.8590 C.3    18  GLU18       0.0388
     38  CG         9.4670   -1.7500    4.6660 C.3    18  GLU18       0.1160
     39  CD        10.1580   -2.9750    4.1340 C.2    18  GLU18       0.3649
     40  OE1       11.1590   -2.8150    3.4150 O.co2  18  GLU18      -0.2457
     41  OE2        9.6160   -4.0940    4.3370 O.co2  18  GLU18      -0.2457
     42  N         12.6080    0.3580    4.9340 N.3    21  GLY21      -0.1225
     43  CA        12.8870   -1.0520    5.1140 C.3    21  GLY21       0.1811
     44  C         12.8770   -1.5480    6.5590 C.2    21  GLY21       0.2280
     45  O         13.5500   -2.5370    6.8730 O.2    21  GLY21      -0.2866
     46  N          5.0920   -9.4380    6.4490 N.3    59  ARG59      -0.1245
     47  CA         5.2470   -8.2480    7.2780 C.3    59  ARG59       0.1563
     48  C          3.9160   -7.7160    7.8410 C.2    59  ARG59       0.2260
     49  O          2.8940   -7.6710    7.1350 O.2    59  ARG59      -0.2867
     50  CB         5.9430   -7.1040    6.4740 C.3    59  ARG59       0.0307
     51  CG         7.2780   -7.4440    5.7970 C.3    59  ARG59       0.0489
     52  CD         8.4680   -7.1150    6.6730 C.3    59  ARG59       0.2205
     53  NE         8.5410   -5.6640    6.9910 N.pl3  59  ARG59      -0.0865
     54  CZ         9.3860   -5.1240    7.8700 C.cat  59  ARG59       0.5346
     55  NH1        9.3800   -3.7970    8.0850 N.pl3  59  ARG59       0.1354
     56  NH2       10.2620   -5.9040    8.5140 N.pl3  59  ARG59       0.1354
     57  N         10.7030    2.9310   -4.0700 N.3   130  VAL130     -0.1231
     58  CA        11.5370    1.8230   -4.5140 C.3   130  VAL130      0.1692
     59  C         10.6630    0.6020   -4.8140 C.2   130  VAL130      0.2592
     60  O         10.0120    0.0480   -3.9000 O.2   130  VAL130     -0.2718
     61  CB        12.6030    1.4160   -3.4480 C.3   130  VAL130      0.0266
     62  CG1       13.5890    0.4280   -4.0490 C.3   130  VAL130      0.0020
     63  CG2       13.3300    2.6560   -2.8420 C.3   130  VAL130      0.0020
     64  N         10.7120    0.1350   -6.0640 N.am  131  ASN131     -0.1960
     65  CA        10.0070   -1.0880   -6.4620 C.3   131  ASN131      0.1819
     66  C         10.7910   -2.3560   -6.1380 C.2   131  ASN131      0.2621
     67  O         11.9990   -2.3120   -5.8810 O.2   131  ASN131     -0.2715
     68  CB         9.6360   -0.9980   -7.9430 C.3   131  ASN131      0.1195
     69  CG         8.6000    0.1050   -8.2000 C.2   131  ASN131      0.2630
     70  OD1        7.3960   -0.1040   -8.0150 O.2   131  ASN131     -0.2716
     71  ND2        9.0730    1.2910   -8.5510 N.am  131  ASN131     -0.0877
     72  N         10.1260   -3.4990   -6.1580 N.am  132  ARG132     -0.1977
     73  CA        10.8300   -4.7460   -5.8570 C.3   132  ARG132      0.1597
     74  C         11.8860   -5.0770   -6.9110 C.2   132  ARG132      0.2287
     75  O         12.8820   -5.7220   -6.5890 O.2   132  ARG132     -0.2864
     76  CB         9.8500   -5.9150   -5.6490 C.3   132  ARG132      0.0334
     77  CG        10.4630   -7.2920   -5.2540 C.3   132  ARG132      0.0492
     78  CD        11.2430   -7.3020   -3.9080 C.3   132  ARG132      0.2205
     79  NE        12.5490   -6.6310   -3.9820 N.pl3 132  ARG132     -0.0865
     80  CZ        13.4980   -6.7060   -3.0430 C.cat 132  ARG132      0.5346
     81  NH1       13.3020   -7.4140   -1.9420 N.pl3 132  ARG132      0.1354
     82  NH2       14.6370   -6.0520   -3.1920 N.pl3 132  ARG132      0.1354
@<TRIPOS>BOND
     1    71    69   am
     2    69    70    2
     3    69    68    1
     4    68    65    1
     5    74    75    2
     6    74    73    1
     7    65    66    1
     8    65    64    1
     9    72    66   am
    10    72    73    1
    11    66    67    2
    12    64    59   am
    13    73    76    1
    14    76    77    1
    15    19    18    2
    16    77    78    1
    17    18    17    1
    18    59    58    1
    19    59    60    2
    20    15    13    1
    21    58    57    1
    22    58    61    1
    23    62    61    1
    24    12    11    2
    25    79    78    1
    26    79    80    2
    27    17    16    1
    28    17    20    1
    29    61    63    1
    30    13    14    1
    31    13    10    1
    32    11    16   am
    33    11    10    1
    34    82    80    1
    35    80    81    1
    36    20    21    1
    37    20    22    1
    38    10     9    1
    39     9     3   am
    40     3     2    1
    41     3     4    2
    42     2     1    1
    43     2     5    1
    44    23    24    1
    45    26    25    2
    46     7     6    2
    47     5     6    1
    48     6     8   am
    49    25    24    1
    50    24    27    1
    51    27    28    1
    52    29    28   ar
    53    29    31   ar
    54    28    30   ar
    55    33    34    1
    56    36    35    2
    57    31    32   ar
    58    40    39   ar
    59    30    32   ar
    60    37    34    1
    61    37    38    1
    62    35    34    1
    63    39    41   ar
    64    39    38    1
    65    42    43    1
    66    43    44    1
    67    51    50    1
    68    51    52    1
    69    46    47    1
    70    50    47    1
    71    44    45    2
    72    52    53    1
    73    53    54    2
    74    49    48    2
    75    47    48    1
    76    54    55    1
    77    54    56    1
