@<TRIPOS>MOLECULE
tmp/5bziA00.pdb
 82 77 0 0 0
SMALL
GASTEIGER

@<TRIPOS>ATOM
      1  N          9.5110    1.3480    0.1090 N.3     6  ASN6       -0.1225
      2  CA         9.5800    0.0950   -0.6600 C.3     6  ASN6        0.1785
      3  C          8.1700   -0.3730   -0.9050 C.2     6  ASN6        0.2597
      4  O          7.4070   -0.5130    0.0540 O.2     6  ASN6       -0.2718
      5  CB        10.3100   -1.0180    0.1090 C.3     6  ASN6        0.1169
      6  CG        11.7180   -0.6530    0.5210 C.2     6  ASN6        0.2627
      7  OD1       12.3670    0.1640   -0.0970 O.2     6  ASN6       -0.2716
      8  ND2       12.1790   -1.2560    1.6190 N.am    6  ASN6       -0.0877
      9  N          7.7980   -0.5770   -2.1590 N.am    7  VAL7       -0.1966
     10  CA         6.4140   -0.8860   -2.5200 C.3     7  VAL7        0.1727
     11  C          6.3110   -2.2290   -3.2430 C.2     7  VAL7        0.2616
     12  O          7.2640   -2.6730   -3.9040 O.2     7  VAL7       -0.2715
     13  CB         5.7870    0.2140   -3.3820 C.3     7  VAL7        0.0290
     14  CG1        5.8380    1.5550   -2.6790 C.3     7  VAL7        0.0023
     15  CG2        6.4720    0.3260   -4.7160 C.3     7  VAL7        0.0023
     16  N          5.1600   -2.8800   -3.1320 N.am    8  THR8       -0.1951
     17  CA         4.9320   -4.1380   -3.8060 C.3     8  THR8        0.1897
     18  C          4.0460   -3.9870   -5.0380 C.2     8  THR8        0.2313
     19  O          3.4830   -2.9260   -5.3180 O.2     8  THR8       -0.2863
     20  CB         4.2480   -5.1490   -2.8650 C.3     8  THR8        0.1794
     21  OG1        2.9450   -4.6620   -2.5170 O.3     8  THR8       -0.2208
     22  CG2        5.0780   -5.3710   -1.6010 C.3     8  THR8        0.0378
     23  N          1.5920   -3.2180   -0.3610 N.3    16  HIS16      -0.1241
     24  CA         2.3470   -3.0560    0.9000 C.3    16  HIS16       0.1621
     25  C          3.4100   -1.9740    0.7130 C.2    16  HIS16       0.2264
     26  O          4.0500   -1.9000   -0.3330 O.2    16  HIS16      -0.2867
     27  CB         2.9440   -4.4180    1.2300 C.3    16  HIS16       0.0745
     28  CG         3.9790   -4.4110    2.3080 C.ar   16  HIS16       0.0817
     29  ND1        5.3250   -4.4660    2.0240 N.ar   16  HIS16      -0.2268
     30  CD2        3.8850   -4.3560    3.6530 C.ar   16  HIS16       0.1154
     31  CE1        6.0200   -4.4480    3.1500 C.ar   16  HIS16       0.1986
     32  NE2        5.1680   -4.4070    4.1530 N.ar   16  HIS16      -0.2212
     33  N          6.7150   -0.2860    2.9480 N.3    18  GLU18      -0.1245
     34  CA         7.6500   -0.3460    4.0740 C.3    18  GLU18       0.1567
     35  C          8.4990    0.9210    4.0190 C.2    18  GLU18       0.2260
     36  O          9.0470    1.2450    2.9640 O.2    18  GLU18      -0.2867
     37  CB         8.5230   -1.5900    3.9100 C.3    18  GLU18       0.0388
     38  CG         9.7160   -1.7110    4.8410 C.3    18  GLU18       0.1160
     39  CD        10.6480   -2.8560    4.4310 C.2    18  GLU18       0.3649
     40  OE1       11.2260   -3.4970    5.3340 O.co2  18  GLU18      -0.2457
     41  OE2       10.8190   -3.1090    3.2140 O.co2  18  GLU18      -0.2457
     42  N         12.9480    0.4290    5.0410 N.3    21  GLY21      -0.1225
     43  CA        13.3790   -0.9520    5.2280 C.3    21  GLY21       0.1811
     44  C         13.2360   -1.5040    6.6430 C.2    21  GLY21       0.2280
     45  O         13.8980   -2.4900    6.9780 O.2    21  GLY21      -0.2866
     46  N          5.1440   -9.4740    6.4450 N.3    59  ARG59      -0.1245
     47  CA         5.3240   -8.2780    7.2860 C.3    59  ARG59       0.1563
     48  C          4.0200   -7.7840    7.8260 C.2    59  ARG59       0.2260
     49  O          3.0200   -7.7170    7.1030 O.2    59  ARG59      -0.2867
     50  CB         5.8960   -7.1270    6.4430 C.3    59  ARG59       0.0307
     51  CG         7.1920   -7.4030    5.7350 C.3    59  ARG59       0.0489
     52  CD         8.3880   -7.1980    6.6690 C.3    59  ARG59       0.2205
     53  NE         8.5050   -5.7710    7.0650 N.pl3  59  ARG59      -0.0865
     54  CZ         9.4170   -5.2760    7.9040 C.cat  59  ARG59       0.5346
     55  NH1       10.3200   -6.0820    8.4470 N.pl3  59  ARG59       0.1354
     56  NH2        9.4370   -3.9720    8.1980 N.pl3  59  ARG59       0.1354
     57  N         10.9620    2.8220   -4.0630 N.3   130  VAL130     -0.1231
     58  CA        11.8180    1.7150   -4.4810 C.3   130  VAL130      0.1692
     59  C         10.9420    0.5110   -4.7970 C.2   130  VAL130      0.2592
     60  O         10.2500   -0.0070   -3.9220 O.2   130  VAL130     -0.2718
     61  CB        12.8010    1.3490   -3.3660 C.3   130  VAL130      0.0266
     62  CG1       13.8260    0.3330   -3.8900 C.3   130  VAL130      0.0020
     63  CG2       13.5410    2.6250   -2.8760 C.3   130  VAL130      0.0020
     64  N         10.9750    0.0410   -6.0330 N.am  131  ASN131     -0.1960
     65  CA        10.2450   -1.1520   -6.4150 C.3   131  ASN131      0.1819
     66  C         11.0670   -2.4030   -6.1530 C.2   131  ASN131      0.2621
     67  O         12.2990   -2.3240   -5.9950 O.2   131  ASN131     -0.2715
     68  CB         9.9030   -1.0170   -7.8980 C.3   131  ASN131      0.1195
     69  CG         8.8540    0.0280   -8.1170 C.2   131  ASN131      0.2630
     70  OD1        7.6670   -0.2320   -7.9200 O.2   131  ASN131     -0.2716
     71  ND2        9.2740    1.2220   -8.5330 N.am  131  ASN131     -0.0877
     72  N         10.4130   -3.5630   -6.1110 N.am  132  ARG132     -0.1977
     73  CA        11.1250   -4.7980   -5.8010 C.3   132  ARG132      0.1597
     74  C         12.2030   -5.1450   -6.8490 C.2   132  ARG132      0.2287
     75  O         13.2380   -5.7410   -6.5150 O.2   132  ARG132     -0.2864
     76  CB        10.1360   -5.9540   -5.5410 C.3   132  ARG132      0.0334
     77  CG        10.7620   -7.2920   -5.1050 C.3   132  ARG132      0.0492
     78  CD        11.5200   -7.2800   -3.7830 C.3   132  ARG132      0.2205
     79  NE        12.8320   -6.6430   -3.9150 N.pl3 132  ARG132     -0.0865
     80  CZ        13.8070   -6.7070   -3.0210 C.cat 132  ARG132      0.5346
     81  NH1       14.9500   -6.0850   -3.2640 N.pl3 132  ARG132      0.1354
     82  NH2       13.6420   -7.4070   -1.9030 N.pl3 132  ARG132      0.1354
@<TRIPOS>BOND
     1    71    69   am
     2    69    70    2
     3    69    68    1
     4    68    65    1
     5    74    75    2
     6    74    73    1
     7    65    66    1
     8    65    64    1
     9    66    72   am
    10    66    67    2
    11    72    73    1
    12    64    59   am
    13    73    76    1
    14    76    77    1
    15    19    18    2
    16    77    78    1
    17    18    17    1
    18    59    58    1
    19    59    60    2
    20    15    13    1
    21    58    57    1
    22    58    61    1
    23    79    78    1
    24    79    80    2
    25    12    11    2
    26    62    61    1
    27    17    16    1
    28    17    20    1
    29    13    14    1
    30    13    10    1
    31    61    63    1
    32    81    80    1
    33    11    16   am
    34    11    10    1
    35    80    82    1
    36    20    21    1
    37    20    22    1
    38    10     9    1
    39     9     3   am
    40     3     2    1
    41     3     4    2
    42     2     1    1
    43     2     5    1
    44    23    24    1
    45    26    25    2
    46     7     6    2
    47     5     6    1
    48     6     8   am
    49    25    24    1
    50    24    27    1
    51    27    28    1
    52    29    28   ar
    53    29    31   ar
    54    28    30   ar
    55    33    34    1
    56    36    35    2
    57    31    32   ar
    58    41    39   ar
    59    30    32   ar
    60    37    34    1
    61    37    38    1
    62    35    34    1
    63    39    38    1
    64    39    40   ar
    65    42    43    1
    66    43    44    1
    67    51    50    1
    68    51    52    1
    69    50    47    1
    70    46    47    1
    71    44    45    2
    72    52    53    1
    73    53    54    2
    74    49    48    2
    75    47    48    1
    76    54    56    1
    77    54    55    1
