@<TRIPOS>MOLECULE
tmp/5bzjA00.pdb
 88 83 0 0 0
SMALL
GASTEIGER

@<TRIPOS>ATOM
      1  N          9.3630    1.3800    0.0870 N.3     6  ASN6       -0.1225
      2  CA         9.4430    0.1310   -0.6950 C.3     6  ASN6        0.1785
      3  C          8.0210   -0.3660   -0.9460 C.2     6  ASN6        0.2597
      4  O          7.2860   -0.5540   -0.0010 O.2     6  ASN6       -0.2718
      5  CB        10.1790   -0.9570    0.0480 C.3     6  ASN6        0.1169
      6  CG        11.5890   -0.5850    0.4430 C.2     6  ASN6        0.2627
      7  OD1       12.2750    0.2030   -0.2120 O.2     6  ASN6       -0.2716
      8  ND2       12.0290   -1.1610    1.5770 N.am    6  ASN6       -0.0877
      9  N          7.6480   -0.5330   -2.2030 N.am    7  VAL7       -0.1966
     10  CA         6.2670   -0.8050   -2.5590 C.3     7  VAL7        0.1727
     11  C          6.1480   -2.1460   -3.2850 C.2     7  VAL7        0.2616
     12  O          7.0750   -2.5750   -3.9750 O.2     7  VAL7       -0.2715
     13  CB         5.6870    0.3330   -3.4070 C.3     7  VAL7        0.0290
     14  CG1        5.7630    1.6700   -2.7060 C.3     7  VAL7        0.0023
     15  CG2        6.3430    0.4230   -4.7650 C.3     7  VAL7        0.0023
     16  N          5.0040   -2.8090   -3.1380 N.am    8  THR8       -0.1951
     17  CA         4.7900   -4.0790   -3.8100 C.3     8  THR8        0.1897
     18  C          3.9340   -3.9260   -5.0670 C.2     8  THR8        0.2313
     19  O          3.3600   -2.8670   -5.3280 O.2     8  THR8       -0.2863
     20  CB         4.0640   -5.0950   -2.8910 C.3     8  THR8        0.1794
     21  OG1        2.7570   -4.6040   -2.5650 O.3     8  THR8       -0.2208
     22  CG2        4.8580   -5.4010   -1.5950 C.3     8  THR8        0.0378
     23  N          1.4680   -3.1510   -0.3690 N.3    16  HIS16      -0.1241
     24  CA         2.2220   -3.0050    0.8820 C.3    16  HIS16       0.1621
     25  C          3.2950   -1.9360    0.6750 C.2    16  HIS16       0.2264
     26  O          3.9460   -1.8540   -0.3900 O.2    16  HIS16      -0.2867
     27  CB         2.7910   -4.3590    1.2130 C.3    16  HIS16       0.0745
     28  CG         3.8250   -4.3610    2.3080 C.ar   16  HIS16       0.0817
     29  ND1        5.1630   -4.6050    2.0730 N.ar   16  HIS16      -0.2268
     30  CD2        3.7090   -4.1810    3.6480 C.ar   16  HIS16       0.1154
     31  CE1        5.8330   -4.5370    3.2140 C.ar   16  HIS16       0.1986
     32  NE2        4.9790   -4.2810    4.1820 N.ar   16  HIS16      -0.2212
     33  N          6.5730   -0.2730    2.9380 N.3    18  GLU18      -0.1245
     34  CA         7.4420   -0.1240    4.1070 C.3    18  GLU18       0.1567
     35  C          8.3180    1.0860    3.9800 C.2    18  GLU18       0.2260
     36  O          8.8600    1.3720    2.9140 O.2    18  GLU18      -0.2867
     37  CB         8.2500   -1.3950    4.3560 C.3    18  GLU18       0.0388
     38  CG         8.8640   -1.9600    3.1780 C.3    18  GLU18       0.1160
     39  CD         9.6950   -3.2020    3.4860 C.2    18  GLU18       0.3649
     40  OE1        9.1340   -4.2280    3.9580 O.co2  18  GLU18      -0.2457
     41  OE2       10.9050   -3.1430    3.2030 O.co2  18  GLU18      -0.2457
     42  N         12.5360    0.2000    4.8690 N.3    21  GLY21      -0.1225
     43  CA        12.7480   -1.2270    5.0320 C.3    21  GLY21       0.1811
     44  C         12.6970   -1.7070    6.4810 C.2    21  GLY21       0.2280
     45  O         13.1710   -2.8080    6.7490 O.2    21  GLY21      -0.2866
     46  N          5.2110  -11.0080    4.1960 N.3    58  CYS58      -0.1221
     47  CA         5.6770  -11.5410    5.4700 C.3    58  CYS58       0.1808
     48  C          5.8980  -10.3580    6.4060 C.2    58  CYS58       0.2601
     49  O          6.8790  -10.3590    7.1670 O.2    58  CYS58      -0.2717
     50  CB         6.9740  -12.3330    5.2630 C.3    58  CYS58       0.0970
     51  SG         7.4580  -13.3130    6.7170 S.3    58  CYS58      -0.0800
     52  N          5.0290   -9.3540    6.3660 N.am   59  ARG59      -0.1979
     53  CA         5.2020   -8.1490    7.1730 C.3    59  ARG59       0.1597
     54  C          3.9030   -7.6610    7.7370 C.2    59  ARG59       0.2287
     55  O          2.8980   -7.5970    7.0160 O.2    59  ARG59      -0.2864
     56  CB         5.7340   -7.0040    6.2880 C.3    59  ARG59       0.0334
     57  CG         7.1190   -7.2510    5.7380 C.3    59  ARG59       0.0492
     58  CD         8.2280   -7.0430    6.7960 C.3    59  ARG59       0.2205
     59  NE         8.3650   -5.6100    7.1350 N.pl3  59  ARG59      -0.0865
     60  CZ         9.2470   -5.1220    8.0080 C.cat  59  ARG59       0.5346
     61  NH1       10.1010   -5.9410    8.6390 N.pl3  59  ARG59       0.1354
     62  NH2        9.3130   -3.8000    8.2020 N.pl3  59  ARG59       0.1354
     63  N         10.6980    2.8730   -4.1420 N.3   130  VAL130     -0.1231
     64  CA        11.5770    1.7680   -4.5280 C.3   130  VAL130      0.1692
     65  C         10.7170    0.5450   -4.8490 C.2   130  VAL130      0.2592
     66  O         10.0170    0.0370   -3.9610 O.2   130  VAL130     -0.2718
     67  CB        12.5980    1.4400   -3.4180 C.3   130  VAL130      0.0266
     68  CG1       13.5890    0.4130   -3.9450 C.3   130  VAL130      0.0020
     69  CG2       13.3060    2.6890   -2.9230 C.3   130  VAL130      0.0020
     70  N         10.7390    0.1040   -6.1140 N.am  131  ASN131     -0.1960
     71  CA        10.0460   -1.0940   -6.5040 C.3   131  ASN131      0.1819
     72  C         10.8710   -2.3230   -6.2460 C.2   131  ASN131      0.2621
     73  O         12.1030   -2.2250   -6.0920 O.2   131  ASN131     -0.2715
     74  CB         9.6870   -0.9650   -7.9920 C.3   131  ASN131      0.1195
     75  CG         8.6600    0.1150   -8.2160 C.2   131  ASN131      0.2630
     76  OD1        7.4390   -0.1220   -8.0000 O.2   131  ASN131     -0.2716
     77  ND2        9.0960    1.3130   -8.5970 N.am  131  ASN131     -0.0877
     78  N         10.2620   -3.5060   -6.2020 N.am  132  ARG132     -0.1977
     79  CA        10.9880   -4.7170   -5.9060 C.3   132  ARG132      0.1597
     80  C         11.9870   -5.0560   -6.9940 C.2   132  ARG132      0.2287
     81  O         13.0270   -5.6520   -6.6840 O.2   132  ARG132     -0.2864
     82  CB         9.9910   -5.8520   -5.5740 C.3   132  ARG132      0.0334
     83  CG        10.5660   -7.1990   -5.1820 C.3   132  ARG132      0.0492
     84  CD        11.3770   -7.2120   -3.8900 C.3   132  ARG132      0.2205
     85  NE        12.7170   -6.6080   -4.0470 N.pl3 132  ARG132     -0.0865
     86  CZ        13.7130   -6.7220   -3.1690 C.cat 132  ARG132      0.5346
     87  NH1       13.5610   -7.4500   -2.0640 N.pl3 132  ARG132      0.1354
     88  NH2       14.8600   -6.1230   -3.4280 N.pl3 132  ARG132      0.1354
@<TRIPOS>BOND
     1    77    75   am
     2    75    76    2
     3    75    74    1
     4    74    71    1
     5    80    81    2
     6    80    79    1
     7    71    72    1
     8    71    70    1
     9    72    78   am
    10    72    73    2
    11    78    79    1
    12    70    65   am
    13    79    82    1
    14    82    83    1
    15    19    18    2
    16    83    84    1
    17    18    17    1
    18    65    64    1
    19    65    66    2
    20    15    13    1
    21    64    63    1
    22    64    67    1
    23    85    84    1
    24    85    86    2
    25    12    11    2
    26    68    67    1
    27    17    16    1
    28    17    20    1
    29    88    86    1
    30    67    69    1
    31    13    14    1
    32    13    10    1
    33    11    16   am
    34    11    10    1
    35    86    87    1
    36    20    21    1
    37    20    22    1
    38    10     9    1
    39     9     3   am
    40     3     2    1
    41     3     4    2
    42     2     5    1
    43     2     1    1
    44    26    25    2
    45    23    24    1
    46     7     6    2
    47     5     6    1
    48     6     8   am
    49    25    24    1
    50    24    27    1
    51    27    28    1
    52    29    28   ar
    53    29    31   ar
    54    28    30   ar
    55    36    35    2
    56    33    34    1
    57    38    39    1
    58    38    37    1
    59    41    39   ar
    60    31    32   ar
    61    39    40   ar
    62    30    32   ar
    63    35    34    1
    64    34    37    1
    65    46    47    1
    66    42    43    1
    67    43    44    1
    68    50    47    1
    69    50    51    1
    70    47    48    1
    71    57    56    1
    72    57    58    1
    73    56    53    1
    74    52    48   am
    75    52    53    1
    76    48    49    2
    77    44    45    2
    78    58    59    1
    79    55    54    2
    80    59    60    2
    81    53    54    1
    82    60    62    1
    83    60    61    1
