@<TRIPOS>MOLECULE
tmp/5bzlA00.pdb
 104 99 0 0 0
SMALL
GASTEIGER

@<TRIPOS>ATOM
      1  N          9.4850    1.3200    0.0660 N.3     6  ASN6       -0.1225
      2  CA         9.5850    0.0830   -0.6990 C.3     6  ASN6        0.1785
      3  C          8.1860   -0.4260   -0.9460 C.2     6  ASN6        0.2597
      4  O          7.4410   -0.6750    0.0290 O.2     6  ASN6       -0.2718
      5  CB        10.3570   -0.9680    0.0920 C.3     6  ASN6        0.1169
      6  CG        11.7630   -0.5480    0.4220 C.2     6  ASN6        0.2627
      7  OD1       12.3770    0.2580   -0.2670 O.2     6  ASN6       -0.2716
      8  ND2       12.2980   -1.1360    1.4860 N.am    6  ASN6       -0.0877
      9  N          7.8000   -0.5850   -2.2020 N.am    7  VAL7       -0.1966
     10  CA         6.4110   -0.8900   -2.5660 C.3     7  VAL7        0.1727
     11  C          6.3060   -2.2310   -3.2980 C.2     7  VAL7        0.2616
     12  O          7.2570   -2.6570   -3.9840 O.2     7  VAL7       -0.2715
     13  CB         5.7880    0.2290   -3.4230 C.3     7  VAL7        0.0290
     14  CG1        5.8560    1.5550   -2.6970 C.3     7  VAL7        0.0023
     15  CG2        6.4760    0.3660   -4.7660 C.3     7  VAL7        0.0023
     16  N          5.1570   -2.8940   -3.1950 N.am    8  THR8       -0.1951
     17  CA         4.9160   -4.1570   -3.8720 C.3     8  THR8        0.1897
     18  C          4.0580   -3.9880   -5.1230 C.2     8  THR8        0.2313
     19  O          3.4920   -2.9340   -5.3770 O.2     8  THR8       -0.2863
     20  CB         4.1830   -5.1620   -2.9370 C.3     8  THR8        0.1794
     21  OG1        2.8790   -4.6620   -2.5980 O.3     8  THR8       -0.2208
     22  CG2        4.9760   -5.4010   -1.6680 C.3     8  THR8        0.0378
     23  N          1.5480   -3.1970   -0.4060 N.3    16  HIS16      -0.1241
     24  CA         2.3020   -3.0430    0.8510 C.3    16  HIS16       0.1621
     25  C          3.3970   -1.9980    0.6650 C.2    16  HIS16       0.2264
     26  O          4.0340   -1.9220   -0.4160 O.2    16  HIS16      -0.2867
     27  CB         2.8790   -4.4100    1.2280 C.3    16  HIS16       0.0745
     28  CG         3.9160   -4.3880    2.3070 C.ar   16  HIS16       0.0817
     29  ND1        5.2620   -4.3160    2.0360 N.ar   16  HIS16      -0.2268
     30  CD2        3.8120   -4.4540    3.6550 C.ar   16  HIS16       0.1154
     31  CE1        5.9450   -4.3460    3.1670 C.ar   16  HIS16       0.1986
     32  NE2        5.0870   -4.4400    4.1650 N.ar   16  HIS16      -0.2212
     33  N          6.7630   -0.3890    2.9160 N.3    18  GLU18      -0.1245
     34  CA         7.6350   -0.2600    4.0890 C.3    18  GLU18       0.1567
     35  C          8.4810    0.9880    3.9750 C.2    18  GLU18       0.2260
     36  O          8.9730    1.3230    2.8880 O.2    18  GLU18      -0.2867
     37  CB         8.5120   -1.4850    4.2890 C.3    18  GLU18       0.0388
     38  CG         9.4770   -1.7950    3.2470 C.3    18  GLU18       0.1160
     39  CD        10.1610   -3.1240    3.4920 C.2    18  GLU18       0.3649
     40  OE1        9.7340   -3.9000    4.3800 O.co2  18  GLU18      -0.2457
     41  OE2       11.1160   -3.3920    2.7730 O.co2  18  GLU18      -0.2457
     42  N         12.6610    0.1780    4.8740 N.3    21  GLY21      -0.1225
     43  CA        12.8830   -1.2520    5.0270 C.3    21  GLY21       0.1811
     44  C         12.9030   -1.7680    6.4620 C.2    21  GLY21       0.2280
     45  O         13.4980   -2.8250    6.7260 O.2    21  GLY21      -0.2866
     46  N          0.4000  -12.0010   -0.8660 N.3    56  GLU56      -0.1231
     47  CA         0.8680  -12.3810    0.4500 C.3    56  GLU56       0.1699
     48  C          2.1540  -11.6550    0.7730 C.2    56  GLU56       0.2593
     49  O          2.8990  -11.2730   -0.1360 O.2    56  GLU56      -0.2718
     50  CB         1.0010  -13.8960    0.6060 C.3    56  GLU56       0.0402
     51  CG         2.0770  -14.5380   -0.2340 C.3    56  GLU56       0.1161
     52  CD         2.3290  -16.0190    0.1330 C.2    56  GLU56       0.3649
     53  OE1        1.8120  -16.5550    1.1330 O.co2  56  GLU56      -0.2457
     54  OE2        3.1030  -16.6480   -0.6000 O.co2  56  GLU56      -0.2457
     55  N          2.3730  -11.4110    2.0610 N.am   57  THR57      -0.1939
     56  CA         3.6390  -10.8210    2.5120 C.3    57  THR57       0.2028
     57  C          4.0890  -11.5790    3.7590 C.2    57  THR57       0.2642
     58  O          3.3620  -12.4050    4.3140 O.2    57  THR57      -0.2714
     59  CB         3.5070   -9.3330    2.9160 C.3    57  THR57       0.1808
     60  OG1        2.8910   -9.2610    4.2050 O.3    57  THR57      -0.2208
     61  CG2        2.7080   -8.5260    1.8860 C.3    57  THR57       0.0379
     62  N          5.2540  -11.1970    4.2750 N.am   58  CYS58      -0.1953
     63  CA         5.6860  -11.6820    5.5700 C.3    58  CYS58       0.1843
     64  C          5.8890  -10.5310    6.5340 C.2    58  CYS58       0.2625
     65  O          6.8240  -10.5390    7.3430 O.2    58  CYS58      -0.2714
     66  CB         6.9690  -12.5100    5.4420 C.3    58  CYS58       0.0997
     67  SG         7.3920  -13.5030    6.9440 S.3    58  CYS58      -0.0797
     68  N          5.0030   -9.5320    6.4600 N.am   59  ARG59      -0.1977
     69  CA         5.1720   -8.3050    7.2310 C.3    59  ARG59       0.1597
     70  C          3.8590   -7.8320    7.8080 C.2    59  ARG59       0.2287
     71  O          2.8350   -7.7800    7.1130 O.2    59  ARG59      -0.2864
     72  CB         5.6840   -7.1800    6.3190 C.3    59  ARG59       0.0334
     73  CG         7.0640   -7.3820    5.7190 C.3    59  ARG59       0.0492
     74  CD         8.1950   -7.2100    6.7730 C.3    59  ARG59       0.2205
     75  NE         8.4050   -5.7760    7.0620 N.pl3  59  ARG59      -0.0865
     76  CZ         9.3240   -5.2700    7.8940 C.cat  59  ARG59       0.5346
     77  NH1       10.1450   -6.0720    8.5480 N.pl3  59  ARG59       0.1354
     78  NH2        9.4230   -3.9530    8.0830 N.pl3  59  ARG59       0.1354
     79  N         10.8890    2.8110   -4.1590 N.3   130  VAL130     -0.1231
     80  CA        11.7550    1.7150   -4.5830 C.3   130  VAL130      0.1692
     81  C         10.8840    0.5070   -4.8890 C.2   130  VAL130      0.2592
     82  O         10.1820    0.0010   -4.0020 O.2   130  VAL130     -0.2718
     83  CB        12.7710    1.3610   -3.4830 C.3   130  VAL130      0.0266
     84  CG1       13.7980    0.3560   -4.0020 C.3   130  VAL130      0.0020
     85  CG2       13.4810    2.6250   -2.9410 C.3   130  VAL130      0.0020
     86  N         10.9070    0.0640   -6.1360 N.am  131  ASN131     -0.1960
     87  CA        10.2170   -1.1300   -6.5630 C.3   131  ASN131      0.1819
     88  C         11.0400   -2.3670   -6.2710 C.2   131  ASN131      0.2621
     89  O         12.2560   -2.2800   -6.0770 O.2   131  ASN131     -0.2715
     90  CB         9.8840   -0.9960   -8.0360 C.3   131  ASN131      0.1195
     91  CG         8.8330    0.0530   -8.2590 C.2   131  ASN131      0.2630
     92  OD1        7.6310   -0.2080   -8.0720 O.2   131  ASN131     -0.2716
     93  ND2        9.2460    1.2440   -8.6460 N.am  131  ASN131     -0.0877
     94  N         10.4000   -3.5300   -6.2390 N.am  132  ARG132     -0.1977
     95  CA        11.1120   -4.7430   -5.9130 C.3   132  ARG132      0.1597
     96  C         12.1550   -5.0970   -6.9910 C.2   132  ARG132      0.2287
     97  O         13.1840   -5.6920   -6.6810 O.2   132  ARG132     -0.2864
     98  CB        10.1180   -5.8840   -5.6160 C.3   132  ARG132      0.0334
     99  CG        10.7260   -7.2490   -5.2280 C.3   132  ARG132      0.0492
    100  CD        11.5100   -7.3000   -3.9200 C.3   132  ARG132      0.2205
    101  NE        12.8180   -6.6580   -4.0490 N.pl3 132  ARG132     -0.0865
    102  CZ        13.7840   -6.7180   -3.1440 C.cat 132  ARG132      0.5346
    103  NH1       13.6320   -7.4580   -2.0490 N.pl3 132  ARG132      0.1354
    104  NH2       14.9170   -6.0770   -3.3720 N.pl3 132  ARG132      0.1354
@<TRIPOS>BOND
     1    93    91   am
     2    91    92    2
     3    91    90    1
     4    90    87    1
     5    96    97    2
     6    96    95    1
     7    87    88    1
     8    87    86    1
     9    88    94   am
    10    88    89    2
    11    94    95    1
    12    86    81   am
    13    95    98    1
    14    98    99    1
    15    19    18    2
    16    99   100    1
    17    18    17    1
    18    81    80    1
    19    81    82    2
    20    15    13    1
    21    80    79    1
    22    80    83    1
    23   101   100    1
    24   101   102    2
    25    84    83    1
    26    12    11    2
    27    17    16    1
    28    17    20    1
    29    83    85    1
    30    13    14    1
    31    13    10    1
    32   104   102    1
    33    11    16   am
    34    11    10    1
    35   102   103    1
    36    20    21    1
    37    20    22    1
    38    10     9    1
    39     9     3   am
    40     3     2    1
    41     3     4    2
    42    46    47    1
    43     2     1    1
    44     2     5    1
    45    54    52   ar
    46    26    25    2
    47    23    24    1
    48     7     6    2
    49    51    52    1
    50    51    50    1
    51    49    48    2
    52     5     6    1
    53    52    53   ar
    54     6     8   am
    55    47    50    1
    56    47    48    1
    57    25    24    1
    58    48    55   am
    59    24    27    1
    60    27    28    1
    61    61    59    1
    62    29    28   ar
    63    29    31   ar
    64    55    56    1
    65    28    30   ar
    66    56    59    1
    67    56    57    1
    68    41    39   ar
    69    36    35    2
    70    59    60    1
    71    33    34    1
    72    31    32   ar
    73    38    39    1
    74    38    37    1
    75    39    40   ar
    76    30    32   ar
    77    57    62   am
    78    57    58    2
    79    35    34    1
    80    34    37    1
    81    62    63    1
    82    42    43    1
    83    43    44    1
    84    66    63    1
    85    66    67    1
    86    63    64    1
    87    73    72    1
    88    73    74    1
    89    72    69    1
    90    68    64   am
    91    68    69    1
    92    44    45    2
    93    64    65    2
    94    74    75    1
    95    75    76    2
    96    71    70    2
    97    69    70    1
    98    76    78    1
    99    76    77    1
