@<TRIPOS>MOLECULE
tmp/5bzmA00.pdb
 88 83 0 0 0
SMALL
GASTEIGER

@<TRIPOS>ATOM
      1  N          9.4380    1.3850   -0.0570 N.3     6  ASN6       -0.1225
      2  CA         9.4890    0.1590   -0.8480 C.3     6  ASN6        0.1785
      3  C          8.0810   -0.3510   -1.0640 C.2     6  ASN6        0.2597
      4  O          7.3540   -0.5110   -0.0810 O.2     6  ASN6       -0.2718
      5  CB        10.2800   -0.9290   -0.1130 C.3     6  ASN6        0.1169
      6  CG        11.6890   -0.5100    0.2840 C.2     6  ASN6        0.2627
      7  OD1       12.3450    0.2920   -0.3810 O.2     6  ASN6       -0.2716
      8  ND2       12.1490   -1.0660    1.4000 N.am    6  ASN6       -0.0877
      9  N          7.6930   -0.5670   -2.3110 N.am    7  VAL7       -0.1966
     10  CA         6.3080   -0.8650   -2.6390 C.3     7  VAL7        0.1727
     11  C          6.2080   -2.2180   -3.3460 C.2     7  VAL7        0.2616
     12  O          7.1540   -2.6350   -4.0340 O.2     7  VAL7       -0.2715
     13  CB         5.6840    0.2450   -3.4950 C.3     7  VAL7        0.0290
     14  CG1        5.7500    1.5990   -2.8120 C.3     7  VAL7        0.0023
     15  CG2        6.3410    0.3780   -4.8330 C.3     7  VAL7        0.0023
     16  N          5.0540   -2.8820   -3.2350 N.am    8  THR8       -0.1951
     17  CA         4.8560   -4.1520   -3.9090 C.3     8  THR8        0.1897
     18  C          4.0100   -3.9930   -5.1700 C.2     8  THR8        0.2313
     19  O          3.4510   -2.9320   -5.4350 O.2     8  THR8       -0.2863
     20  CB         4.1670   -5.1810   -2.9720 C.3     8  THR8        0.1794
     21  OG1        2.8460   -4.7270   -2.6320 O.3     8  THR8       -0.2208
     22  CG2        4.9850   -5.3960   -1.6970 C.3     8  THR8        0.0378
     23  N          1.5430   -3.2390   -0.4370 N.3    16  HIS16      -0.1241
     24  CA         2.2850   -3.0650    0.8080 C.3    16  HIS16       0.1621
     25  C          3.3470   -1.9820    0.5870 C.2    16  HIS16       0.2264
     26  O          3.9920   -1.8950   -0.4650 O.2    16  HIS16      -0.2867
     27  CB         2.8730   -4.4150    1.1500 C.3    16  HIS16       0.0745
     28  CG         3.9180   -4.3820    2.2360 C.ar   16  HIS16       0.0817
     29  ND1        5.2750   -4.4060    1.9720 N.ar   16  HIS16      -0.2268
     30  CD2        3.8050   -4.3500    3.5850 C.ar   16  HIS16       0.1154
     31  CE1        5.9430   -4.3950    3.1170 C.ar   16  HIS16       0.1986
     32  NE2        5.0710   -4.3720    4.1040 N.ar   16  HIS16      -0.2212
     33  N          6.6170   -0.2790    2.8230 N.3    18  GLU18      -0.1245
     34  CA         7.4780   -0.1440    3.9960 C.3    18  GLU18       0.1567
     35  C          8.3980    1.0430    3.8850 C.2    18  GLU18       0.2260
     36  O          8.9110    1.3530    2.8130 O.2    18  GLU18      -0.2867
     37  CB         8.2560   -1.4100    4.2310 C.3    18  GLU18       0.0388
     38  CG         9.1710   -1.7090    3.1600 C.3    18  GLU18       0.1160
     39  CD         9.7450   -3.0860    3.2520 C.2    18  GLU18       0.3649
     40  OE1        9.1510   -3.9500    3.9500 O.co2  18  GLU18      -0.2457
     41  OE2       10.7910   -3.3100    2.6120 O.co2  18  GLU18      -0.2457
     42  N         12.6050    0.1610    4.6930 N.3    21  GLY21      -0.1225
     43  CA        12.7640   -1.2970    4.8260 C.3    21  GLY21       0.1811
     44  C         12.6900   -1.8750    6.2480 C.2    21  GLY21       0.2280
     45  O         13.0200   -3.0700    6.4630 O.2    21  GLY21      -0.2866
     46  N          5.2720  -11.0900    4.1630 N.3    58  CYS58      -0.1221
     47  CA         5.7010  -11.6000    5.4560 C.3    58  CYS58       0.1808
     48  C          5.8870  -10.4530    6.4210 C.2    58  CYS58       0.2601
     49  O          6.8180  -10.4610    7.2240 O.2    58  CYS58      -0.2717
     50  CB         6.9850  -12.4150    5.3050 C.3    58  CYS58       0.0970
     51  SG         7.4760  -13.4010    6.7540 S.3    58  CYS58      -0.0800
     52  N          5.0200   -9.4500    6.3480 N.am   59  ARG59      -0.1979
     53  CA         5.2020   -8.2310    7.1350 C.3    59  ARG59       0.1597
     54  C          3.9110   -7.7490    7.7160 C.2    59  ARG59       0.2287
     55  O          2.8980   -7.6800    6.9880 O.2    59  ARG59      -0.2864
     56  CB         5.7210   -7.0880    6.2490 C.3    59  ARG59       0.0334
     57  CG         7.0420   -7.3420    5.6060 C.3    59  ARG59       0.0492
     58  CD         8.1850   -7.2430    6.6210 C.3    59  ARG59       0.2205
     59  NE         8.3820   -5.8240    6.9940 N.pl3  59  ARG59      -0.0865
     60  CZ         9.3250   -5.3360    7.8200 C.cat  59  ARG59       0.5346
     61  NH1       10.1850   -6.1510    8.3970 N.pl3  59  ARG59       0.1354
     62  NH2        9.3990   -4.0290    8.0780 N.pl3  59  ARG59       0.1354
     63  N         10.7470    2.8310   -4.2700 N.3   130  VAL130     -0.1231
     64  CA        11.6160    1.7270   -4.6810 C.3   130  VAL130      0.1692
     65  C         10.7700    0.5110   -4.9840 C.2   130  VAL130      0.2592
     66  O         10.0460    0.0210   -4.1210 O.2   130  VAL130     -0.2718
     67  CB        12.6370    1.3920   -3.5660 C.3   130  VAL130      0.0266
     68  CG1       13.6690    0.3940   -4.0750 C.3   130  VAL130      0.0020
     69  CG2       13.3560    2.6470   -3.0820 C.3   130  VAL130      0.0020
     70  N         10.7880    0.0690   -6.2300 N.am  131  ASN131     -0.1960
     71  CA        10.0910   -1.1200   -6.6300 C.3   131  ASN131      0.1819
     72  C         10.8920   -2.3580   -6.3440 C.2   131  ASN131      0.2621
     73  O         12.1190   -2.2900   -6.1770 O.2   131  ASN131     -0.2715
     74  CB         9.7450   -0.9960   -8.1020 C.3   131  ASN131      0.1195
     75  CG         8.7010    0.0650   -8.3380 C.2   131  ASN131      0.2630
     76  OD1        7.4880   -0.1810   -8.1540 O.2   131  ASN131     -0.2716
     77  ND2        9.1220    1.2630   -8.6790 N.am  131  ASN131     -0.0877
     78  N         10.2550   -3.5140   -6.3000 N.am  132  ARG132     -0.1977
     79  CA        10.9500   -4.7570   -5.9760 C.3   132  ARG132      0.1597
     80  C         11.9830   -5.1060   -7.0490 C.2   132  ARG132      0.2287
     81  O         13.0180   -5.7100   -6.7430 O.2   132  ARG132     -0.2864
     82  CB         9.9540   -5.9100   -5.7040 C.3   132  ARG132      0.0334
     83  CG        10.5360   -7.2620   -5.2120 C.3   132  ARG132      0.0492
     84  CD        11.3450   -7.2210   -3.9190 C.3   132  ARG132      0.2205
     85  NE        12.6780   -6.6270   -4.0930 N.pl3 132  ARG132     -0.0865
     86  CZ        13.6530   -6.6550   -3.1910 C.cat 132  ARG132      0.5346
     87  NH1       13.5120   -7.3130   -2.0490 N.pl3 132  ARG132      0.1354
     88  NH2       14.8060   -6.0700   -3.4720 N.pl3 132  ARG132      0.1354
@<TRIPOS>BOND
     1    77    75   am
     2    75    76    2
     3    75    74    1
     4    74    71    1
     5    80    81    2
     6    80    79    1
     7    71    72    1
     8    71    70    1
     9    72    78   am
    10    72    73    2
    11    78    79    1
    12    70    65   am
    13    79    82    1
    14    82    83    1
    15    19    18    2
    16    83    84    1
    17    18    17    1
    18    65    64    1
    19    65    66    2
    20    15    13    1
    21    64    63    1
    22    64    67    1
    23    85    84    1
    24    85    86    2
    25    68    67    1
    26    12    11    2
    27    17    16    1
    28    17    20    1
    29    67    69    1
    30    13    14    1
    31    13    10    1
    32    88    86    1
    33    11    16   am
    34    11    10    1
    35    86    87    1
    36    20    21    1
    37    20    22    1
    38    10     9    1
    39     9     3   am
    40     3     2    1
    41     3     4    2
    42     2     5    1
    43     2     1    1
    44    26    25    2
    45    23    24    1
    46     7     6    2
    47     5     6    1
    48     6     8   am
    49    25    24    1
    50    24    27    1
    51    27    28    1
    52    29    28   ar
    53    29    31   ar
    54    28    30   ar
    55    41    39   ar
    56    36    35    2
    57    33    34    1
    58    31    32   ar
    59    38    39    1
    60    38    37    1
    61    39    40   ar
    62    30    32   ar
    63    35    34    1
    64    34    37    1
    65    46    47    1
    66    42    43    1
    67    43    44    1
    68    50    47    1
    69    50    51    1
    70    47    48    1
    71    57    56    1
    72    57    58    1
    73    44    45    2
    74    56    53    1
    75    52    48   am
    76    52    53    1
    77    48    49    2
    78    58    59    1
    79    55    54    2
    80    59    60    2
    81    53    54    1
    82    60    62    1
    83    60    61    1
