@<TRIPOS>MOLECULE
tmp/5bznA00.pdb
 104 99 0 0 0
SMALL
GASTEIGER

@<TRIPOS>ATOM
      1  N          9.3940    1.4350   -0.0320 N.3     6  ASN6       -0.1225
      2  CA         9.4740    0.2030   -0.8150 C.3     6  ASN6        0.1785
      3  C          8.0650   -0.3060   -1.0550 C.2     6  ASN6        0.2597
      4  O          7.3190   -0.5090   -0.0790 O.2     6  ASN6       -0.2718
      5  CB        10.2590   -0.8550   -0.0520 C.3     6  ASN6        0.1169
      6  CG        11.6640   -0.4260    0.2820 C.2     6  ASN6        0.2627
      7  OD1       12.2710    0.3870   -0.4120 O.2     6  ASN6       -0.2716
      8  ND2       12.2060   -1.0150    1.3480 N.am    6  ASN6       -0.0877
      9  N          7.6760   -0.5090   -2.3060 N.am    7  VAL7       -0.1966
     10  CA         6.2870   -0.8080   -2.6550 C.3     7  VAL7        0.1727
     11  C          6.2050   -2.1440   -3.3590 C.2     7  VAL7        0.2616
     12  O          7.0910   -2.5010   -4.1540 O.2     7  VAL7       -0.2715
     13  CB         5.6660    0.3190   -3.5130 C.3     7  VAL7        0.0290
     14  CG1        5.6990    1.6470   -2.7860 C.3     7  VAL7        0.0023
     15  CG2        6.3550    0.4490   -4.8640 C.3     7  VAL7        0.0023
     16  N          5.1280   -2.8810   -3.1150 N.am    8  THR8       -0.1951
     17  CA         4.8840   -4.1330   -3.8140 C.3     8  THR8        0.1897
     18  C          4.0220   -3.9500   -5.0640 C.2     8  THR8        0.2313
     19  O          3.4470   -2.8870   -5.3140 O.2     8  THR8       -0.2863
     20  CB         4.1660   -5.1610   -2.9020 C.3     8  THR8        0.1794
     21  OG1        2.8530   -4.6840   -2.5810 O.3     8  THR8       -0.2208
     22  CG2        4.9380   -5.3920   -1.6200 C.3     8  THR8        0.0378
     23  N          1.5220   -3.2000   -0.4100 N.3    16  HIS16      -0.1241
     24  CA         2.2600   -3.0130    0.8330 C.3    16  HIS16       0.1621
     25  C          3.3210   -1.9520    0.6090 C.2    16  HIS16       0.2264
     26  O          3.9550   -1.8920   -0.4590 O.2    16  HIS16      -0.2867
     27  CB         2.8600   -4.3660    1.2360 C.3    16  HIS16       0.0745
     28  CG         3.8850   -4.3000    2.3170 C.ar   16  HIS16       0.0817
     29  ND1        5.2180   -4.0510    2.0690 N.ar   16  HIS16      -0.2268
     30  CD2        3.7830   -4.4980    3.6510 C.ar   16  HIS16       0.1154
     31  CE1        5.8890   -4.0970    3.2050 C.ar   16  HIS16       0.1986
     32  NE2        5.0420   -4.3800    4.1800 N.ar   16  HIS16      -0.2212
     33  N          6.6360   -0.2990    2.8690 N.3    18  GLU18      -0.1245
     34  CA         7.4980   -0.1420    4.0390 C.3    18  GLU18       0.1567
     35  C          8.3640    1.0850    3.9030 C.2    18  GLU18       0.2260
     36  O          8.8310    1.4090    2.8140 O.2    18  GLU18      -0.2867
     37  CB         8.3300   -1.3760    4.2880 C.3    18  GLU18       0.0388
     38  CG         9.2000   -1.7310    3.1830 C.3    18  GLU18       0.1160
     39  CD         9.8890   -3.0640    3.3840 C.2    18  GLU18       0.3649
     40  OE1        9.6100   -3.7590    4.3930 O.co2  18  GLU18      -0.2457
     41  OE2       10.7160   -3.4270    2.5210 O.co2  18  GLU18      -0.2457
     42  N         12.5540    0.1480    4.8410 N.3    21  GLY21      -0.1225
     43  CA        12.7330   -1.3030    4.9270 C.3    21  GLY21       0.1811
     44  C         12.6760   -1.8970    6.3290 C.2    21  GLY21       0.2280
     45  O         13.1870   -3.0120    6.5480 O.2    21  GLY21      -0.2866
     46  N          0.3380  -11.9780   -0.8570 N.3    56  GLU56      -0.1231
     47  CA         0.7740  -12.3660    0.4730 C.3    56  GLU56       0.1699
     48  C          2.0680  -11.6570    0.8060 C.2    56  GLU56       0.2593
     49  O          2.8480  -11.2900   -0.1160 O.2    56  GLU56      -0.2718
     50  CB         0.9050  -13.8830    0.6280 C.3    56  GLU56       0.0402
     51  CG         1.9980  -14.5460   -0.1920 C.3    56  GLU56       0.1161
     52  CD         2.2400  -16.0200    0.2160 C.2    56  GLU56       0.3649
     53  OE1        1.6470  -16.5400    1.1820 O.co2  56  GLU56      -0.2457
     54  OE2        3.0970  -16.6670   -0.4070 O.co2  56  GLU56      -0.2457
     55  N          2.2740  -11.3980    2.0910 N.am   57  THR57      -0.1939
     56  CA         3.5620  -10.8730    2.5530 C.3    57  THR57       0.2028
     57  C          3.9150  -11.6070    3.8260 C.2    57  THR57       0.2642
     58  O          3.1270  -12.3770    4.3600 O.2    57  THR57      -0.2714
     59  CB         3.4980   -9.3770    2.9020 C.3    57  THR57       0.1808
     60  OG1        2.8160   -9.2270    4.1480 O.3    57  THR57      -0.2208
     61  CG2        2.7960   -8.5610    1.8110 C.3    57  THR57       0.0379
     62  N          5.0890  -11.2990    4.3660 N.am   58  CYS58      -0.1953
     63  CA         5.4530  -11.7390    5.6910 C.3    58  CYS58       0.1843
     64  C          5.6410  -10.5530    6.6120 C.2    58  CYS58       0.2625
     65  O          6.5490  -10.5480    7.4480 O.2    58  CYS58      -0.2714
     66  CB         6.7200  -12.6060    5.6600 C.3    58  CYS58       0.0997
     67  SG         7.0850  -13.5270    7.2030 S.3    58  CYS58      -0.0797
     68  N          4.7810   -9.5400    6.4740 N.am   59  ARG59      -0.1977
     69  CA         4.9050   -8.2920    7.2340 C.3    59  ARG59       0.1597
     70  C          3.5960   -7.8580    7.8390 C.2    59  ARG59       0.2287
     71  O          2.5610   -7.8090    7.1510 O.2    59  ARG59      -0.2864
     72  CB         5.3580   -7.1390    6.3300 C.3    59  ARG59       0.0334
     73  CG         6.6810   -7.3370    5.6120 C.3    59  ARG59       0.0492
     74  CD         7.7970   -7.5420    6.5720 C.3    59  ARG59       0.2205
     75  NE         8.2690   -6.3310    7.2060 N.pl3  59  ARG59      -0.0865
     76  CZ         9.2030   -6.3620    8.1540 C.cat  59  ARG59       0.5346
     77  NH1        9.6870   -7.5340    8.5550 N.pl3  59  ARG59       0.1354
     78  NH2        9.6340   -5.2470    8.7110 N.pl3  59  ARG59       0.1354
     79  N         10.7520    2.9100   -4.2650 N.3   130  VAL130     -0.1231
     80  CA        11.6020    1.8160   -4.6890 C.3   130  VAL130      0.1692
     81  C         10.7380    0.5930   -4.9880 C.2   130  VAL130      0.2592
     82  O          9.9970    0.0920   -4.1180 O.2   130  VAL130     -0.2718
     83  CB        12.6330    1.4480   -3.5970 C.3   130  VAL130      0.0266
     84  CG1       13.6160    0.4290   -4.1450 C.3   130  VAL130      0.0020
     85  CG2       13.3710    2.7010   -3.0730 C.3   130  VAL130      0.0020
     86  N         10.7850    0.1470   -6.2370 N.am  131  ASN131     -0.1960
     87  CA        10.1000   -1.0560   -6.6650 C.3   131  ASN131      0.1819
     88  C         10.9400   -2.2920   -6.4090 C.2   131  ASN131      0.2621
     89  O         12.1580   -2.1940   -6.2330 O.2   131  ASN131     -0.2715
     90  CB         9.7410   -0.9120   -8.1430 C.3   131  ASN131      0.1195
     91  CG         8.7160    0.1710   -8.3680 C.2   131  ASN131      0.2630
     92  OD1        7.5170   -0.0500   -8.1910 O.2   131  ASN131     -0.2716
     93  ND2        9.1760    1.3600   -8.7300 N.am  131  ASN131     -0.0877
     94  N         10.3010   -3.4500   -6.3370 N.am  132  ARG132     -0.1977
     95  CA        11.0190   -4.6850   -6.0660 C.3   132  ARG132      0.1597
     96  C         12.0490   -5.0290   -7.1400 C.2   132  ARG132      0.2287
     97  O         13.0930   -5.6210   -6.8320 O.2   132  ARG132     -0.2864
     98  CB        10.0340   -5.8330   -5.8070 C.3   132  ARG132      0.0334
     99  CG        10.6380   -7.1920   -5.3660 C.3   132  ARG132      0.0492
    100  CD        11.3990   -7.1660   -4.0410 C.3   132  ARG132      0.2205
    101  NE        12.7260   -6.5620   -4.1820 N.pl3 132  ARG132     -0.0865
    102  CZ        13.6960   -6.6390   -3.2890 C.cat 132  ARG132      0.5346
    103  NH1       14.8420   -6.0380   -3.5430 N.pl3 132  ARG132      0.1354
    104  NH2       13.5340   -7.3360   -2.1710 N.pl3 132  ARG132      0.1354
@<TRIPOS>BOND
     1    93    91   am
     2    91    92    2
     3    91    90    1
     4    90    87    1
     5    96    97    2
     6    96    95    1
     7    87    88    1
     8    87    86    1
     9    88    94   am
    10    88    89    2
    11    94    95    1
    12    86    81   am
    13    95    98    1
    14    98    99    1
    15    99   100    1
    16    19    18    2
    17    18    17    1
    18    81    80    1
    19    81    82    2
    20    15    13    1
    21    80    79    1
    22    80    83    1
    23   101   100    1
    24   101   102    2
    25    12    11    2
    26    84    83    1
    27    17    16    1
    28    17    20    1
    29    83    85    1
    30   103   102    1
    31    13    14    1
    32    13    10    1
    33    11    16   am
    34    11    10    1
    35   102   104    1
    36    20    21    1
    37    20    22    1
    38    10     9    1
    39     9     3   am
    40     3     2    1
    41     3     4    2
    42    46    47    1
    43     2     5    1
    44     2     1    1
    45    26    25    2
    46     7     6    2
    47    23    24    1
    48    54    52   ar
    49    51    52    1
    50    51    50    1
    51    49    48    2
    52     5     6    1
    53    52    53   ar
    54     6     8   am
    55    47    50    1
    56    47    48    1
    57    25    24    1
    58    48    55   am
    59    24    27    1
    60    27    28    1
    61    61    59    1
    62    29    28   ar
    63    29    31   ar
    64    55    56    1
    65    28    30   ar
    66    41    39   ar
    67    56    59    1
    68    56    57    1
    69    36    35    2
    70    33    34    1
    71    59    60    1
    72    38    39    1
    73    38    37    1
    74    31    32   ar
    75    39    40   ar
    76    30    32   ar
    77    57    58    2
    78    57    62   am
    79    35    34    1
    80    34    37    1
    81    62    63    1
    82    42    43    1
    83    43    44    1
    84    73    72    1
    85    73    74    1
    86    66    63    1
    87    66    67    1
    88    63    64    1
    89    44    45    2
    90    72    69    1
    91    68    64   am
    92    68    69    1
    93    74    75    1
    94    64    65    2
    95    71    70    2
    96    75    76    2
    97    69    70    1
    98    76    77    1
    99    76    78    1
