@<TRIPOS>MOLECULE
tmp/5bzoA00.pdb
 96 90 0 0 0
SMALL
GASTEIGER

@<TRIPOS>ATOM
      1  N          9.3280    1.2900    0.0940 N.3     6  ASN6       -0.1225
      2  CA         9.4170    0.0430   -0.6470 C.3     6  ASN6        0.1785
      3  C          8.0140   -0.4520   -0.9110 C.2     6  ASN6        0.2597
      4  O          7.2560   -0.6690    0.0500 O.2     6  ASN6       -0.2718
      5  CB        10.1410   -1.0020    0.1870 C.3     6  ASN6        0.1169
      6  CG        11.5570   -0.6060    0.5340 C.2     6  ASN6        0.2627
      7  OD1       12.1930    0.1790   -0.1710 O.2     6  ASN6       -0.2716
      8  ND2       12.0670   -1.1720    1.6230 N.am    6  ASN6       -0.0877
      9  N          7.6510   -0.6350   -2.1730 N.am    7  VAL7       -0.1966
     10  CA         6.2730   -0.9510   -2.5270 C.3     7  VAL7        0.1727
     11  C          6.1770   -2.2840   -3.2560 C.2     7  VAL7        0.2616
     12  O          7.1310   -2.7090   -3.9250 O.2     7  VAL7       -0.2715
     13  CB         5.6510    0.1820   -3.3890 C.3     7  VAL7        0.0290
     14  CG1        5.6960    1.4930   -2.6560 C.3     7  VAL7        0.0023
     15  CG2        6.3650    0.3270   -4.7190 C.3     7  VAL7        0.0023
     16  N          5.0220   -2.9290   -3.1630 N.am    8  THR8       -0.1951
     17  CA         4.7910   -4.1990   -3.8280 C.3     8  THR8        0.1897
     18  C          3.9360   -4.0390   -5.0800 C.2     8  THR8        0.2313
     19  O          3.3680   -2.9730   -5.3410 O.2     8  THR8       -0.2863
     20  CB         4.0550   -5.2020   -2.8960 C.3     8  THR8        0.1794
     21  OG1        2.7560   -4.6900   -2.5570 O.3     8  THR8       -0.2208
     22  CG2        4.8520   -5.4700   -1.6280 C.3     8  THR8        0.0378
     23  N          1.4680   -3.2000   -0.3600 N.3    16  HIS16      -0.1241
     24  CA         2.2170   -3.0560    0.8870 C.3    16  HIS16       0.1621
     25  C          3.3150   -2.0030    0.7010 C.2    16  HIS16       0.2264
     26  O          3.9640   -1.9370   -0.3720 O.2    16  HIS16      -0.2867
     27  CB         2.7670   -4.4360    1.2450 C.3    16  HIS16       0.0745
     28  CG         3.8060   -4.4570    2.3210 C.ar   16  HIS16       0.0817
     29  ND1        5.1200   -4.7710    2.0580 N.ar   16  HIS16      -0.2268
     30  CD2        3.7270   -4.2520    3.6570 C.ar   16  HIS16       0.1154
     31  CE1        5.8150   -4.7340    3.1830 C.ar   16  HIS16       0.1986
     32  NE2        4.9940   -4.4170    4.1670 N.ar   16  HIS16      -0.2212
     33  N          6.6540   -0.3730    2.9110 N.3    18  GLU18      -0.1245
     34  CA         7.5790   -0.2680    4.0460 C.3    18  GLU18       0.1567
     35  C          8.3250    1.0500    3.9740 C.2    18  GLU18       0.2260
     36  O          8.8320    1.4220    2.9030 O.2    18  GLU18      -0.2867
     37  CB         8.6610   -1.3470    4.0220 C.3    18  GLU18       0.0388
     38  CG         8.2500   -2.7390    3.7500 C.3    18  GLU18       0.1160
     39  CD         9.4310   -3.6600    3.4480 C.2    18  GLU18       0.3649
     40  OE1        9.1800   -4.8700    3.3210 O.co2  18  GLU18      -0.2457
     41  OE2       10.5940   -3.1990    3.2910 O.co2  18  GLU18      -0.2457
     42  N         12.5010    0.2200    4.8520 N.3    21  GLY21      -0.1225
     43  CA        12.6990   -1.2080    5.0690 C.3    21  GLY21       0.1811
     44  C         12.6820   -1.6690    6.5240 C.2    21  GLY21       0.2280
     45  O         13.1510   -2.7680    6.8290 O.2    21  GLY21      -0.2866
     46  N          5.2660  -11.0270    4.1730 N.3    58  CYS58      -0.1221
     47  CA         5.7520  -11.5620    5.4390 C.3    58  CYS58       0.1808
     48  C          5.9920  -10.4300    6.4270 C.2    58  CYS58       0.2601
     49  O          6.9440  -10.4570    7.2000 O.2    58  CYS58      -0.2717
     50  CB         7.0310  -12.3660    5.2160 C.3    58  CYS58       0.0970
     51  SG         7.5900  -13.3580    6.6290 S.3    58  CYS58      -0.0800
     52  N          5.1300   -9.4170    6.3810 N.am   59  ARG59      -0.1979
     53  CA         5.3090   -8.2160    7.1920 C.3    59  ARG59       0.1597
     54  C          3.9980   -7.7280    7.7540 C.2    59  ARG59       0.2287
     55  O          2.9960   -7.6670    7.0260 O.2    59  ARG59      -0.2864
     56  CB         5.8660   -7.0810    6.3260 C.3    59  ARG59       0.0334
     57  CG         7.2190   -7.3150    5.7120 C.3    59  ARG59       0.0492
     58  CD         8.3190   -7.0850    6.7380 C.3    59  ARG59       0.2205
     59  NE         8.4520   -5.6520    7.0610 N.pl3  59  ARG59      -0.0865
     60  CZ         9.3920   -5.1430    7.8550 C.cat  59  ARG59       0.5346
     61  NH1       10.3060   -5.9360    8.4010 N.pl3  59  ARG59       0.1354
     62  NH2        9.4320   -3.8340    8.0900 N.pl3  59  ARG59       0.1354
     63  N          8.1070  -18.8670    9.5750 N.3    77  ILE77      -0.1245
     64  CA         8.6040  -17.5520   10.0220 C.3    77  ILE77       0.1561
     65  C          7.7390  -16.3650    9.5640 C.2    77  ILE77       0.2260
     66  O          8.1140  -15.2050    9.7640 O.2    77  ILE77      -0.2867
     67  CB        10.1120  -17.3330    9.6690 C.3    77  ILE77       0.0252
     68  CG1       10.3300  -17.2360    8.1530 C.3    77  ILE77       0.0019
     69  CG2       10.9770  -18.4400   10.2980 C.3    77  ILE77       0.0019
     70  CD1       11.7390  -16.8120    7.7460 C.3    77  ILE77       0.0001
     71  N         10.7390    2.7760   -4.1280 N.3   130  VAL130     -0.1231
     72  CA        11.6080    1.6750   -4.5150 C.3   130  VAL130      0.1692
     73  C         10.7300    0.4620   -4.8120 C.2   130  VAL130      0.2592
     74  O         10.0210   -0.0440   -3.9340 O.2   130  VAL130     -0.2718
     75  CB        12.6180    1.3380   -3.4070 C.3   130  VAL130      0.0266
     76  CG1       13.6130    0.3170   -3.9200 C.3   130  VAL130      0.0020
     77  CG2       13.3540    2.5910   -2.9160 C.3   130  VAL130      0.0020
     78  N         10.7550    0.0250   -6.0610 N.am  131  ASN131     -0.1960
     79  CA        10.0470   -1.1640   -6.4690 C.3   131  ASN131      0.1819
     80  C         10.8690   -2.4030   -6.1750 C.2   131  ASN131      0.2621
     81  O         12.0790   -2.3100   -5.9690 O.2   131  ASN131     -0.2715
     82  CB         9.6950   -1.0480   -7.9390 C.3   131  ASN131      0.1195
     83  CG         8.6390    0.0000   -8.1730 C.2   131  ASN131      0.2630
     84  OD1        7.4400   -0.2680   -7.9750 O.2   131  ASN131     -0.2716
     85  ND2        9.0430    1.2020   -8.5700 N.am  131  ASN131     -0.0877
     86  N         10.2270   -3.5670   -6.1360 N.am  132  ARG132     -0.1977
     87  CA        10.9260   -4.7890   -5.8140 C.3   132  ARG132      0.1597
     88  C         11.9620   -5.1420   -6.8880 C.2   132  ARG132      0.2287
     89  O         12.9950   -5.7370   -6.5810 O.2   132  ARG132     -0.2864
     90  CB         9.9250   -5.9190   -5.5530 C.3   132  ARG132      0.0334
     91  CG        10.5120   -7.2840   -5.1720 C.3   132  ARG132      0.0492
     92  CD        11.2720   -7.3370   -3.8640 C.3   132  ARG132      0.2205
     93  NE        12.5850   -6.6940   -3.9590 N.pl3 132  ARG132     -0.0865
     94  CZ        13.5410   -6.7890   -3.0460 C.cat 132  ARG132      0.5346
     95  NH1       14.6810   -6.1460   -3.2250 N.pl3 132  ARG132      0.1354
     96  NH2       13.3580   -7.5490   -1.9650 N.pl3 132  ARG132      0.1354
@<TRIPOS>BOND
     1    85    83   am
     2    83    84    2
     3    83    82    1
     4    82    79    1
     5    88    89    2
     6    88    87    1
     7    79    80    1
     8    79    78    1
     9    80    86   am
    10    80    81    2
    11    86    87    1
    12    78    73   am
    13    87    90    1
    14    90    91    1
    15    19    18    2
    16    91    92    1
    17    18    17    1
    18    73    72    1
    19    73    74    2
    20    15    13    1
    21    72    71    1
    22    72    75    1
    23    93    92    1
    24    93    94    2
    25    12    11    2
    26    76    75    1
    27    17    16    1
    28    17    20    1
    29    75    77    1
    30    13    14    1
    31    13    10    1
    32    11    16   am
    33    11    10    1
    34    95    94    1
    35    94    96    1
    36    20    21    1
    37    20    22    1
    38    10     9    1
    39     9     3   am
    40     3     2    1
    41     3     4    2
    42     2     1    1
    43     2     5    1
    44    26    25    2
    45    23    24    1
    46     7     6    2
    47     5     6    1
    48     6     8   am
    49    25    24    1
    50    24    27    1
    51    27    28    1
    52    29    28   ar
    53    29    31   ar
    54    28    30   ar
    55    36    35    2
    56    33    34    1
    57    31    32   ar
    58    41    39   ar
    59    40    39   ar
    60    39    38    1
    61    30    32   ar
    62    38    37    1
    63    35    34    1
    64    37    34    1
    65    46    47    1
    66    42    43    1
    67    43    44    1
    68    50    47    1
    69    50    51    1
    70    47    48    1
    71    57    56    1
    72    57    58    1
    73    56    53    1
    74    52    48   am
    75    52    53    1
    76    48    49    2
    77    44    45    2
    78    58    59    1
    79    55    54    2
    80    59    60    2
    81    53    54    1
    82    70    68    1
    83    60    62    1
    84    60    61    1
    85    68    67    1
    86    65    66    2
    87    65    64    1
    88    63    64    1
    89    67    64    1
    90    67    69    1
