@<TRIPOS>MOLECULE
tmp/5bzpA00.pdb
 88 83 0 0 0
SMALL
GASTEIGER

@<TRIPOS>ATOM
      1  N          9.3070    1.3200    0.0890 N.3     6  ASN6       -0.1225
      2  CA         9.3920    0.0700   -0.6460 C.3     6  ASN6        0.1785
      3  C          7.9830   -0.4100   -0.8960 C.2     6  ASN6        0.2597
      4  O          7.2270   -0.6040    0.0660 O.2     6  ASN6       -0.2718
      5  CB        10.1340   -0.9770    0.1640 C.3     6  ASN6        0.1169
      6  CG        11.5260   -0.5720    0.5110 C.2     6  ASN6        0.2627
      7  OD1       12.1690    0.2320   -0.1740 O.2     6  ASN6       -0.2716
      8  ND2       12.0370   -1.1700    1.5860 N.am    6  ASN6       -0.0877
      9  N          7.5930   -0.5730   -2.1510 N.am    7  VAL7       -0.1966
     10  CA         6.2090   -0.8750   -2.4960 C.3     7  VAL7        0.1727
     11  C          6.1130   -2.2060   -3.2270 C.2     7  VAL7        0.2616
     12  O          7.0630   -2.6120   -3.9190 O.2     7  VAL7       -0.2715
     13  CB         5.5940    0.2380   -3.3590 C.3     7  VAL7        0.0290
     14  CG1        5.6410    1.5590   -2.6480 C.3     7  VAL7        0.0023
     15  CG2        6.3060    0.3830   -4.6870 C.3     7  VAL7        0.0023
     16  N          4.9680   -2.8730   -3.1190 N.am    8  THR8       -0.1951
     17  CA         4.7500   -4.1420   -3.7850 C.3     8  THR8        0.1897
     18  C          3.8760   -3.9870   -5.0280 C.2     8  THR8        0.2313
     19  O          3.3090   -2.9330   -5.2900 O.2     8  THR8       -0.2863
     20  CB         4.0570   -5.1580   -2.8370 C.3     8  THR8        0.1794
     21  OG1        2.7470   -4.6840   -2.4890 O.3     8  THR8       -0.2208
     22  CG2        4.8750   -5.3760   -1.5660 C.3     8  THR8        0.0378
     23  N          1.4240   -3.1760   -0.3430 N.3    16  HIS16      -0.1241
     24  CA         2.1720   -3.0390    0.8940 C.3    16  HIS16       0.1621
     25  C          3.2550   -1.9790    0.7010 C.2    16  HIS16       0.2264
     26  O          3.9300   -1.9090   -0.3550 O.2    16  HIS16      -0.2867
     27  CB         2.7220   -4.4070    1.2470 C.3    16  HIS16       0.0745
     28  CG         3.7690   -4.4110    2.3120 C.ar   16  HIS16       0.0817
     29  ND1        5.0930   -4.6750    2.0460 N.ar   16  HIS16      -0.2268
     30  CD2        3.6870   -4.2480    3.6530 C.ar   16  HIS16       0.1154
     31  CE1        5.7910   -4.6300    3.1700 C.ar   16  HIS16       0.1986
     32  NE2        4.9560   -4.3970    4.1630 N.ar   16  HIS16      -0.2212
     33  N          6.6110   -0.3690    2.9320 N.3    18  GLU18      -0.1245
     34  CA         7.5200   -0.2970    4.0760 C.3    18  GLU18       0.1567
     35  C          8.3260    0.9730    3.9820 C.2    18  GLU18       0.2260
     36  O          8.8750    1.2950    2.9130 O.2    18  GLU18      -0.2867
     37  CB         8.5360   -1.4260    4.0900 C.3    18  GLU18       0.0388
     38  CG         8.1360   -2.7540    3.5940 C.3    18  GLU18       0.1160
     39  CD         9.3270   -3.6940    3.4350 C.2    18  GLU18       0.3649
     40  OE1       10.4800   -3.2650    3.1240 O.co2  18  GLU18      -0.2457
     41  OE2        9.0830   -4.9010    3.5690 O.co2  18  GLU18      -0.2457
     42  N         12.4910    0.1750    4.8320 N.3    21  GLY21      -0.1225
     43  CA        12.6890   -1.2560    5.0210 C.3    21  GLY21       0.1811
     44  C         12.6550   -1.7370    6.4700 C.2    21  GLY21       0.2280
     45  O         13.1170   -2.8430    6.7540 O.2    21  GLY21      -0.2866
     46  N          5.1990  -11.0690    4.2230 N.3    58  CYS58      -0.1221
     47  CA         5.6390  -11.5940    5.5060 C.3    58  CYS58       0.1808
     48  C          5.8720  -10.4530    6.4590 C.2    58  CYS58       0.2601
     49  O          6.8160  -10.4760    7.2440 O.2    58  CYS58      -0.2717
     50  CB         6.9180  -12.4200    5.3480 C.3    58  CYS58       0.0970
     51  SG         7.4000  -13.4230    6.8070 S.3    58  CYS58      -0.0800
     52  N          5.0210   -9.4360    6.3970 N.am   59  ARG59      -0.1979
     53  CA         5.2120   -8.2130    7.1820 C.3    59  ARG59       0.1597
     54  C          3.9060   -7.7400    7.7710 C.2    59  ARG59       0.2287
     55  O          2.9040   -7.6580    7.0710 O.2    59  ARG59      -0.2864
     56  CB         5.7570   -7.0840    6.2930 C.3    59  ARG59       0.0334
     57  CG         7.1380   -7.3350    5.7000 C.3    59  ARG59       0.0492
     58  CD         8.2420   -7.1470    6.7530 C.3    59  ARG59       0.2205
     59  NE         8.3650   -5.7200    7.0810 N.pl3  59  ARG59      -0.0865
     60  CZ         9.2840   -5.2080    7.8940 C.cat  59  ARG59       0.5346
     61  NH1       10.1880   -6.0000    8.4640 N.pl3  59  ARG59       0.1354
     62  NH2        9.3160   -3.8910    8.1220 N.pl3  59  ARG59       0.1354
     63  N         10.6590    2.8100   -4.1270 N.3   130  VAL130     -0.1231
     64  CA        11.5300    1.7010   -4.5260 C.3   130  VAL130      0.1692
     65  C         10.6750    0.4860   -4.8190 C.2   130  VAL130      0.2592
     66  O          9.9670   -0.0140   -3.9420 O.2   130  VAL130     -0.2718
     67  CB        12.5400    1.3460   -3.4310 C.3   130  VAL130      0.0266
     68  CG1       13.5280    0.3170   -3.9770 C.3   130  VAL130      0.0020
     69  CG2       13.2900    2.5970   -2.9270 C.3   130  VAL130      0.0020
     70  N         10.6630    0.0680   -6.0760 N.am  131  ASN131     -0.1960
     71  CA         9.9750   -1.1300   -6.4680 C.3   131  ASN131      0.1819
     72  C         10.8110   -2.3700   -6.1860 C.2   131  ASN131      0.2621
     73  O         12.0190   -2.2890   -6.0010 O.2   131  ASN131     -0.2715
     74  CB         9.6120   -1.0150   -7.9440 C.3   131  ASN131      0.1195
     75  CG         8.5820    0.0550   -8.1740 C.2   131  ASN131      0.2630
     76  OD1        7.3830   -0.1820   -7.9910 O.2   131  ASN131     -0.2716
     77  ND2        9.0190    1.2550   -8.5400 N.am  131  ASN131     -0.0877
     78  N         10.1780   -3.5370   -6.1590 N.am  132  ARG132     -0.1977
     79  CA        10.8620   -4.7720   -5.8400 C.3   132  ARG132      0.1597
     80  C         11.9080   -5.1190   -6.8980 C.2   132  ARG132      0.2287
     81  O         12.9390   -5.6910   -6.5730 O.2   132  ARG132     -0.2864
     82  CB         9.8570   -5.9050   -5.5920 C.3   132  ARG132      0.0334
     83  CG        10.4450   -7.2480   -5.1610 C.3   132  ARG132      0.0492
     84  CD        11.1670   -7.2630   -3.8400 C.3   132  ARG132      0.2205
     85  NE        12.4840   -6.6440   -3.9590 N.pl3 132  ARG132     -0.0865
     86  CZ        13.4690   -6.7550   -3.0750 C.cat 132  ARG132      0.5346
     87  NH1       14.6150   -6.1290   -3.2930 N.pl3 132  ARG132      0.1354
     88  NH2       13.3030   -7.5040   -1.9890 N.pl3 132  ARG132      0.1354
@<TRIPOS>BOND
     1    77    75   am
     2    75    76    2
     3    75    74    1
     4    74    71    1
     5    80    81    2
     6    80    79    1
     7    71    72    1
     8    71    70    1
     9    72    78   am
    10    72    73    2
    11    78    79    1
    12    70    65   am
    13    79    82    1
    14    82    83    1
    15    19    18    2
    16    83    84    1
    17    18    17    1
    18    65    64    1
    19    65    66    2
    20    15    13    1
    21    64    63    1
    22    64    67    1
    23    68    67    1
    24    85    84    1
    25    85    86    2
    26    12    11    2
    27    17    16    1
    28    17    20    1
    29    67    69    1
    30    13    14    1
    31    13    10    1
    32    87    86    1
    33    11    16   am
    34    11    10    1
    35    86    88    1
    36    20    21    1
    37    20    22    1
    38    10     9    1
    39     9     3   am
    40     3     2    1
    41     3     4    2
    42     2     1    1
    43     2     5    1
    44    26    25    2
    45    23    24    1
    46     7     6    2
    47     5     6    1
    48     6     8   am
    49    25    24    1
    50    24    27    1
    51    27    28    1
    52    29    28   ar
    53    29    31   ar
    54    28    30   ar
    55    36    35    2
    56    33    34    1
    57    40    39   ar
    58    31    32   ar
    59    39    41   ar
    60    39    38    1
    61    38    37    1
    62    30    32   ar
    63    35    34    1
    64    34    37    1
    65    46    47    1
    66    42    43    1
    67    43    44    1
    68    50    47    1
    69    50    51    1
    70    47    48    1
    71    57    56    1
    72    57    58    1
    73    56    53    1
    74    52    48   am
    75    52    53    1
    76    48    49    2
    77    44    45    2
    78    58    59    1
    79    55    54    2
    80    59    60    2
    81    53    54    1
    82    60    62    1
    83    60    61    1
