@<TRIPOS>MOLECULE
tmp/5bzqA00.pdb
 96 90 0 0 0
SMALL
GASTEIGER

@<TRIPOS>ATOM
      1  N          9.2840    1.2880    0.0380 N.3     6  ASN6       -0.1225
      2  CA         9.3780    0.0360   -0.7040 C.3     6  ASN6        0.1785
      3  C          7.9820   -0.4790   -0.9510 C.2     6  ASN6        0.2597
      4  O          7.2470   -0.7330    0.0090 O.2     6  ASN6       -0.2718
      5  CB        10.1300   -1.0090    0.1090 C.3     6  ASN6        0.1169
      6  CG        11.5380   -0.5930    0.4500 C.2     6  ASN6        0.2627
      7  OD1       12.1620    0.2010   -0.2550 O.2     6  ASN6       -0.2716
      8  ND2       12.0600   -1.1440    1.5450 N.am    6  ASN6       -0.0877
      9  N          7.6130   -0.6320   -2.2180 N.am    7  VAL7       -0.1966
     10  CA         6.2340   -0.9500   -2.5810 C.3     7  VAL7        0.1727
     11  C          6.1370   -2.2860   -3.2990 C.2     7  VAL7        0.2616
     12  O          7.0480   -2.6920   -4.0280 O.2     7  VAL7       -0.2715
     13  CB         5.6060    0.1720   -3.4390 C.3     7  VAL7        0.0290
     14  CG1        5.6330    1.5000   -2.6950 C.3     7  VAL7        0.0023
     15  CG2        6.3040    0.3150   -4.7780 C.3     7  VAL7        0.0023
     16  N          5.0170   -2.9660   -3.1240 N.am    8  THR8       -0.1951
     17  CA         4.7670   -4.2310   -3.7990 C.3     8  THR8        0.1897
     18  C          3.9000   -4.0640   -5.0450 C.2     8  THR8        0.2313
     19  O          3.3270   -3.0010   -5.3030 O.2     8  THR8       -0.2863
     20  CB         4.0400   -5.2400   -2.8680 C.3     8  THR8        0.1794
     21  OG1        2.7380   -4.7400   -2.5370 O.3     8  THR8       -0.2208
     22  CG2        4.8240   -5.4910   -1.5920 C.3     8  THR8        0.0378
     23  N          1.4520   -3.2340   -0.3550 N.3    16  HIS16      -0.1241
     24  CA         2.1990   -3.0840    0.8860 C.3    16  HIS16       0.1621
     25  C          3.3030   -2.0430    0.6960 C.2    16  HIS16       0.2264
     26  O          3.9370   -1.9760   -0.3780 O.2    16  HIS16      -0.2867
     27  CB         2.7530   -4.4630    1.2570 C.3    16  HIS16       0.0745
     28  CG         3.7790   -4.4660    2.3380 C.ar   16  HIS16       0.0817
     29  ND1        5.1070   -4.6920    2.0690 N.ar   16  HIS16      -0.2268
     30  CD2        3.6820   -4.3180    3.6800 C.ar   16  HIS16       0.1154
     31  CE1        5.7930   -4.6610    3.1980 C.ar   16  HIS16       0.1986
     32  NE2        4.9520   -4.4360    4.1900 N.ar   16  HIS16      -0.2212
     33  N          6.6580   -0.4480    2.8910 N.3    18  GLU18      -0.1245
     34  CA         7.5950   -0.3500    4.0210 C.3    18  GLU18       0.1567
     35  C          8.3530    0.9570    3.9280 C.2    18  GLU18       0.2260
     36  O          8.8720    1.3050    2.8580 O.2    18  GLU18      -0.2867
     37  CB         8.6750   -1.4270    3.9870 C.3    18  GLU18       0.0388
     38  CG         8.2890   -2.8070    3.6830 C.3    18  GLU18       0.1160
     39  CD         9.5000   -3.6990    3.3640 C.2    18  GLU18       0.3649
     40  OE1        9.2740   -4.9200    3.2460 O.co2  18  GLU18      -0.2457
     41  OE2       10.6600   -3.2070    3.2000 O.co2  18  GLU18      -0.2457
     42  N         12.5110    0.2730    4.8680 N.3    21  GLY21      -0.1225
     43  CA        12.7140   -1.1560    5.0680 C.3    21  GLY21       0.1811
     44  C         12.6970   -1.6390    6.5170 C.2    21  GLY21       0.2280
     45  O         13.1790   -2.7390    6.7980 O.2    21  GLY21      -0.2866
     46  N          5.2330  -11.0680    4.2140 N.3    58  CYS58      -0.1221
     47  CA         5.6930  -11.6030    5.4840 C.3    58  CYS58       0.1808
     48  C          5.9590  -10.4640    6.4460 C.2    58  CYS58       0.2601
     49  O          6.9260  -10.5000    7.2130 O.2    58  CYS58      -0.2717
     50  CB         6.9460  -12.4560    5.2840 C.3    58  CYS58       0.0970
     51  SG         7.4860  -13.4260    6.7350 S.3    58  CYS58      -0.0800
     52  N          5.1060   -9.4390    6.4040 N.am   59  ARG59      -0.1979
     53  CA         5.3050   -8.2320    7.2170 C.3    59  ARG59       0.1597
     54  C          3.9990   -7.7330    7.7770 C.2    59  ARG59       0.2287
     55  O          3.0000   -7.6630    7.0530 O.2    59  ARG59      -0.2864
     56  CB         5.8510   -7.1030    6.3410 C.3    59  ARG59       0.0334
     57  CG         7.1660   -7.3470    5.6760 C.3    59  ARG59       0.0492
     58  CD         8.2990   -7.1060    6.6680 C.3    59  ARG59       0.2205
     59  NE         8.4230   -5.6790    7.0350 N.pl3  59  ARG59      -0.0865
     60  CZ         9.3340   -5.2000    7.8840 C.cat  59  ARG59       0.5346
     61  NH1       10.2180   -6.0180    8.4470 N.pl3  59  ARG59       0.1354
     62  NH2        9.3770   -3.9000    8.1650 N.pl3  59  ARG59       0.1354
     63  N          8.0120  -18.9710    9.6900 N.3    77  ILE77      -0.1245
     64  CA         8.5270  -17.6580   10.1150 C.3    77  ILE77       0.1561
     65  C          7.6430  -16.4710    9.6950 C.2    77  ILE77       0.2260
     66  O          7.9890  -15.3180    9.9620 O.2    77  ILE77      -0.2867
     67  CB        10.0180  -17.4380    9.6850 C.3    77  ILE77       0.0252
     68  CG1       10.1520  -17.2910    8.1630 C.3    77  ILE77       0.0019
     69  CG2       10.9110  -18.5590   10.2460 C.3    77  ILE77       0.0019
     70  CD1       11.5560  -16.9230    7.6890 C.3    77  ILE77       0.0001
     71  N         10.6620    2.7910   -4.1990 N.3   130  VAL130     -0.1231
     72  CA        11.5300    1.6920   -4.5950 C.3   130  VAL130      0.1692
     73  C         10.6690    0.4770   -4.8870 C.2   130  VAL130      0.2592
     74  O          9.9690   -0.0380   -4.0080 O.2   130  VAL130     -0.2718
     75  CB        12.5560    1.3520   -3.5020 C.3   130  VAL130      0.0266
     76  CG1       13.5380    0.3300   -4.0420 C.3   130  VAL130      0.0020
     77  CG2       13.2940    2.6090   -3.0090 C.3   130  VAL130      0.0020
     78  N         10.6890    0.0420   -6.1370 N.am  131  ASN131     -0.1960
     79  CA         9.9880   -1.1590   -6.5640 C.3   131  ASN131      0.1819
     80  C         10.8270   -2.3910   -6.2870 C.2   131  ASN131      0.2621
     81  O         12.0440   -2.2950   -6.0940 O.2   131  ASN131     -0.2715
     82  CB         9.6090   -1.0430   -8.0330 C.3   131  ASN131      0.1195
     83  CG         8.5850    0.0320   -8.2520 C.2   131  ASN131      0.2630
     84  OD1        7.3820   -0.2020   -8.0710 O.2   131  ASN131     -0.2716
     85  ND2        9.0340    1.2350   -8.6170 N.am  131  ASN131     -0.0877
     86  N         10.1940   -3.5580   -6.2660 N.am  132  ARG132     -0.1977
     87  CA        10.9070   -4.7830   -5.9330 C.3   132  ARG132      0.1597
     88  C         11.9540   -5.1330   -6.9970 C.2   132  ARG132      0.2287
     89  O         12.9910   -5.7180   -6.6740 O.2   132  ARG132     -0.2864
     90  CB         9.9260   -5.9300   -5.6600 C.3   132  ARG132      0.0334
     91  CG        10.5450   -7.2730   -5.2320 C.3   132  ARG132      0.0492
     92  CD        11.2580   -7.2850   -3.9240 C.3   132  ARG132      0.2205
     93  NE        12.5620   -6.6530   -4.0480 N.pl3 132  ARG132     -0.0865
     94  CZ        13.5400   -6.7570   -3.1590 C.cat 132  ARG132      0.5346
     95  NH1       14.6800   -6.1220   -3.3800 N.pl3 132  ARG132      0.1354
     96  NH2       13.3780   -7.5130   -2.0720 N.pl3 132  ARG132      0.1354
@<TRIPOS>BOND
     1    85    83   am
     2    83    84    2
     3    83    82    1
     4    82    79    1
     5    88    89    2
     6    88    87    1
     7    79    80    1
     8    79    78    1
     9    80    86   am
    10    80    81    2
    11    86    87    1
    12    78    73   am
    13    87    90    1
    14    90    91    1
    15    19    18    2
    16    91    92    1
    17    18    17    1
    18    73    72    1
    19    73    74    2
    20    15    13    1
    21    72    71    1
    22    72    75    1
    23    93    92    1
    24    93    94    2
    25    76    75    1
    26    12    11    2
    27    17    16    1
    28    17    20    1
    29    75    77    1
    30    13    14    1
    31    13    10    1
    32    95    94    1
    33    11    16   am
    34    11    10    1
    35    94    96    1
    36    20    21    1
    37    20    22    1
    38    10     9    1
    39     9     3   am
    40     3     2    1
    41     3     4    2
    42     2     1    1
    43     2     5    1
    44    26    25    2
    45    23    24    1
    46     7     6    2
    47     5     6    1
    48     6     8   am
    49    25    24    1
    50    24    27    1
    51    27    28    1
    52    29    28   ar
    53    29    31   ar
    54    28    30   ar
    55    36    35    2
    56    33    34    1
    57    31    32   ar
    58    41    39   ar
    59    40    39   ar
    60    39    38    1
    61    30    32   ar
    62    38    37    1
    63    35    34    1
    64    37    34    1
    65    46    47    1
    66    42    43    1
    67    43    44    1
    68    50    47    1
    69    50    51    1
    70    47    48    1
    71    57    56    1
    72    57    58    1
    73    56    53    1
    74    52    48   am
    75    52    53    1
    76    48    49    2
    77    44    45    2
    78    58    59    1
    79    59    60    2
    80    55    54    2
    81    53    54    1
    82    70    68    1
    83    60    62    1
    84    60    61    1
    85    68    67    1
    86    67    64    1
    87    67    69    1
    88    63    64    1
    89    65    66    2
    90    65    64    1
