@<TRIPOS>MOLECULE
tmp/5bzrA00.pdb
 110 106 0 0 0
SMALL
GASTEIGER

@<TRIPOS>ATOM
      1  N          9.4470    1.2560    0.0400 N.3     6  ASN6       -0.1225
      2  CA         9.5170    0.0460   -0.7550 C.3     6  ASN6        0.1785
      3  C          8.0860   -0.4330   -0.9850 C.2     6  ASN6        0.2597
      4  O          7.3310   -0.6350   -0.0210 O.2     6  ASN6       -0.2718
      5  CB        10.2320   -1.0680    0.0090 C.3     6  ASN6        0.1169
      6  CG        11.6670   -0.7280    0.4160 C.2     6  ASN6        0.2627
      7  OD1       12.3550    0.0560   -0.2090 O.2     6  ASN6       -0.2716
      8  ND2       12.1060   -1.3410    1.5180 N.am    6  ASN6       -0.0877
      9  N          7.7060   -0.6080   -2.2460 N.am    7  VAL7       -0.1966
     10  CA         6.3250   -0.9490   -2.6000 C.3     7  VAL7        0.1727
     11  C          6.2420   -2.2860   -3.3340 C.2     7  VAL7        0.2616
     12  O          7.1900   -2.6840   -4.0410 O.2     7  VAL7       -0.2715
     13  CB         5.6660    0.1620   -3.4330 C.3     7  VAL7        0.0290
     14  CG1        5.7040    1.4990   -2.6940 C.3     7  VAL7        0.0023
     15  CG2        6.3210    0.3100   -4.7860 C.3     7  VAL7        0.0023
     16  N          5.0990   -2.9520   -3.2150 N.am    8  THR8       -0.1951
     17  CA         4.8650   -4.2180   -3.8850 C.3     8  THR8        0.1897
     18  C          3.9930   -4.0580   -5.1270 C.2     8  THR8        0.2313
     19  O          3.4350   -2.9980   -5.4000 O.2     8  THR8       -0.2863
     20  CB         4.1490   -5.2140   -2.9430 C.3     8  THR8        0.1794
     21  OG1        2.8430   -4.7180   -2.6220 O.3     8  THR8       -0.2208
     22  CG2        4.9320   -5.4110   -1.6630 C.3     8  THR8        0.0378
     23  N          1.5540   -3.2470   -0.4100 N.3    16  HIS16      -0.1241
     24  CA         2.2960   -3.0800    0.8400 C.3    16  HIS16       0.1621
     25  C          3.3950   -2.0270    0.6600 C.2    16  HIS16       0.2264
     26  O          4.0270   -1.9520   -0.4110 O.2    16  HIS16      -0.2867
     27  CB         2.8790   -4.4490    1.1860 C.3    16  HIS16       0.0745
     28  CG         3.9270   -4.4410    2.2530 C.ar   16  HIS16       0.0817
     29  ND1        5.2650   -4.5740    1.9670 N.ar   16  HIS16      -0.2268
     30  CD2        3.8320   -4.3160    3.5960 C.ar   16  HIS16       0.1154
     31  CE1        5.9510   -4.5440    3.0960 C.ar   16  HIS16       0.1986
     32  NE2        5.1060   -4.4010    4.0970 N.ar   16  HIS16      -0.2212
     33  N          6.7120   -0.3960    2.8710 N.3    18  GLU18      -0.1245
     34  CA         7.6300   -0.4200    4.0020 C.3    18  GLU18       0.1567
     35  C          8.5070    0.8340    3.9290 C.2    18  GLU18       0.2260
     36  O          9.1060    1.1100    2.8790 O.2    18  GLU18      -0.2867
     37  CB         8.4690   -1.7010    3.9550 C.3    18  GLU18       0.0388
     38  CG         9.6280   -1.7430    4.9220 C.3    18  GLU18       0.1160
     39  CD        10.5990   -2.8540    4.5910 C.2    18  GLU18       0.3649
     40  OE1       10.6450   -3.2820    3.4110 O.co2  18  GLU18      -0.2457
     41  OE2       11.3250   -3.2950    5.5060 O.co2  18  GLU18      -0.2457
     42  N         10.2220   -1.6020   10.3230 N.3    23  TYR23      -0.1241
     43  CA         8.9120   -1.2490   10.8660 C.3    23  TYR23       0.1605
     44  C          9.0070    0.1520   11.4500 C.2    23  TYR23       0.2264
     45  O          9.7490    0.3640   12.4290 O.2    23  TYR23      -0.2867
     46  CB         8.4830   -2.2410   11.9570 C.3    23  TYR23       0.0534
     47  CG         8.0600   -3.6040   11.4560 C.ar   23  TYR23      -0.0201
     48  CD1        7.0230   -3.7420   10.5260 C.ar   23  TYR23      -0.0009
     49  CD2        8.6720   -4.7560   11.9440 C.ar   23  TYR23      -0.0009
     50  CE1        6.6220   -4.9770   10.0900 C.ar   23  TYR23       0.0417
     51  CE2        8.2800   -6.0170   11.5080 C.ar   23  TYR23       0.0417
     52  CZ         7.2500   -6.1140   10.5720 C.ar   23  TYR23       0.1957
     53  OH         6.8080   -7.3460   10.1150 O.3    23  TYR23      -0.2866
     54  N          5.3290  -11.0590    4.1780 N.3    58  CYS58      -0.1221
     55  CA         5.7920  -11.5790    5.4450 C.3    58  CYS58       0.1808
     56  C          6.0150  -10.4310    6.4210 C.2    58  CYS58       0.2601
     57  O          6.9640  -10.4450    7.2080 O.2    58  CYS58      -0.2717
     58  CB         7.0670  -12.3830    5.2480 C.3    58  CYS58       0.0970
     59  SG         7.5780  -13.3840    6.6710 S.3    58  CYS58      -0.0800
     60  N          5.1460   -9.4230    6.3590 N.am   59  ARG59      -0.1979
     61  CA         5.3230   -8.2220    7.1700 C.3    59  ARG59       0.1597
     62  C          4.0030   -7.7360    7.7380 C.2    59  ARG59       0.2287
     63  O          2.9990   -7.6690    7.0160 O.2    59  ARG59      -0.2864
     64  CB         5.8550   -7.0790    6.3030 C.3    59  ARG59       0.0334
     65  CG         7.1850   -7.2970    5.6360 C.3    59  ARG59       0.0492
     66  CD         8.3330   -7.1180    6.6240 C.3    59  ARG59       0.2205
     67  NE         8.4970   -5.7070    7.0210 N.pl3  59  ARG59      -0.0865
     68  CZ         9.4230   -5.2610    7.8700 C.cat  59  ARG59       0.5346
     69  NH1       10.3050   -6.1010    8.3970 N.pl3  59  ARG59       0.1354
     70  NH2        9.4720   -3.9730    8.1950 N.pl3  59  ARG59       0.1354
     71  N          8.1170  -18.8340    9.5760 N.3    77  ILE77      -0.1231
     72  CA         8.6150  -17.5140    9.9970 C.3    77  ILE77       0.1692
     73  C          7.7360  -16.3360    9.5320 C.2    77  ILE77       0.2592
     74  O          8.0980  -15.1720    9.7250 O.2    77  ILE77      -0.2718
     75  CB        10.1160  -17.2890    9.6090 C.3    77  ILE77       0.0266
     76  CG1       10.2990  -17.1760    8.0870 C.3    77  ILE77       0.0019
     77  CG2       11.0060  -18.3760   10.2430 C.3    77  ILE77       0.0020
     78  CD1       11.7010  -16.7580    7.6490 C.3    77  ILE77       0.0001
     79  N          6.5820  -16.6390    8.9330 N.am   78  CYS78      -0.1970
     80  CA         5.6260  -15.6090    8.5100 C.3    78  CYS78       0.1712
     81  C          4.2620  -15.8880    9.1100 C.2    78  CYS78       0.2296
     82  O          3.5710  -16.8260    8.6850 O.2    78  CYS78      -0.2864
     83  CB         5.5100  -15.5610    6.9910 C.3    78  CYS78       0.0983
     84  SG         7.0670  -15.2900    6.1590 S.3    78  CYS78      -0.0798
     85  N         10.7930    2.7610   -4.1710 N.3   130  VAL130     -0.1231
     86  CA        11.6580    1.6700   -4.5710 C.3   130  VAL130      0.1692
     87  C         10.7860    0.4560   -4.8740 C.2   130  VAL130      0.2592
     88  O         10.0640   -0.0470   -4.0030 O.2   130  VAL130     -0.2718
     89  CB        12.6590    1.3210   -3.4610 C.3   130  VAL130      0.0266
     90  CG1       13.6290    0.2690   -3.9640 C.3   130  VAL130      0.0020
     91  CG2       13.4000    2.5750   -2.9680 C.3   130  VAL130      0.0020
     92  N         10.8420   -0.0040   -6.1150 N.am  131  ASN131     -0.1960
     93  CA        10.1030   -1.1760   -6.5310 C.3   131  ASN131      0.1819
     94  C         10.9190   -2.4200   -6.2380 C.2   131  ASN131      0.2621
     95  O         12.1340   -2.3460   -6.0580 O.2   131  ASN131     -0.2715
     96  CB         9.7720   -1.0370   -8.0070 C.3   131  ASN131      0.1195
     97  CG         8.7150    0.0220   -8.2390 C.2   131  ASN131      0.2630
     98  OD1        7.5130   -0.2330   -8.0520 O.2   131  ASN131     -0.2716
     99  ND2        9.1440    1.2210   -8.6190 N.am  131  ASN131     -0.0877
    100  N         10.2710   -3.5830   -6.2310 N.am  132  ARG132     -0.1977
    101  CA        10.9780   -4.8120   -5.9210 C.3   132  ARG132      0.1597
    102  C         12.0390   -5.1510   -6.9720 C.2   132  ARG132      0.2287
    103  O         13.0700   -5.7460   -6.6510 O.2   132  ARG132     -0.2864
    104  CB         9.9790   -5.9560   -5.6920 C.3   132  ARG132      0.0334
    105  CG        10.5780   -7.3020   -5.2520 C.3   132  ARG132      0.0492
    106  CD        11.3030   -7.2850   -3.9290 C.3   132  ARG132      0.2205
    107  NE        12.6180   -6.6820   -4.0750 N.pl3 132  ARG132     -0.0865
    108  CZ        13.5960   -6.7900   -3.1880 C.cat 132  ARG132      0.5346
    109  NH1       13.4210   -7.5140   -2.0840 N.pl3 132  ARG132      0.1354
    110  NH2       14.7520   -6.1960   -3.4240 N.pl3 132  ARG132      0.1354
@<TRIPOS>BOND
     1    99    97   am
     2    97    98    2
     3    97    96    1
     4    96    93    1
     5   102   103    2
     6   102   101    1
     7    93    94    1
     8    93    92    1
     9    94   100   am
    10    94    95    2
    11   100   101    1
    12    92    87   am
    13   101   104    1
    14   104   105    1
    15    19    18    2
    16   105   106    1
    17    18    17    1
    18    87    86    1
    19    87    88    2
    20    15    13    1
    21    86    85    1
    22    86    89    1
    23   107   106    1
    24   107   108    2
    25    12    11    2
    26    90    89    1
    27    17    16    1
    28    17    20    1
    29    89    91    1
    30    13    14    1
    31    13    10    1
    32   110   108    1
    33    11    16   am
    34    11    10    1
    35   108   109    1
    36    20    21    1
    37    20    22    1
    38    10     9    1
    39     9     3   am
    40     3     2    1
    41     3     4    2
    42     2     5    1
    43     2     1    1
    44    26    25    2
    45    23    24    1
    46     7     6    2
    47     5     6    1
    48     6     8   am
    49    25    24    1
    50    24    27    1
    51    27    28    1
    52    29    28   ar
    53    29    31   ar
    54    28    30   ar
    55    33    34    1
    56    36    35    2
    57    31    32   ar
    58    40    39   ar
    59    30    32   ar
    60    35    34    1
    61    37    34    1
    62    37    38    1
    63    54    55    1
    64    39    38    1
    65    39    41   ar
    66    58    55    1
    67    58    59    1
    68    55    56    1
    69    65    64    1
    70    65    66    1
    71    84    59    1
    72    84    83    1
    73    64    61    1
    74    60    56   am
    75    60    61    1
    76    56    57    2
    77    66    67    1
    78    83    80    1
    79    63    62    2
    80    67    68    2
    81    61    62    1
    82    78    76    1
    83    68    70    1
    84    68    69    1
    85    76    75    1
    86    80    79    1
    87    80    81    1
    88    82    81    2
    89    79    73   am
    90    73    74    2
    91    73    72    1
    92    71    72    1
    93    75    72    1
    94    75    77    1
    95    50    48   ar
    96    50    52   ar
    97    53    52    1
    98    42    43    1
    99    48    47   ar
   100    52    51   ar
   101    43    44    1
   102    43    46    1
   103    44    45    2
   104    47    49   ar
   105    47    46    1
   106    51    49   ar
