@<TRIPOS>MOLECULE
tmp/5bztA00.pdb
 104 99 0 0 0
SMALL
GASTEIGER

@<TRIPOS>ATOM
      1  N          9.3340    1.3610    0.0280 N.3     6  ASN6       -0.1225
      2  CA         9.3960    0.1280   -0.7530 C.3     6  ASN6        0.1785
      3  C          7.9740   -0.3670   -0.9880 C.2     6  ASN6        0.2597
      4  O          7.2210   -0.5560   -0.0140 O.2     6  ASN6       -0.2718
      5  CB        10.1860   -0.9360   -0.0070 C.3     6  ASN6        0.1169
      6  CG        11.6110   -0.4930    0.3540 C.2     6  ASN6        0.2627
      7  OD1       12.2160    0.3530   -0.2990 O.2     6  ASN6       -0.2716
      8  ND2       12.1320   -1.0700    1.4250 N.am    6  ASN6       -0.0877
      9  N          7.5710   -0.5320   -2.2370 N.am    7  VAL7       -0.1966
     10  CA         6.1860   -0.8530   -2.5750 C.3     7  VAL7        0.1727
     11  C          6.0950   -2.1850   -3.2990 C.2     7  VAL7        0.2616
     12  O          7.0100   -2.5620   -4.0400 O.2     7  VAL7       -0.2715
     13  CB         5.5480    0.2730   -3.4310 C.3     7  VAL7        0.0290
     14  CG1        5.6050    1.6000   -2.7140 C.3     7  VAL7        0.0023
     15  CG2        6.2430    0.4210   -4.7630 C.3     7  VAL7        0.0023
     16  N          4.9920   -2.8950   -3.1260 N.am    8  THR8       -0.1951
     17  CA         4.7590   -4.1470   -3.8190 C.3     8  THR8        0.1897
     18  C          3.8940   -3.9700   -5.0680 C.2     8  THR8        0.2313
     19  O          3.3190   -2.9140   -5.3200 O.2     8  THR8       -0.2863
     20  CB         4.0400   -5.1720   -2.8970 C.3     8  THR8        0.1794
     21  OG1        2.7320   -4.6870   -2.5590 O.3     8  THR8       -0.2208
     22  CG2        4.8360   -5.4330   -1.6250 C.3     8  THR8        0.0378
     23  N          1.4230   -3.2290   -0.3850 N.3    16  HIS16      -0.1241
     24  CA         2.1720   -3.0570    0.8670 C.3    16  HIS16       0.1621
     25  C          3.2410   -1.9950    0.6690 C.2    16  HIS16       0.2264
     26  O          3.8780   -1.9100   -0.4230 O.2    16  HIS16      -0.2867
     27  CB         2.7590   -4.4090    1.2560 C.3    16  HIS16       0.0745
     28  CG         3.8030   -4.3630    2.3240 C.ar   16  HIS16       0.0817
     29  ND1        5.1450   -4.2480    2.0340 N.ar   16  HIS16      -0.2268
     30  CD2        3.7180   -4.4550    3.6700 C.ar   16  HIS16       0.1154
     31  CE1        5.8420   -4.2830    3.1560 C.ar   16  HIS16       0.1986
     32  NE2        5.0000   -4.4040    4.1630 N.ar   16  HIS16      -0.2212
     33  N          6.5770   -0.3540    2.9120 N.3    18  GLU18      -0.1245
     34  CA         7.4300   -0.2340    4.0850 C.3    18  GLU18       0.1567
     35  C          8.3440    0.9670    3.9510 C.2    18  GLU18       0.2260
     36  O          8.8560    1.2560    2.8520 O.2    18  GLU18      -0.2867
     37  CB         8.2290   -1.4930    4.3070 C.3    18  GLU18       0.0388
     38  CG         8.9680   -1.9500    3.1400 C.3    18  GLU18       0.1160
     39  CD         9.8350   -3.1450    3.4410 C.2    18  GLU18       0.3649
     40  OE1        9.4870   -3.9250    4.3460 O.co2  18  GLU18      -0.2457
     41  OE2       10.8510   -3.3260    2.7460 O.co2  18  GLU18      -0.2457
     42  N         12.6680    0.1690    4.9260 N.3    21  GLY21      -0.1225
     43  CA        12.9010   -1.2620    5.1000 C.3    21  GLY21       0.1811
     44  C         12.8320   -1.8090    6.5190 C.2    21  GLY21       0.2280
     45  O         13.3330   -2.9180    6.7760 O.2    21  GLY21      -0.2866
     46  N          0.2830  -11.9880   -0.8570 N.3    56  GLU56      -0.1231
     47  CA         0.7370  -12.3540    0.4750 C.3    56  GLU56       0.1699
     48  C          2.0320  -11.6210    0.7900 C.2    56  GLU56       0.2593
     49  O          2.7940  -11.2750   -0.1260 O.2    56  GLU56      -0.2718
     50  CB         0.9080  -13.8650    0.6470 C.3    56  GLU56       0.0402
     51  CG         2.0190  -14.4900   -0.1850 C.3    56  GLU56       0.1161
     52  CD         2.1960  -15.9880    0.0830 C.2    56  GLU56       0.3649
     53  OE1        1.6820  -16.5110    1.0940 O.co2  56  GLU56      -0.2457
     54  OE2        2.8830  -16.6250   -0.7440 O.co2  56  GLU56      -0.2457
     55  N          2.2760  -11.3800    2.0740 N.am   57  THR57      -0.1939
     56  CA         3.5420  -10.7990    2.5120 C.3    57  THR57       0.2028
     57  C          3.9460  -11.5490    3.7710 C.2    57  THR57       0.2642
     58  O          3.2030  -12.3700    4.2990 O.2    57  THR57      -0.2714
     59  CB         3.4260   -9.3160    2.9020 C.3    57  THR57       0.1808
     60  OG1        2.7750   -9.2210    4.1740 O.3    57  THR57      -0.2208
     61  CG2        2.6800   -8.5020    1.8520 C.3    57  THR57       0.0379
     62  N          5.1150  -11.2060    4.2970 N.am   58  CYS58      -0.1953
     63  CA         5.4940  -11.6950    5.6030 C.3    58  CYS58       0.1843
     64  C          5.7180  -10.5280    6.5460 C.2    58  CYS58       0.2625
     65  O          6.6500  -10.5370    7.3540 O.2    58  CYS58      -0.2714
     66  CB         6.7640  -12.5390    5.5140 C.3    58  CYS58       0.0997
     67  SG         7.1860  -13.5000    7.0280 S.3    58  CYS58      -0.0797
     68  N          4.8470   -9.5220    6.4480 N.am   59  ARG59      -0.1977
     69  CA         5.0170   -8.2880    7.2120 C.3    59  ARG59       0.1597
     70  C          3.7130   -7.8210    7.8000 C.2    59  ARG59       0.2287
     71  O          2.6860   -7.7580    7.1060 O.2    59  ARG59      -0.2864
     72  CB         5.5250   -7.1610    6.3050 C.3    59  ARG59       0.0334
     73  CG         6.8830   -7.4060    5.6670 C.3    59  ARG59       0.0492
     74  CD         8.0260   -7.2920    6.6740 C.3    59  ARG59       0.2205
     75  NE         8.2310   -5.8850    7.0530 N.pl3  59  ARG59      -0.0865
     76  CZ         9.1730   -5.4130    7.8790 C.cat  59  ARG59       0.5346
     77  NH1       10.0480   -6.2230    8.4490 N.pl3  59  ARG59       0.1354
     78  NH2        9.2410   -4.1090    8.1360 N.pl3  59  ARG59       0.1354
     79  N         10.6480    2.8520   -4.1740 N.3   130  VAL130     -0.1231
     80  CA        11.4940    1.7460   -4.5900 C.3   130  VAL130      0.1692
     81  C         10.6100    0.5480   -4.9000 C.2   130  VAL130      0.2592
     82  O          9.8860    0.0450   -4.0210 O.2   130  VAL130     -0.2718
     83  CB        12.5180    1.3850   -3.4950 C.3   130  VAL130      0.0266
     84  CG1       13.5280    0.3620   -4.0070 C.3   130  VAL130      0.0020
     85  CG2       13.2230    2.6420   -2.9710 C.3   130  VAL130      0.0020
     86  N         10.6500    0.0860   -6.1440 N.am  131  ASN131     -0.1960
     87  CA         9.9460   -1.0970   -6.5560 C.3   131  ASN131      0.1819
     88  C         10.7640   -2.3440   -6.2840 C.2   131  ASN131      0.2621
     89  O         11.9750   -2.2690   -6.0770 O.2   131  ASN131     -0.2715
     90  CB         9.5920   -0.9710   -8.0340 C.3   131  ASN131      0.1195
     91  CG         8.5720    0.1080   -8.2660 C.2   131  ASN131      0.2630
     92  OD1        7.3750   -0.1250   -8.0780 O.2   131  ASN131     -0.2716
     93  ND2        9.0090    1.3010   -8.6300 N.am  131  ASN131     -0.0877
     94  N         10.1150   -3.4980   -6.2500 N.am  132  ARG132     -0.1977
     95  CA        10.8130   -4.7260   -5.9280 C.3   132  ARG132      0.1597
     96  C         11.8520   -5.0770   -6.9890 C.2   132  ARG132      0.2287
     97  O         12.8800   -5.6840   -6.6700 O.2   132  ARG132     -0.2864
     98  CB         9.8190   -5.8730   -5.6950 C.3   132  ARG132      0.0334
     99  CG        10.4080   -7.2290   -5.2560 C.3   132  ARG132      0.0492
    100  CD        11.1710   -7.2450   -3.9480 C.3   132  ARG132      0.2205
    101  NE        12.4910   -6.6350   -4.0810 N.pl3 132  ARG132     -0.0865
    102  CZ        13.4660   -6.7440   -3.1900 C.cat 132  ARG132      0.5346
    103  NH1       14.6210   -6.1380   -3.4080 N.pl3 132  ARG132      0.1354
    104  NH2       13.2880   -7.4770   -2.0990 N.pl3 132  ARG132      0.1354
@<TRIPOS>BOND
     1    93    91   am
     2    91    92    2
     3    91    90    1
     4    90    87    1
     5    96    97    2
     6    96    95    1
     7    87    88    1
     8    87    86    1
     9    88    94   am
    10    88    89    2
    11    94    95    1
    12    86    81   am
    13    95    98    1
    14    98    99    1
    15    19    18    2
    16    99   100    1
    17    18    17    1
    18    81    80    1
    19    81    82    2
    20    15    13    1
    21    80    79    1
    22    80    83    1
    23   101   100    1
    24   101   102    2
    25    12    11    2
    26    84    83    1
    27    17    16    1
    28    17    20    1
    29    83    85    1
    30    13    14    1
    31    13    10    1
    32   103   102    1
    33    11    16   am
    34    11    10    1
    35   102   104    1
    36    20    21    1
    37    20    22    1
    38    10     9    1
    39     9     3   am
    40     3     2    1
    41     3     4    2
    42    46    47    1
    43     2     5    1
    44     2     1    1
    45    54    52   ar
    46    26    25    2
    47    23    24    1
    48     7     6    2
    49    51    52    1
    50    51    50    1
    51    49    48    2
    52     5     6    1
    53    52    53   ar
    54     6     8   am
    55    47    50    1
    56    47    48    1
    57    25    24    1
    58    48    55   am
    59    24    27    1
    60    27    28    1
    61    61    59    1
    62    29    28   ar
    63    29    31   ar
    64    55    56    1
    65    28    30   ar
    66    56    59    1
    67    56    57    1
    68    41    39   ar
    69    36    35    2
    70    59    60    1
    71    33    34    1
    72    38    39    1
    73    38    37    1
    74    31    32   ar
    75    39    40   ar
    76    30    32   ar
    77    57    62   am
    78    57    58    2
    79    35    34    1
    80    34    37    1
    81    62    63    1
    82    42    43    1
    83    43    44    1
    84    66    63    1
    85    66    67    1
    86    63    64    1
    87    73    72    1
    88    73    74    1
    89    72    69    1
    90    68    64   am
    91    68    69    1
    92    44    45    2
    93    64    65    2
    94    74    75    1
    95    75    76    2
    96    71    70    2
    97    69    70    1
    98    76    78    1
    99    76    77    1
