@<TRIPOS>MOLECULE
tmp/5c01A00.pdb
 160 153 0 0 0
SMALL
GASTEIGER

@<TRIPOS>ATOM
      1  N         62.9580   -5.9240    6.6990 N.3    16  LEU16      -0.1231
      2  CA        61.5070   -6.1090    6.5770 C.3    16  LEU16       0.1693
      3  C         60.7400   -5.8480    7.8770 C.2    16  LEU16       0.2593
      4  O         59.6030   -5.3840    7.8410 O.2    16  LEU16      -0.2718
      5  CB        61.1960   -7.5370    6.1000 C.3    16  LEU16       0.0284
      6  CG        61.8380   -8.0180    4.7950 C.3    16  LEU16       0.0019
      7  CD1       61.6260   -9.5140    4.6170 C.3    16  LEU16       0.0001
      8  CD2       61.2750   -7.2510    3.6050 C.3    16  LEU16       0.0001
      9  N         61.3340   -6.2000    9.0150 N.am   17  GLY17      -0.1942
     10  CA        60.6980   -5.9900   10.3160 C.3    17  GLY17       0.2014
     11  C         61.3880   -6.7130   11.4630 C.2    17  GLY17       0.2639
     12  O         62.5050   -7.2220   11.3040 O.2    17  GLY17      -0.2714
     13  N         60.7150   -6.7420   12.6140 N.am   18  GLN18      -0.1963
     14  CA        61.2050   -7.4080   13.8180 C.3    18  GLN18       0.1733
     15  C         60.2810   -8.5360   14.2400 C.2    18  GLN18       0.2616
     16  O         59.1030   -8.3000   14.4720 O.2    18  GLN18      -0.2715
     17  CB        61.3000   -6.4140   14.9780 C.3    18  GLN18       0.0408
     18  CG        62.1080   -5.1690   14.6690 C.3    18  GLN18       0.0908
     19  CD        62.6250   -4.4710   15.9150 C.2    18  GLN18       0.2608
     20  OE1       63.7170   -3.8990   15.9100 O.2    18  GLN18      -0.2717
     21  NE2       61.8520   -4.5180   16.9860 N.am   18  GLN18      -0.0878
     22  N         60.8120   -9.7540   14.3390 N.am   19  GLY19      -0.1955
     23  CA        60.0870  -10.8860   14.9260 C.3    19  GLY19       0.1869
     24  C         60.4230  -10.9980   16.4040 C.2    19  GLY19       0.2309
     25  O         61.0450  -10.0880   16.9830 O.2    19  GLY19      -0.2863
     26  N         64.5860   -9.0560   10.8680 N.3    24  VAL24      -0.1245
     27  CA        64.3240   -9.8510    9.6630 C.3    24  VAL24       0.1561
     28  C         64.7020   -9.0640    8.4070 C.2    24  VAL24       0.2260
     29  O         64.2230   -7.9350    8.2140 O.2    24  VAL24      -0.2867
     30  CB        62.8510  -10.2950    9.6080 C.3    24  VAL24       0.0252
     31  CG1       62.5570  -11.0680    8.3290 C.3    24  VAL24       0.0019
     32  CG2       62.5000  -11.1650   10.8180 C.3    24  VAL24       0.0019
     33  N         64.7250  -15.1730    3.4300 N.3    35  VAL35      -0.1245
     34  CA        64.6690  -14.2310    4.5230 C.3    35  VAL35       0.1561
     35  C         65.7870  -14.6250    5.5220 C.2    35  VAL35       0.2260
     36  O         66.0920  -15.8160    5.6930 O.2    35  VAL35      -0.2867
     37  CB        63.2400  -14.2040    5.1170 C.3    35  VAL35       0.0252
     38  CG1       63.2210  -13.6810    6.5200 C.3    35  VAL35       0.0019
     39  CG2       62.3180  -13.3490    4.2450 C.3    35  VAL35       0.0019
     40  N         66.8970  -14.1940    9.4300 N.3    37  LYS37      -0.1245
     41  CA        66.3560  -13.8870   10.7460 C.3    37  LYS37       0.1561
     42  C         67.5080  -13.8070   11.7630 C.2    37  LYS37       0.2260
     43  O         67.9650  -14.8340   12.2790 O.2    37  LYS37      -0.2867
     44  CB        65.3230  -14.9440   11.1440 C.3    37  LYS37       0.0271
     45  CG        64.0590  -14.9040   10.2940 C.3    37  LYS37       0.0035
     46  CD        63.4580  -16.2750   10.0310 C.3    37  LYS37       0.0206
     47  CE        63.0390  -17.0060   11.2910 C.3    37  LYS37       0.1093
     48  NZ        61.5970  -17.3940   11.2700 N.3    37  LYS37      -0.1314
     49  N         65.6610  -18.9110    5.7880 N.3    82  THR82      -0.1203
     50  CA        64.3780  -19.5500    5.4690 C.3    82  THR82       0.1994
     51  C         63.7680  -18.9840    4.1670 C.2    82  THR82       0.2618
     52  O         64.2350  -17.9560    3.6370 O.2    82  THR82      -0.2717
     53  CB        63.3820  -19.4420    6.6620 C.3    82  THR82       0.1784
     54  OG1       62.9370  -18.0970    6.8370 O.3    82  THR82      -0.2211
     55  CG2       64.0280  -19.9230    7.9720 C.3    82  THR82       0.0376
     56  N         62.7460  -19.6720    3.6450 N.am   83  GLU83      -0.1965
     57  CA        62.1340  -19.3120    2.3500 C.3    83  GLU83       0.1733
     58  C         61.5350  -17.8830    2.3360 C.2    83  GLU83       0.2616
     59  O         60.8490  -17.4880    3.2860 O.2    83  GLU83      -0.2715
     60  CB        61.0610  -20.3570    1.9910 C.3    83  GLU83       0.0429
     61  CG        60.3410  -20.1600    0.6530 C.3    83  GLU83       0.1163
     62  CD        59.3200  -21.2490    0.3500 C.2    83  GLU83       0.3649
     63  OE1       59.0770  -22.1470    1.1940 O.co2  83  GLU83      -0.2457
     64  OE2       58.7250  -21.2020   -0.7480 O.co2  83  GLU83      -0.2457
     65  N         61.8270  -17.1040    1.2890 N.am   84  TYR84      -0.1960
     66  CA        61.0910  -15.8610    1.0160 C.3    84  TYR84       0.1771
     67  C         59.8510  -16.2450    0.2280 C.2    84  TYR84       0.2619
     68  O         59.9660  -16.7340   -0.9040 O.2    84  TYR84      -0.2715
     69  CB        61.9180  -14.8470    0.2110 C.3    84  TYR84       0.0574
     70  CG        61.2860  -13.4690    0.1670 C.ar   84  TYR84      -0.0198
     71  CD1       60.1350  -13.2240   -0.5900 C.ar   84  TYR84      -0.0009
     72  CD2       61.8300  -12.4080    0.8820 C.ar   84  TYR84      -0.0009
     73  CE1       59.5460  -11.9730   -0.6230 C.ar   84  TYR84       0.0417
     74  CE2       61.2490  -11.1410    0.8520 C.ar   84  TYR84       0.0417
     75  CZ        60.1120  -10.9300    0.0980 C.ar   84  TYR84       0.1957
     76  OH        59.5270   -9.6880    0.0530 O.3    84  TYR84      -0.2866
     77  N         58.6700  -16.0400    0.8180 N.am   85  VAL85      -0.1977
     78  CA        57.4190  -16.3280    0.1300 C.3    85  VAL85       0.1596
     79  C         56.9090  -15.0240   -0.5070 C.2    85  VAL85       0.2287
     80  O         56.6790  -14.0280    0.1860 O.2    85  VAL85      -0.2864
     81  CB        56.3990  -16.9480    1.0840 C.3    85  VAL85       0.0276
     82  CG1       55.1020  -17.2750    0.3620 C.3    85  VAL85       0.0022
     83  CG2       56.9860  -18.1980    1.7190 C.3    85  VAL85       0.0022
     84  N         54.5650  -12.9130   -1.7430 N.3    87  HIS87      -0.1226
     85  CA        53.6370  -11.8230   -1.3640 C.3    87  HIS87       0.1752
     86  C         53.5690  -11.5330    0.1430 C.2    87  HIS87       0.2597
     87  O         52.7750  -10.7120    0.5790 O.2    87  HIS87      -0.2718
     88  CB        52.2240  -12.0630   -1.9470 C.3    87  HIS87       0.0759
     89  CG        52.2020  -12.1840   -3.4390 C.ar   87  HIS87       0.0818
     90  ND1       52.2660  -11.0910   -4.2750 N.ar   87  HIS87      -0.2268
     91  CD2       52.1450  -13.2710   -4.2450 C.ar   87  HIS87       0.1154
     92  CE1       52.2470  -11.4990   -5.5330 C.ar   87  HIS87       0.1986
     93  NE2       52.1720  -12.8180   -5.5420 N.ar   87  HIS87      -0.2212
     94  N         54.4030  -12.1970    0.9370 N.am   88  GLY88      -0.1943
     95  CA        54.5710  -11.8350    2.3410 C.3    88  GLY88       0.1998
     96  C         53.4370  -12.2090    3.2900 C.2    88  GLY88       0.2480
     97  O         52.5730  -13.0110    2.9400 O.2    88  GLY88      -0.2729
     98  N         53.4170  -11.5920    4.4920 N.am   89  PRO89      -0.2726
     99  CA        52.4830  -11.9620    5.5650 C.3    89  PRO89       0.1402
    100  C         51.0170  -11.6530    5.2650 C.2    89  PRO89       0.2269
    101  O         50.7040  -10.5810    4.7170 O.2    89  PRO89      -0.2865
    102  CB        52.9600  -11.1390    6.7830 C.3    89  PRO89       0.0296
    103  CG        54.2590  -10.5190    6.3950 C.3    89  PRO89       0.0237
    104  CD        54.3310  -10.5090    4.8980 C.3    89  PRO89       0.0939
    105  N         48.4660  -11.1520    7.3650 N.3    91  ASP91      -0.1225
    106  CA        47.8780  -10.0880    8.1710 C.3    91  ASP91       0.1805
    107  C         48.0440   -8.7010    7.5270 C.2    91  ASP91       0.2597
    108  O         47.0540   -7.9710    7.4200 O.2    91  ASP91      -0.2718
    109  CB        48.3660  -10.1260    9.6350 C.3    91  ASP91       0.1424
    110  CG        49.8300   -9.7320    9.8010 C.2    91  ASP91       0.3668
    111  OD1       50.6830  -10.2150    9.0220 O.co2  91  ASP91      -0.2456
    112  OD2       50.1290   -8.9410   10.7220 O.co2  91  ASP91      -0.2456
    113  N         49.2480   -8.3760    7.0370 N.am   92  VAL92      -0.1980
    114  CA        49.4860   -7.0510    6.4070 C.3    92  VAL92       0.1595
    115  C         48.7340   -6.9310    5.0740 C.2    92  VAL92       0.2287
    116  O         48.1500   -5.8900    4.7970 O.2    92  VAL92      -0.2864
    117  CB        50.9970   -6.5590    6.3640 C.3    92  VAL92       0.0276
    118  CG1       52.0190   -7.6210    6.7320 C.3    92  VAL92       0.0022
    119  CG2       51.3990   -5.8520    5.0650 C.3    92  VAL92       0.0022
    120  N         50.7480  -13.3290   10.9990 N.3   133  ARG133     -0.1231
    121  CA        52.1320  -12.9430   10.7050 C.3   133  ARG133      0.1694
    122  C         52.9760  -14.0760   10.1250 C.2   133  ARG133      0.2592
    123  O         53.8800  -13.8210    9.3280 O.2   133  ARG133     -0.2718
    124  CB        52.8250  -12.3650   11.9660 C.3   133  ARG133      0.0321
    125  CG        53.0450  -10.8570   11.9400 C.3   133  ARG133      0.0489
    126  CD        52.5020  -10.1080   13.1650 C.3   133  ARG133      0.2205
    127  NE        51.0520   -9.8510   13.0450 N.pl3 133  ARG133     -0.0865
    128  CZ        50.3460   -8.9290   13.7190 C.cat 133  ARG133      0.5346
    129  NH1       49.0420   -8.8170   13.4850 N.pl3 133  ARG133      0.1354
    130  NH2       50.9110   -8.1010   14.6020 N.pl3 133  ARG133      0.1354
    131  N         52.6880  -15.3090   10.5340 N.am  134  ASN134     -0.1974
    132  CA        53.4220  -16.4810   10.0650 C.3   134  ASN134      0.1688
    133  C         52.7100  -17.2580    8.9520 C.2   134  ASN134      0.2292
    134  O         53.1900  -18.3170    8.5830 O.2   134  ASN134     -0.2864
    135  CB        53.7730  -17.4140   11.2440 C.3   134  ASN134      0.1181
    136  CG        54.7940  -16.8080   12.1940 C.2   134  ASN134      0.2629
    137  OD1       55.5790  -15.9430   11.8250 O.2   134  ASN134     -0.2716
    138  ND2       54.7960  -17.2860   13.4270 N.am  134  ASN134     -0.0877
    139  N         52.0690  -17.0350    5.0350 N.3   136  LEU136     -0.1245
    140  CA        52.6980  -16.2910    3.9580 C.3   136  LEU136      0.1561
    141  C         52.0100  -16.5930    2.6150 C.2   136  LEU136      0.2260
    142  O         51.7010  -17.7460    2.3240 O.2   136  LEU136     -0.2867
    143  CB        54.1870  -16.6240    3.9160 C.3   136  LEU136      0.0270
    144  CG        54.9660  -16.3020    5.1970 C.3   136  LEU136      0.0019
    145  CD1       56.2470  -17.1160    5.2740 C.3   136  LEU136      0.0001
    146  CD2       55.2580  -14.8070    5.3130 C.3   136  LEU136      0.0001
    147  N         55.0110  -20.4420    8.0770 N.3   153  SER153     -0.1202
    148  CA        56.4530  -20.3340    8.3560 C.3   153  SER153      0.2020
    149  C         56.8070  -21.1120    9.6070 C.2   153  SER153      0.2618
    150  O         55.9180  -21.5430   10.3380 O.2   153  SER153     -0.2717
    151  CB        56.8840  -18.8780    8.4960 C.3   153  SER153      0.2103
    152  OG        56.5530  -18.3110    9.7530 O.3   153  SER153     -0.2182
    153  N         58.1040  -21.3030    9.8410 N.am  154  ASP154     -0.1973
    154  CA        58.6070  -21.8530   11.1140 C.3   154  ASP154      0.1709
    155  C         58.1780  -20.9420   12.2980 C.2   154  ASP154      0.2293
    156  O         57.8740  -19.7700   12.0860 O.2   154  ASP154     -0.2864
    157  CB        60.1360  -21.9580   11.0820 C.3   154  ASP154      0.1436
    158  CG        60.8040  -20.5930   11.0170 C.2   154  ASP154      0.3671
    159  OD1       60.8640  -20.0160    9.9090 O.co2 154  ASP154     -0.2456
    160  OD2       61.2270  -20.0760   12.0790 O.co2 154  ASP154     -0.2456
@<TRIPOS>BOND
     1    93    92   ar
     2    93    91   ar
     3    92    90   ar
     4    90    89   ar
     5    91    89   ar
     6    89    88    1
     7    88    85    1
     8    84    85    1
     9    85    86    1
    10    68    67    2
    11    64    62   ar
    12    73    71   ar
    13    73    75   ar
    14    71    70   ar
    15    79    78    1
    16    79    80    2
    17    76    75    1
    18    75    74   ar
    19    78    77    1
    20    78    81    1
    21    86    87    2
    22    86    94   am
    23    70    69    1
    24    70    72   ar
    25    69    66    1
    26    67    77   am
    27    67    66    1
    28    62    61    1
    29    62    63   ar
    30    82    81    1
    31    61    60    1
    32    74    72   ar
    33    94    95    1
    34    66    65    1
    35    81    83    1
    36    65    58   am
    37    60    57    1
    38   142   141    2
    39    58    57    1
    40    58    59    2
    41    95    96    1
    42    57    56    1
    43   141   140    1
    44    97    96    2
    45    96    98   am
    46    33    34    1
    47     8     6    1
    48    52    51    2
    49    56    51   am
    50   143   140    1
    51   143   144    1
    52   140   139    1
    53    51    50    1
    54    39    37    1
    55    98   104    1
    56    98    99    1
    57    34    37    1
    58    34    35    1
    59     7     6    1
    60   101   100    2
    61     6     5    1
    62   116   115    2
    63   104   103    1
    64   119   117    1
    65   115   114    1
    66    37    38    1
    67   144   145    1
    68   144   146    1
    69   100    99    1
    70    50    49    1
    71    50    53    1
    72    35    36    2
    73    99   102    1
    74     5     2    1
    75   117   114    1
    76   117   118    1
    77   103   102    1
    78   114   113    1
    79     2     1    1
    80     2     3    1
    81    53    54    1
    82    53    55    1
    83   113   107   am
    84   105   106    1
    85   108   107    2
    86   107   106    1
    87     4     3    2
    88     3     9   am
    89   147   148    1
    90   106   109    1
    91    29    28    2
    92    31    30    1
    93   148   151    1
    94   148   149    1
    95    28    27    1
    96   151   152    1
    97   134   133    2
    98   133   132    1
    99     9    10    1
   100   111   110   ar
   101   123   122    2
   102    40    41    1
   103   149   153   am
   104   149   150    2
   105    30    27    1
   106    30    32    1
   107   109   110    1
   108    27    26    1
   109   110   112   ar
   110   153   154    1
   111   159   158   ar
   112    46    45    1
   113    46    47    1
   114   132   131    1
   115   132   135    1
   116   122   131   am
   117   122   121    1
   118    45    44    1
   119    10    11    1
   120   121   120    1
   121   121   124    1
   122    41    44    1
   123    41    42    1
   124   158   157    1
   125   158   160   ar
   126   157   154    1
   127   154   155    1
   128   135   136    1
   129    48    47    1
   130    12    11    2
   131    11    13   am
   132    42    43    2
   133   137   136    2
   134   125   124    1
   135   125   126    1
   136   156   155    2
   137   136   138   am
   138    13    14    1
   139   127   126    1
   140   127   128    2
   141   129   128    1
   142   128   130    1
   143    14    15    1
   144    14    17    1
   145    15    22   am
   146    15    16    2
   147    22    23    1
   148    18    17    1
   149    18    19    1
   150    23    24    1
   151    20    19    2
   152    19    21   am
   153    24    25    2
