@<TRIPOS>MOLECULE
tmp/5c03B00.pdb
 198 187 0 0 0
SMALL
GASTEIGER

@<TRIPOS>ATOM
      1  N         33.0970  -12.5710   52.4730 N.3    16  LEU16      -0.1231
      2  CA        31.6840  -12.3600   52.1770 C.3    16  LEU16       0.1693
      3  C         31.3150  -12.6230   50.7190 C.2    16  LEU16       0.2593
      4  O         30.1580  -12.8870   50.4110 O.2    16  LEU16      -0.2718
      5  CB        31.2990  -10.9150   52.5050 C.3    16  LEU16       0.0284
      6  CG        31.4960  -10.4750   53.9550 C.3    16  LEU16       0.0019
      7  CD1       31.1720   -9.0020   54.0850 C.3    16  LEU16       0.0001
      8  CD2       30.6350  -11.2970   54.9010 C.3    16  LEU16       0.0001
      9  N         32.2770  -12.4970   49.8170 N.am   17  GLY17      -0.1942
     10  CA        32.0090  -12.7040   48.4030 C.3    17  GLY17       0.2014
     11  C         33.0640  -12.1000   47.5100 C.2    17  GLY17       0.2639
     12  O         33.9170  -11.3320   47.9710 O.2    17  GLY17      -0.2714
     13  N         33.0000  -12.4580   46.2260 N.am   18  GLN18      -0.1963
     14  CA        33.8290  -11.8390   45.2060 C.3    18  GLN18       0.1733
     15  C         33.0440  -10.7210   44.5540 C.2    18  GLN18       0.2617
     16  O         31.8630  -10.8690   44.2720 O.2    18  GLN18      -0.2715
     17  CB        34.2510  -12.8540   44.1390 C.3    18  GLN18       0.0408
     18  CG        35.0720  -14.0040   44.6820 C.3    18  GLN18       0.0908
     19  CD        35.9090  -14.7100   43.6270 C.2    18  GLN18       0.2608
     20  OE1       35.5500  -14.7600   42.4480 O.2    18  GLN18      -0.2717
     21  NE2       37.0340  -15.2740   44.0560 N.am   18  GLN18      -0.0878
     22  N         33.7100   -9.6000   44.3050 N.am   19  GLY19      -0.1940
     23  CA        33.1130   -8.5120   43.5680 C.3    19  GLY19       0.2014
     24  C         33.8670   -8.2980   42.2730 C.2    19  GLY19       0.2639
     25  O         34.5970   -9.1850   41.8040 O.2    19  GLY19      -0.2714
     26  N         33.7060   -7.1100   41.7110 N.am   20  THR20      -0.1950
     27  CA        34.3710   -6.7380   40.4760 C.3    20  THR20       0.1897
     28  C         35.8350   -6.4170   40.7710 C.2    20  THR20       0.2313
     29  O         36.1640   -5.3400   41.2670 O.2    20  THR20      -0.2863
     30  CB        33.6520   -5.5550   39.8230 C.3    20  THR20       0.1794
     31  OG1       32.2900   -5.9320   39.5820 O.3    20  THR20      -0.2208
     32  CG2       34.3080   -5.1630   38.5090 C.3    20  THR20       0.0378
     33  N         37.6290   -7.8350   43.0080 N.3    22  THR22      -0.1218
     34  CA        37.7950   -7.7330   44.4430 C.3    22  THR22       0.1862
     35  C         37.4090   -9.0090   45.1650 C.2    22  THR22       0.2287
     36  O         36.7290   -9.8810   44.6130 O.2    22  THR22      -0.2866
     37  CB        36.8900   -6.6360   45.0320 C.3    22  THR22       0.1770
     38  OG1       35.5250   -6.9680   44.7840 O.3    22  THR22      -0.2211
     39  CG2       37.1990   -5.2660   44.4370 C.3    22  THR22       0.0375
     40  N         35.7150   -9.3840   49.1330 N.3    24  VAL24      -0.1245
     41  CA        35.1340   -8.5290   50.1590 C.3    24  VAL24       0.1561
     42  C         35.0950   -9.3430   51.4340 C.2    24  VAL24       0.2260
     43  O         34.6040  -10.4840   51.4300 O.2    24  VAL24      -0.2867
     44  CB        33.7160   -8.0660   49.7660 C.3    24  VAL24       0.0252
     45  CG1       33.1020   -7.1980   50.8570 C.3    24  VAL24       0.0019
     46  CG2       33.7660   -7.2870   48.4520 C.3    24  VAL24       0.0019
     47  N         33.3780   -3.3050   56.0680 N.3    35  VAL35      -0.1245
     48  CA        33.7940   -4.2770   55.0690 C.3    35  VAL35       0.1561
     49  C         35.1380   -3.8340   54.4970 C.2    35  VAL35       0.2260
     50  O         35.4300   -2.6370   54.3850 O.2    35  VAL35      -0.2867
     51  CB        32.7520   -4.5820   53.9400 C.3    35  VAL35       0.0252
     52  CG1       31.4440   -5.1010   54.5340 C.3    35  VAL35       0.0019
     53  CG2       32.4910   -3.3950   53.0510 C.3    35  VAL35       0.0019
     54  N         37.2320   -4.1830   51.0820 N.3    37  LYS37      -0.1245
     55  CA        37.1690   -4.5130   49.6750 C.3    37  LYS37       0.1561
     56  C         38.5880   -4.5770   49.1220 C.2    37  LYS37       0.2260
     57  O         39.2110   -3.5570   48.8400 O.2    37  LYS37      -0.2867
     58  CB        36.3100   -3.4970   48.9200 C.3    37  LYS37       0.0271
     59  CG        34.9200   -3.3490   49.5080 C.3    37  LYS37       0.0035
     60  CD        33.8460   -3.0780   48.4760 C.3    37  LYS37       0.0206
     61  CE        34.0240   -1.7410   47.7760 C.3    37  LYS37       0.1093
     62  NZ        33.0060   -1.5710   46.6890 N.3    37  LYS37      -0.1314
     63  N         26.2580    4.8000   51.9910 N.3    66  ALA66      -0.1245
     64  CA        27.1460    4.1080   52.9320 C.3    66  ALA66       0.1562
     65  C         28.4770    4.8450   53.0310 C.2    66  ALA66       0.2260
     66  O         28.9750    5.3070   52.0050 O.2    66  ALA66      -0.2867
     67  CB        27.3780    2.6760   52.4660 C.3    66  ALA66       0.0290
     68  N         34.9040    0.3640   54.0800 N.3    82  THR82      -0.1203
     69  CA        33.5840    0.9820   54.0170 C.3    82  THR82       0.1994
     70  C         32.7020    0.5090   55.1630 C.2    82  THR82       0.2618
     71  O         33.0020   -0.4780   55.8480 O.2    82  THR82      -0.2717
     72  CB        32.9110    0.7650   52.6310 C.3    82  THR82       0.1784
     73  OG1       32.4470   -0.5810   52.5030 O.3    82  THR82      -0.2211
     74  CG2       33.8880    1.0080   51.5190 C.3    82  THR82       0.0376
     75  N         31.6230    1.2500   55.3830 N.am   83  GLU83      -0.1965
     76  CA        30.6360    0.9210   56.3950 C.3    83  GLU83       0.1733
     77  C         30.0300   -0.4820   56.1640 C.2    83  GLU83       0.2616
     78  O         29.6260   -0.8020   55.0470 O.2    83  GLU83      -0.2715
     79  CB        29.5380    1.9900   56.3460 C.3    83  GLU83       0.0429
     80  CG        28.3870    1.8040   57.3060 C.3    83  GLU83       0.1163
     81  CD        27.3180    2.8700   57.1510 C.2    83  GLU83       0.3649
     82  OE1       27.4330    3.7490   56.2550 O.co2  83  GLU83      -0.2457
     83  OE2       26.3460    2.8090   57.9270 O.co2  83  GLU83      -0.2457
     84  N         29.9840   -1.3110   57.2130 N.am   84  TYR84      -0.1960
     85  CA        29.2120   -2.5630   57.1800 C.3    84  TYR84       0.1771
     86  C         27.7360   -2.2280   57.3490 C.2    84  TYR84       0.2619
     87  O         27.3530   -1.6330   58.3480 O.2    84  TYR84      -0.2715
     88  CB        29.6370   -3.5410   58.2920 C.3    84  TYR84       0.0574
     89  CG        29.1190   -4.9430   58.0460 C.ar   84  TYR84      -0.0198
     90  CD1       27.7830   -5.2660   58.2510 C.ar   84  TYR84      -0.0009
     91  CD2       29.9590   -5.9310   57.5590 C.ar   84  TYR84      -0.0009
     92  CE1       27.3080   -6.5380   57.9850 C.ar   84  TYR84       0.0417
     93  CE2       29.4930   -7.2050   57.2990 C.ar   84  TYR84       0.0417
     94  CZ        28.1760   -7.5060   57.5110 C.ar   84  TYR84       0.1957
     95  OH        27.7360   -8.7760   57.2260 O.3    84  TYR84      -0.2866
     96  N         26.9000   -2.6170   56.3970 N.am   85  VAL85      -0.1977
     97  CA        25.4800   -2.3730   56.5120 C.3    85  VAL85       0.1596
     98  C         24.7640   -3.6740   56.9010 C.2    85  VAL85       0.2287
     99  O         24.8060   -4.6660   56.1840 O.2    85  VAL85      -0.2864
    100  CB        24.9010   -1.7200   55.2400 C.3    85  VAL85       0.0276
    101  CG1       23.4340   -1.3740   55.4530 C.3    85  VAL85       0.0022
    102  CG2       25.6760   -0.4600   54.9040 C.3    85  VAL85       0.0022
    103  N         22.7520   -6.5560   54.7200 N.3    88  GLY88      -0.1210
    104  CA        23.3160   -6.9420   53.4320 C.3    88  GLY88       0.1940
    105  C         22.5400   -6.4760   52.2090 C.2    88  GLY88       0.2453
    106  O         21.6550   -5.6350   52.3200 O.2    88  GLY88      -0.2732
    107  N         22.8830   -7.0270   51.0270 N.am   89  PRO89      -0.2728
    108  CA        22.3100   -6.6050   49.7570 C.3    89  PRO89       0.1401
    109  C         20.8220   -6.8600   49.6500 C.2    89  PRO89       0.2269
    110  O         20.3190   -7.9160   50.0630 O.2    89  PRO89      -0.2865
    111  CB        23.0640   -7.4400   48.7080 C.3    89  PRO89       0.0296
    112  CG        24.2910   -7.9210   49.3910 C.3    89  PRO89       0.0237
    113  CD        23.9580   -8.0250   50.8440 C.3    89  PRO89       0.0939
    114  N         19.5860   -9.9970   47.3090 N.3    92  VAL92      -0.1245
    115  CA        19.7020  -11.2720   48.0160 C.3    92  VAL92       0.1561
    116  C         18.5550  -11.4020   48.9990 C.2    92  VAL92       0.2260
    117  O         17.8920  -12.4390   49.0550 O.2    92  VAL92      -0.2867
    118  CB        21.0560  -11.3930   48.7450 C.3    92  VAL92       0.0252
    119  CG1       21.0850  -12.5980   49.6670 C.3    92  VAL92       0.0019
    120  CG2       22.1830  -11.4850   47.7300 C.3    92  VAL92       0.0019
    121  N         27.1120    2.3470   39.0590 N.3   129  ASN129     -0.1240
    122  CA        26.9340    0.9610   39.4960 C.3   129  ASN129      0.1653
    123  C         25.7190    0.8410   40.4180 C.2   129  ASN129      0.2266
    124  O         25.7580    0.1580   41.4490 O.2   129  ASN129     -0.2867
    125  CB        28.2210    0.4630   40.1670 C.3   129  ASN129      0.1155
    126  CG        28.3670   -1.0530   40.1740 C.2   129  ASN129      0.2627
    127  OD1       29.3720   -1.5810   40.6900 O.2   129  ASN129     -0.2716
    128  ND2       27.4130   -1.7540   39.6030 N.am  129  ASN129     -0.0877
    129  N         22.1850   -5.2640   44.2080 N.3   133  ARG133     -0.1231
    130  CA        23.3450   -5.7230   44.9920 C.3   133  ARG133      0.1694
    131  C         24.0080   -4.5830   45.7870 C.2   133  ARG133      0.2592
    132  O         24.4990   -4.8100   46.8910 O.2   133  ARG133     -0.2718
    133  CB        24.3880   -6.4020   44.0790 C.3   133  ARG133      0.0321
    134  CG        25.5160   -7.1020   44.8240 C.3   133  ARG133      0.0489
    135  CD        26.6570   -7.5030   43.8860 C.3   133  ARG133      0.2205
    136  NE        27.2940   -6.3380   43.2350 N.pl3 133  ARG133     -0.0865
    137  CZ        27.1720   -6.0160   41.9460 C.cat 133  ARG133      0.5346
    138  NH1       26.4460   -6.7630   41.1180 N.pl3 133  ARG133      0.1354
    139  NH2       27.7850   -4.9410   41.4670 N.pl3 133  ARG133      0.1354
    140  N         24.0200   -3.3730   45.2280 N.am  134  ASN134     -0.1974
    141  CA        24.6940   -2.2330   45.8690 C.3   134  ASN134      0.1688
    142  C         23.7680   -1.3800   46.7080 C.2   134  ASN134      0.2292
    143  O         24.1500   -0.2910   47.1410 O.2   134  ASN134     -0.2864
    144  CB        25.4060   -1.3680   44.8330 C.3   134  ASN134      0.1181
    145  CG        26.7190   -1.9770   44.3910 C.2   134  ASN134      0.2629
    146  OD1       27.3370   -2.7400   45.1390 O.2   134  ASN134     -0.2716
    147  ND2       27.1440   -1.6680   43.1660 N.am  134  ASN134     -0.0877
    148  N         22.0180   -1.6130   50.1900 N.3   136  LEU136     -0.1245
    149  CA        22.2120   -2.3780   51.3960 C.3   136  LEU136      0.1561
    150  C         21.1250   -2.0140   52.4020 C.2   136  LEU136      0.2260
    151  O         20.7210   -0.8500   52.4930 O.2   136  LEU136     -0.2867
    152  CB        23.6150   -2.1030   51.9390 C.3   136  LEU136      0.0270
    153  CG        24.7330   -2.4410   50.9300 C.3   136  LEU136      0.0019
    154  CD1       26.0370   -1.7510   51.2900 C.3   136  LEU136      0.0001
    155  CD2       24.9430   -3.9460   50.8540 C.3   136  LEU136      0.0001
    156  N         25.6880    1.6740   48.2580 N.3   153  SER153     -0.1202
    157  CA        27.1020    1.3810   48.3160 C.3   153  SER153      0.2020
    158  C         27.9050    2.2080   47.2970 C.2   153  SER153      0.2619
    159  O         27.3430    2.7650   46.3650 O.2   153  SER153     -0.2717
    160  CB        27.2900   -0.1140   47.9970 C.3   153  SER153      0.2103
    161  OG        28.6000   -0.5050   48.2900 O.3   153  SER153     -0.2182
    162  N         29.2270    2.2660   47.4790 N.am  154  ASP154     -0.1960
    163  CA        30.1300    2.9010   46.5120 C.3   154  ASP154      0.1825
    164  C         30.1400    2.1000   45.1940 C.2   154  ASP154      0.2464
    165  O         29.7720    0.9330   45.1890 O.2   154  ASP154     -0.2730
    166  CB        31.5480    2.9500   47.0750 C.3   154  ASP154      0.1450
    167  CG        32.1290    1.5750   47.2880 C.2   154  ASP154      0.3671
    168  OD1       31.8600    0.9780   48.3580 O.co2 154  ASP154     -0.2456
    169  OD2       32.8270    1.0720   46.3810 O.co2 154  ASP154     -0.2456
    170  N         30.5840    2.7150   44.0850 N.am  155  PRO155     -0.2715
    171  CA        30.5820    1.9880   42.8070 C.3   155  PRO155      0.1536
    172  C         31.7600    1.0340   42.5330 C.2   155  PRO155      0.2599
    173  O         31.7850    0.4080   41.4760 O.2   155  PRO155     -0.2715
    174  CB        30.5560    3.1110   41.7690 C.3   155  PRO155      0.0310
    175  CG        31.1460    4.2950   42.4510 C.3   155  PRO155      0.0237
    176  CD        30.7830    4.1650   43.9000 C.3   155  PRO155      0.0939
    177  N         32.7050    0.9080   43.4630 N.am  156  GLY156     -0.1941
    178  CA        33.8770    0.0540   43.2650 C.3   156  GLY156      0.2014
    179  C         34.7540    0.6240   42.1720 C.2   156  GLY156      0.2638
    180  O         34.8030    1.8430   41.9930 O.2   156  GLY156     -0.2714
    181  N         35.4310   -0.2460   41.4270 N.am  157  VAL157     -0.1977
    182  CA        36.2640    0.2090   40.3200 C.3   157  VAL157      0.1596
    183  C         35.3790    0.9620   39.3490 C.2   157  VAL157      0.2287
    184  O         34.3630    0.4360   38.8890 O.2   157  VAL157     -0.2864
    185  CB        36.9760   -0.9500   39.5840 C.3   157  VAL157      0.0276
    186  CG1       37.7890   -0.4120   38.4060 C.3   157  VAL157      0.0022
    187  CG2       37.8650   -1.7280   40.5400 C.3   157  VAL157      0.0022
    188  N         27.0910   -6.2310   33.2580 N.3   170  ARG170     -0.1245
    189  CA        26.3070   -5.2360   34.0110 C.3   170  ARG170      0.1563
    190  C         24.9540   -4.8670   33.3350 C.2   170  ARG170      0.2260
    191  O         24.1480   -4.1090   33.8970 O.2   170  ARG170     -0.2867
    192  CB        27.1810   -3.9890   34.2390 C.3   170  ARG170      0.0307
    193  CG        26.6480   -3.0180   35.2810 C.3   170  ARG170      0.0489
    194  CD        27.7070   -2.0240   35.7730 C.3   170  ARG170      0.2205
    195  NE        28.7830   -2.6730   36.5210 N.pl3 170  ARG170     -0.0865
    196  CZ        29.7460   -2.0330   37.1900 C.cat 170  ARG170      0.5346
    197  NH1       30.6570   -2.7300   37.8500 N.pl3 170  ARG170      0.1354
    198  NH2       29.7890   -0.7050   37.2270 N.pl3 170  ARG170      0.1354
@<TRIPOS>BOND
     1   188   189    1
     2   190   191    2
     3   190   189    1
     4   189   192    1
     5   192   193    1
     6   193   194    1
     7   194   195    1
     8   195   196    2
     9   196   198    1
    10   196   197    1
    11   186   185    1
    12    32    30    1
    13   184   183    2
    14   121   122    1
    15   183   182    1
    16   122   125    1
    17   122   123    1
    18    31    30    1
    19   185   182    1
    20   185   187    1
    21   128   126   am
    22    30    27    1
    23   125   126    1
    24   126   127    2
    25   182   181    1
    26   123   124    2
    27    27    28    1
    28    27    26    1
    29    28    29    2
    30   138   137    1
    31   181   179   am
    32   139   137    1
    33   173   172    2
    34    26    24   am
    35   174   175    1
    36   174   171    1
    37    25    24    2
    38   137   136    2
    39   180   179    2
    40   179   178    1
    41    24    23    1
    42    20    19    2
    43   175   176    1
    44   172   171    1
    45   172   177   am
    46   171   170    1
    47    33    34    1
    48   147   145   am
    49   136   135    1
    50   178   177    1
    51    23    22    1
    52    19    21   am
    53    19    18    1
    54   135   134    1
    55   176   170    1
    56   133   134    1
    57   133   130    1
    58   170   164   am
    59    17    18    1
    60    17    14    1
    61   129   130    1
    62    16    15    2
    63    22    15   am
    64   145   144    1
    65   145   146    2
    66    39    37    1
    67    34    37    1
    68    34    35    1
    69    15    14    1
    70    36    35    2
    71    38    37    1
    72   144   141    1
    73   130   131    1
    74   165   164    2
    75   164   163    1
    76    14    13    1
    77   140   131   am
    78   140   141    1
    79   131   132    2
    80   141   142    1
    81    13    11   am
    82   159   158    2
    83   169   167   ar
    84   163   166    1
    85   163   162    1
    86    62    61    1
    87   142   143    2
    88   166   167    1
    89   167   168   ar
    90   158   162   am
    91   158   157    1
    92   114   115    1
    93    11    12    2
    94    11    10    1
    95   120   118    1
    96    61    60    1
    97   160   161    1
    98   160   157    1
    99   115   118    1
   100   115   116    1
   101   156   157    1
   102    10     9    1
   103    46    44    1
   104    60    59    1
   105   111   112    1
   106   111   108    1
   107   118   119    1
   108    57    56    2
   109    58    59    1
   110    58    55    1
   111   116   117    2
   112    56    55    1
   113    40    41    1
   114   112   113    1
   115   109   108    1
   116   109   110    2
   117    55    54    1
   118   108   107    1
   119    44    41    1
   120    44    45    1
   121     9     3   am
   122    41    42    1
   123   148   149    1
   124     4     3    2
   125     3     2    1
   126   113   107    1
   127   155   153    1
   128   153   154    1
   129   153   152    1
   130   107   105   am
   131   149   152    1
   132   149   150    1
   133    43    42    2
   134    74    72    1
   135    63    64    1
   136    66    65    2
   137     2     1    1
   138     2     5    1
   139   105   106    2
   140   105   104    1
   141   150   151    2
   142    67    64    1
   143    73    72    1
   144     5     6    1
   145    72    69    1
   146    64    65    1
   147    53    51    1
   148   104   103    1
   149    51    52    1
   150    51    48    1
   151     6     7    1
   152     6     8    1
   153    69    68    1
   154    69    70    1
   155    50    49    2
   156    49    48    1
   157   102   100    1
   158    78    77    2
   159    48    47    1
   160    70    75   am
   161    70    71    2
   162   100   101    1
   163   100    97    1
   164    75    76    1
   165    77    76    1
   166    77    84   am
   167    99    98    2
   168    82    81   ar
   169    79    76    1
   170    79    80    1
   171    96    97    1
   172    96    86   am
   173    97    98    1
   174    81    80    1
   175    81    83   ar
   176    85    84    1
   177    85    86    1
   178    85    88    1
   179    95    94    1
   180    93    94   ar
   181    93    91   ar
   182    86    87    2
   183    94    92   ar
   184    91    89   ar
   185    92    90   ar
   186    89    90   ar
   187    89    88    1
