@<TRIPOS>MOLECULE
tmp/5c0eA08.pdb
 83 83 0 0 0
SMALL
GASTEIGER

@<TRIPOS>ATOM
      1  N         18.0640  -12.1650   36.0960 N.3    43  SER43      -0.1217
      2  CA        17.2500  -11.7940   37.2560 C.3    43  SER43       0.1889
      3  C         16.0080  -12.6560   37.4480 C.2    43  SER43       0.2288
      4  O         15.5520  -12.8230   38.6110 O.2    43  SER43      -0.2866
      5  CB        16.7630  -10.3470   37.1680 C.3    43  SER43       0.2089
      6  OG        15.8440  -10.2040   36.1510 O.3    43  SER43      -0.2183
      7  N         13.2360  -11.6060   36.9310 N.3    45  ARG45      -0.1231
      8  CA        12.2880  -10.6390   37.4900 C.3    45  ARG45       0.1694
      9  C         11.8410   -9.6990   36.3850 C.2    45  ARG45       0.2592
     10  O         12.5650   -9.4390   35.4330 O.2    45  ARG45      -0.2718
     11  CB        12.9530   -9.8070   38.5770 C.3    45  ARG45       0.0321
     12  CG        13.5450  -10.5860   39.7580 C.3    45  ARG45       0.0489
     13  CD        12.4470  -10.8570   40.7340 C.3    45  ARG45       0.2205
     14  NE        11.8820   -9.6790   41.3870 N.pl3  45  ARG45      -0.0865
     15  CZ        10.8560   -9.7430   42.2480 C.cat  45  ARG45       0.5346
     16  NH1       10.2880  -10.9170   42.5670 N.pl3  45  ARG45       0.1354
     17  NH2       10.3840   -8.6370   42.7850 N.pl3  45  ARG45       0.1354
     18  N         10.6620   -9.1320   36.5750 N.am   46  MET46      -0.1965
     19  CA        10.3140   -7.8960   35.8400 C.3    46  MET46       0.1736
     20  C         11.3150   -6.8100   36.2910 C.2    46  MET46       0.2616
     21  O         11.5490   -6.6400   37.4840 O.2    46  MET46      -0.2715
     22  CB         8.8960   -7.4790   36.1040 C.3    46  MET46       0.0427
     23  CG         8.3680   -6.4160   35.1260 C.3    46  MET46       0.0599
     24  SD         8.1650   -6.9570   33.4380 S.3    46  MET46      -0.1393
     25  CE         6.4570   -7.2650   33.5470 C.3    46  MET46       0.0692
     26  N         11.8740   -6.0910   35.3040 N.am   47  GLU47      -0.1964
     27  CA        12.9540   -5.1150   35.5420 C.3    47  GLU47       0.1718
     28  C         12.4920   -3.7630   35.0660 C.2    47  GLU47       0.2458
     29  O         11.8160   -3.6670   33.9860 O.2    47  GLU47      -0.2730
     30  CB        14.2080   -5.5060   34.7270 C.3    47  GLU47       0.0428
     31  CG        14.8480   -6.8500   35.0940 C.3    47  GLU47       0.1163
     32  CD        16.0120   -7.1250   34.1780 C.2    47  GLU47       0.3649
     33  OE1       16.2040   -8.2860   33.7970 O.co2  47  GLU47      -0.2457
     34  OE2       16.7150   -6.1560   33.8520 O.co2  47  GLU47      -0.2457
     35  N         12.9440   -2.6990   35.7400 N.am   48  PRO48      -0.2727
     36  CA        12.6630   -1.3360   35.3300 C.3    48  PRO48       0.1402
     37  C         13.4670   -0.9260   34.1130 C.2    48  PRO48       0.2269
     38  O         14.6270   -1.3070   33.9530 O.2    48  PRO48      -0.2865
     39  CB        13.0650   -0.5280   36.5620 C.3    48  PRO48       0.0296
     40  CG        14.2740   -1.2820   37.1130 C.3    48  PRO48       0.0237
     41  CD        13.7290   -2.7220   36.9770 C.3    48  PRO48       0.0939
     42  N          8.3660    2.3240   42.4640 N.3    56  GLU56      -0.1231
     43  CA         7.3560    1.3750   42.9160 C.3    56  GLU56       0.1699
     44  C          8.0290    0.3910   43.8840 C.2    56  GLU56       0.2593
     45  O          9.2040   -0.0080   43.6980 O.2    56  GLU56      -0.2718
     46  CB         6.7360    0.6060   41.7400 C.3    56  GLU56       0.0402
     47  CG         5.9880    1.4470   40.7070 C.3    56  GLU56       0.1161
     48  CD         4.7360    2.1050   41.2560 C.2    56  GLU56       0.3649
     49  OE1        4.2250    1.7890   42.3860 O.co2  56  GLU56      -0.2457
     50  OE2        4.2500    3.0850   40.5650 O.co2  56  GLU56      -0.2457
     51  N          7.2660   -0.0510   44.8530 N.am   57  GLY57      -0.1943
     52  CA         7.8350   -0.8510   45.9500 C.3    57  GLY57       0.1998
     53  C          7.8200   -2.3210   45.6260 C.2    57  GLY57       0.2480
     54  O          7.3650   -2.7660   44.5470 O.2    57  GLY57      -0.2729
     55  N          8.3500   -3.1220   46.5570 N.am   58  PRO58      -0.2726
     56  CA         8.4960   -4.5210   46.3340 C.3    58  PRO58       0.1402
     57  C          7.2070   -5.2670   46.0470 C.2    58  PRO58       0.2269
     58  O          7.2580   -6.2490   45.2990 O.2    58  PRO58      -0.2865
     59  CB         9.0960   -5.0260   47.6600 C.3    58  PRO58       0.0296
     60  CG         9.7370   -3.8350   48.2880 C.3    58  PRO58       0.0237
     61  CD         8.9140   -2.6750   47.8530 C.3    58  PRO58       0.0939
     62  N          6.7870   -5.0180   42.3420 N.3    61  TRP61      -0.1227
     63  CA         7.7110   -5.8090   41.5440 C.3    61  TRP61       0.1737
     64  C          7.4230   -7.2990   41.6710 C.2    61  TRP61       0.2595
     65  O          7.4700   -8.0410   40.6680 O.2    61  TRP61      -0.2718
     66  CB         9.1660   -5.4320   41.8630 C.3    61  TRP61       0.0564
     67  CG         9.4360   -4.0320   41.4360 C.ar   61  TRP61       0.0003
     68  CD1        9.5380   -2.9460   42.2140 C.ar   61  TRP61       0.0946
     69  CD2        9.5890   -3.5980   40.0630 C.ar   61  TRP61       0.0152
     70  NE1        9.7000   -1.8180   41.4190 N.ar   61  TRP61      -0.2442
     71  CE2        9.7180   -2.1990   40.1020 C.ar   61  TRP61       0.0810
     72  CE3        9.5790   -4.2600   38.8120 C.ar   61  TRP61       0.0012
     73  CZ2        9.8890   -1.4450   38.9510 C.ar   61  TRP61       0.0191
     74  CZ3        9.7290   -3.5280   37.6750 C.ar   61  TRP61       0.0001
     75  CH2        9.8970   -2.1010   37.7540 C.ar   61  TRP61       0.0015
     76  N          7.1050   -7.7270   42.8930 N.am   62  ASP62      -0.1974
     77  CA         6.7040   -9.1650   43.0610 C.3    62  ASP62       0.1709
     78  C          5.4680   -9.5100   42.2530 C.2    62  ASP62       0.2293
     79  O          5.4050  -10.5130   41.5970 O.2    62  ASP62      -0.2864
     80  CB         6.4380   -9.5040   44.4980 C.3    62  ASP62       0.1436
     81  CG         7.7110   -9.5020   45.3680 C.2    62  ASP62       0.3671
     82  OD1        8.8540   -9.5120   44.8300 O.co2  62  ASP62      -0.2456
     83  OD2        7.5100   -9.5240   46.6390 O.co2  62  ASP62      -0.2456
@<TRIPOS>BOND
     1    24    25    1
     2    24    23    1
     3    33    32   ar
     4    34    32   ar
     5    38    37    2
     6    29    28    2
     7    37    36    1
     8    32    31    1
     9    30    31    1
    10    30    27    1
    11    28    27    1
    12    28    35   am
    13    23    22    1
    14    26    27    1
    15    26    20   am
    16    36    35    1
    17    36    39    1
    18    10     9    2
    19    35    41    1
    20    19    22    1
    21    19    20    1
    22    19    18    1
    23     1     2    1
    24     6     5    1
    25    20    21    2
    26     9    18   am
    27     9     8    1
    28    39    40    1
    29     7     8    1
    30    41    40    1
    31     5     2    1
    32     2     3    1
    33     3     4    2
    34     8    11    1
    35    74    75   ar
    36    74    72   ar
    37    75    73   ar
    38    11    12    1
    39    72    69   ar
    40    73    71   ar
    41    12    13    1
    42    69    71   ar
    43    69    67   ar
    44    71    70   ar
    45    50    48   ar
    46    65    64    2
    47    47    48    1
    48    47    46    1
    49    13    14    1
    50    48    49   ar
    51    14    15    2
    52    70    68   ar
    53    67    66    1
    54    67    68   ar
    55    63    64    1
    56    63    66    1
    57    63    62    1
    58    79    78    2
    59    64    76   am
    60    46    43    1
    61    15    16    1
    62    15    17    1
    63    78    77    1
    64    42    43    1
    65    76    77    1
    66    43    44    1
    67    77    80    1
    68    45    44    2
    69    44    51   am
    70    80    81    1
    71    54    53    2
    72    82    81   ar
    73    51    52    1
    74    58    57    2
    75    81    83   ar
    76    53    52    1
    77    53    55   am
    78    57    56    1
    79    56    55    1
    80    56    59    1
    81    55    61    1
    82    59    60    1
    83    61    60    1
