@<TRIPOS>MOLECULE
tmp/5c0eB02.pdb
 99 99 0 0 0
SMALL
GASTEIGER

@<TRIPOS>ATOM
      1  N         16.7150   -2.0390    7.0980 N.3     8  ILE8       -0.1231
      2  CA        17.8800   -1.6600    7.8010 C.3     8  ILE8        0.1692
      3  C         18.1260   -0.1720    7.5890 C.2     8  ILE8        0.2592
      4  O         18.1490    0.2920    6.4490 O.2     8  ILE8       -0.2718
      5  CB        19.1130   -2.4390    7.2920 C.3     8  ILE8        0.0266
      6  CG1       18.9030   -3.9740    7.3990 C.3     8  ILE8        0.0019
      7  CG2       20.3560   -2.0690    8.1340 C.3     8  ILE8        0.0020
      8  CD1       19.8860   -4.7470    6.5420 C.3     8  ILE8        0.0001
      9  N         18.3280    0.5560    8.6850 N.am    9  GLN9       -0.1966
     10  CA        18.8540    1.9270    8.5950 C.3     9  GLN9        0.1733
     11  C         20.0880    1.9970    9.4960 C.2     9  GLN9        0.2616
     12  O         20.0390    1.5120   10.6230 O.2     9  GLN9       -0.2715
     13  CB        17.8360    2.9770    9.0600 C.3     9  GLN9        0.0408
     14  CG        16.6130    3.1370    8.1840 C.3     9  GLN9        0.0908
     15  CD        15.8720    4.4120    8.4660 C.2     9  GLN9        0.2608
     16  OE1       16.4010    5.5040    8.2570 O.2     9  GLN9       -0.2717
     17  NE2       14.5900    4.2740    8.9070 N.am    9  GLN9       -0.0878
     18  N         21.1300    2.7270    9.0210 N.am   10  VAL10      -0.1963
     19  CA        22.3430    2.8760    9.7810 C.3    10  VAL10       0.1727
     20  C         22.5750    4.3990    9.8890 C.2    10  VAL10       0.2616
     21  O         22.6240    5.0930    8.8740 O.2    10  VAL10      -0.2715
     22  CB        23.5410    2.2430    9.0610 C.3    10  VAL10       0.0290
     23  CG1       24.7550    2.3120    9.9710 C.3    10  VAL10       0.0023
     24  CG2       23.2420    0.8060    8.6920 C.3    10  VAL10       0.0023
     25  N         22.7580    4.9260   11.1010 N.am   11  TYR11      -0.1960
     26  CA        22.6920    6.3740   11.2870 C.3    11  TYR11       0.1771
     27  C         23.3100    6.7130   12.6280 C.2    11  TYR11       0.2620
     28  O         23.4100    5.8820   13.4900 O.2    11  TYR11      -0.2715
     29  CB        21.2370    6.9000   11.1450 C.3    11  TYR11       0.0574
     30  CG        20.2800    6.2880   12.0850 C.ar   11  TYR11      -0.0198
     31  CD1       19.7570    5.0040   11.7970 C.ar   11  TYR11      -0.0009
     32  CD2       19.8940    6.9070   13.2580 C.ar   11  TYR11      -0.0009
     33  CE1       18.8620    4.3760   12.6780 C.ar   11  TYR11       0.0417
     34  CE2       18.9280    6.3170   14.0660 C.ar   11  TYR11       0.0417
     35  CZ        18.4870    5.0470   13.7820 C.ar   11  TYR11       0.1957
     36  OH        17.6060    4.3530   14.5900 O.3    11  TYR11      -0.2866
     37  N         23.6780    7.9760   12.7990 N.am   12  SER12      -0.1950
     38  CA        24.1750    8.4150   14.1020 C.3    12  SER12       0.1924
     39  C         23.0410    9.0720   14.9090 C.2    12  SER12       0.2314
     40  O         22.0370    9.6350   14.3780 O.2    12  SER12      -0.2863
     41  CB        25.3430    9.3370   13.8640 C.3    12  SER12       0.2116
     42  OG        24.9750   10.4900   13.1150 O.3    12  SER12      -0.2180
     43  N         25.1860   -2.9140    5.1880 N.3    94  VAL94      -0.1231
     44  CA        24.7550   -1.5680    4.8410 C.3    94  VAL94       0.1692
     45  C         25.7460   -0.5560    5.4430 C.2    94  VAL94       0.2592
     46  O         25.8710   -0.4770    6.6760 O.2    94  VAL94      -0.2718
     47  CB        23.3520   -1.2950    5.3670 C.3    94  VAL94       0.0266
     48  CG1       22.8870    0.1250    5.0280 C.3    94  VAL94       0.0020
     49  CG2       22.4130   -2.3480    4.7920 C.3    94  VAL94       0.0020
     50  N         26.3980    0.2090    4.5930 N.am   95  LYS95      -0.1966
     51  CA        27.3880    1.1820    5.0610 C.3    95  LYS95       0.1728
     52  C         26.7010    2.4170    5.6380 C.2    95  LYS95       0.2616
     53  O         25.6470    2.8110    5.1900 O.2    95  LYS95      -0.2715
     54  CB        28.3270    1.5880    3.9350 C.3    95  LYS95       0.0311
     55  CG        29.1180    0.4100    3.3980 C.3    95  LYS95       0.0038
     56  CD        30.0960    0.8720    2.3560 C.3    95  LYS95       0.0206
     57  CE        31.2410   -0.1130    2.1680 C.3    95  LYS95       0.1093
     58  NZ        32.3290    0.5140    1.3280 N.3    95  LYS95      -0.1314
     59  N         27.3360    3.0090    6.6560 N.am   96  TRP96      -0.1960
     60  CA        26.8410    4.2480    7.2470 C.3    96  TRP96       0.1771
     61  C         27.1580    5.3770    6.3000 C.2    96  TRP96       0.2620
     62  O         28.3130    5.5510    5.9090 O.2    96  TRP96      -0.2715
     63  CB        27.5340    4.4900    8.5710 C.3    96  TRP96       0.0590
     64  CG        27.1550    5.7850    9.1840 C.ar   96  TRP96       0.0006
     65  CD1       25.9250    6.3310    9.3210 C.ar   96  TRP96       0.0946
     66  CD2       28.0720    6.7390    9.6950 C.ar   96  TRP96       0.0152
     67  NE1       25.9980    7.5660    9.8930 N.ar   96  TRP96      -0.2442
     68  CE2       27.3080    7.8120   10.1940 C.ar   96  TRP96       0.0810
     69  CE3       29.4530    6.7480    9.8470 C.ar   96  TRP96       0.0012
     70  CZ2       27.8990    8.9510   10.7270 C.ar   96  TRP96       0.0191
     71  CZ3       30.0550    7.8760   10.4270 C.ar   96  TRP96       0.0001
     72  CH2       29.2750    8.9270   10.8710 C.ar   96  TRP96       0.0015
     73  N         26.1140    6.1160    5.9250 N.am   97  ASP97      -0.1957
     74  CA        26.1950    7.3840    5.1980 C.3    97  ASP97       0.1840
     75  C         25.7660    8.5220    6.1380 C.2    97  ASP97       0.2621
     76  O         24.6270    8.5710    6.5920 O.2    97  ASP97      -0.2715
     77  CB        25.2740    7.3380    3.9460 C.3    97  ASP97       0.1450
     78  CG        25.3220    8.6090    3.1210 C.2    97  ASP97       0.3671
     79  OD1       25.6640    9.7060    3.6150 O.co2  97  ASP97      -0.2456
     80  OD2       24.9910    8.5330    1.9140 O.co2  97  ASP97      -0.2456
     81  N         26.6580    9.4510    6.4350 N.am   98  ARG98      -0.1977
     82  CA        26.2940   10.4980    7.4240 C.3    98  ARG98       0.1597
     83  C         25.1640   11.4840    7.0300 C.2    98  ARG98       0.2287
     84  O         24.7060   12.2920    7.8690 O.2    98  ARG98      -0.2864
     85  CB        27.5150   11.3190    7.8090 C.3    98  ARG98       0.0334
     86  CG        27.9420   12.2890    6.7540 C.3    98  ARG98       0.0492
     87  CD        29.2380   12.9370    7.1720 C.3    98  ARG98       0.2205
     88  NE        30.2840   11.9840    7.5860 N.pl3  98  ARG98      -0.0865
     89  CZ        31.3230   12.3010    8.3780 C.cat  98  ARG98       0.5346
     90  NH1       31.4380   13.5320    8.8660 N.pl3  98  ARG98       0.1354
     91  NH2       32.2420   11.3900    8.7220 N.pl3  98  ARG98       0.1354
     92  N         22.2370   10.4600    5.7710 N.3   100  MET100     -0.1245
     93  CA        21.0410    9.6430    5.6570 C.3   100  MET100      0.1570
     94  C         20.4720    9.1190    6.9860 C.2   100  MET100      0.2261
     95  O         19.4490    8.3990    6.9560 O.2   100  MET100     -0.2867
     96  CB        21.3060    8.4030    4.7850 C.3   100  MET100      0.0387
     97  CG        21.9460    8.6760    3.4470 C.3   100  MET100      0.0595
     98  SD        20.6520    9.2590    2.3890 S.3   100  MET100     -0.1393
     99  CE        20.0650    7.6950    1.7990 C.3   100  MET100      0.0692
@<TRIPOS>BOND
     1    58    57    1
     2    99    98    1
     3    80    78   ar
     4    57    56    1
     5    56    55    1
     6    98    97    1
     7    78    79   ar
     8    78    77    1
     9    55    54    1
    10    97    96    1
    11    54    51    1
    12    77    74    1
    13    50    51    1
    14    50    45   am
    15    96    93    1
    16    49    47    1
    17    44    43    1
    18    44    47    1
    19    44    45    1
    20    48    47    1
    21    51    52    1
    22    53    52    2
    23    74    73    1
    24    74    75    1
    25    45    46    2
    26    52    59   am
    27    93    92    1
    28    93    94    1
    29    62    61    2
    30    73    61   am
    31    75    81   am
    32    75    76    2
    33    61    60    1
    34    81    82    1
    35     4     3    2
    36     8     6    1
    37    59    60    1
    38    86    87    1
    39    86    85    1
    40    95    94    2
    41    83    82    1
    42    83    84    2
    43     1     2    1
    44    87    88    1
    45    60    63    1
    46     5     6    1
    47     5     2    1
    48     5     7    1
    49    82    85    1
    50    88    89    2
    51     3     2    1
    52     3     9   am
    53    14    15    1
    54    14    13    1
    55    16    15    2
    56    89    91    1
    57    89    90    1
    58    15    17   am
    59    63    64    1
    60    10     9    1
    61    10    13    1
    62    10    11    1
    63    24    22    1
    64    21    20    2
    65    18    11   am
    66    18    19    1
    67    22    19    1
    68    22    23    1
    69    64    65   ar
    70    64    66   ar
    71    65    67   ar
    72    11    12    2
    73    66    69   ar
    74    66    68   ar
    75    19    20    1
    76    69    71   ar
    77    20    25   am
    78    67    68   ar
    79    68    70   ar
    80    71    72   ar
    81    70    72   ar
    82    25    26    1
    83    29    26    1
    84    29    30    1
    85    26    27    1
    86    31    30   ar
    87    31    33   ar
    88    30    32   ar
    89    27    37   am
    90    27    28    2
    91    33    35   ar
    92    37    38    1
    93    42    41    1
    94    32    34   ar
    95    35    34   ar
    96    35    36    1
    97    41    38    1
    98    38    39    1
    99    40    39    2
