@<TRIPOS>MOLECULE
tmp/5c0eB01.pdb
 100 103 0 0 0
SMALL
GASTEIGER

@<TRIPOS>ATOM
      1  N         22.7580    4.9260   11.1010 N.3    11  TYR11      -0.1227
      2  CA        22.6920    6.3740   11.2870 C.3    11  TYR11       0.1736
      3  C         23.3100    6.7130   12.6280 C.2    11  TYR11       0.2596
      4  O         23.4100    5.8820   13.4900 O.2    11  TYR11      -0.2718
      5  CB        21.2370    6.9000   11.1450 C.3    11  TYR11       0.0548
      6  CG        20.2800    6.2880   12.0850 C.ar   11  TYR11      -0.0200
      7  CD1       19.7570    5.0040   11.7970 C.ar   11  TYR11      -0.0009
      8  CD2       19.8940    6.9070   13.2580 C.ar   11  TYR11      -0.0009
      9  CE1       18.8620    4.3760   12.6780 C.ar   11  TYR11       0.0417
     10  CE2       18.9280    6.3170   14.0660 C.ar   11  TYR11       0.0417
     11  CZ        18.4870    5.0470   13.7820 C.ar   11  TYR11       0.1957
     12  OH        17.6060    4.3530   14.5900 O.3    11  TYR11      -0.2866
     13  N         23.6780    7.9760   12.7990 N.am   12  SER12      -0.1938
     14  CA        24.1750    8.4150   14.1020 C.3    12  SER12       0.2055
     15  C         23.0410    9.0720   14.9090 C.2    12  SER12       0.2643
     16  O         22.0370    9.6350   14.3780 O.2    12  SER12      -0.2714
     17  CB        25.3430    9.3370   13.8640 C.3    12  SER12       0.2130
     18  OG        24.9750   10.4900   13.1150 O.3    12  SER12      -0.2179
     19  N         23.2030    9.0380   16.2290 N.am   13  ARG13      -0.1963
     20  CA        22.2660    9.6670   17.1050 C.3    13  ARG13       0.1729
     21  C         22.2650   11.1890   16.9010 C.2    13  ARG13       0.2616
     22  O         21.2260   11.8180   16.8360 O.2    13  ARG13      -0.2715
     23  CB        22.5840    9.3250   18.5490 C.3    13  ARG13       0.0348
     24  CG        21.5570    9.9450   19.4590 C.3    13  ARG13       0.0492
     25  CD        21.9550    9.7320   20.9200 C.3    13  ARG13       0.2205
     26  NE        21.8190    8.3310   21.2320 N.pl3  13  ARG13      -0.0865
     27  CZ        22.1460    7.7830   22.4000 C.cat  13  ARG13       0.5346
     28  NH1       22.5020    8.5430   23.3970 N.pl3  13  ARG13       0.1354
     29  NH2       22.0000    6.4660   22.5710 N.pl3  13  ARG13       0.1354
     30  N         23.4400   11.7800   16.8820 N.am   14  HIS14      -0.1960
     31  CA        23.6820   13.2020   16.6710 C.3    14  HIS14       0.1772
     32  C         24.3030   13.4700   15.3230 C.2    14  HIS14       0.2462
     33  O         24.9140   12.6160   14.7700 O.2    14  HIS14      -0.2730
     34  CB        24.5850   13.7410   17.7800 C.3    14  HIS14       0.0785
     35  CG        24.1230   13.3900   19.1410 C.ar   14  HIS14       0.0821
     36  ND1       22.9970   13.9640   19.7230 N.ar   14  HIS14      -0.2267
     37  CD2       24.5700   12.4630   20.0190 C.ar   14  HIS14       0.1154
     38  CE1       22.7670   13.3720   20.8980 C.ar   14  HIS14       0.1986
     39  NE2       23.7470   12.4940   21.1180 N.ar   14  HIS14      -0.2212
     40  N         24.2340   14.7130   14.8290 N.am   15  PRO15      -0.2716
     41  CA        24.8940   15.0500   13.6150 C.3    15  PRO15       0.1536
     42  C         26.3470   14.7250   13.7340 C.2    15  PRO15       0.2598
     43  O         27.0350   15.0390   14.7520 O.2    15  PRO15      -0.2715
     44  CB        24.7100   16.5800   13.5260 C.3    15  PRO15       0.0310
     45  CG        23.4860   16.7990   14.2890 C.3    15  PRO15       0.0237
     46  CD        23.5250   15.8500   15.4120 C.3    15  PRO15       0.0939
     47  N         26.8860   14.0910   12.7090 N.am   16  ALA16      -0.1978
     48  CA        28.2410   13.6010   12.7900 C.3    16  ALA16       0.1597
     49  C         29.2500   14.7210   12.5750 C.2    16  ALA16       0.2287
     50  O         29.0700   15.5950   11.6840 O.2    16  ALA16      -0.2864
     51  CB        28.4730   12.5110   11.7730 C.3    16  ALA16       0.0319
     52  N         27.3360    3.0090    6.6560 N.3    96  TRP96      -0.1227
     53  CA        26.8410    4.2480    7.2470 C.3    96  TRP96       0.1737
     54  C         27.1580    5.3770    6.3000 C.2    96  TRP96       0.2595
     55  O         28.3130    5.5510    5.9090 O.2    96  TRP96      -0.2718
     56  CB        27.5340    4.4900    8.5710 C.3    96  TRP96       0.0564
     57  CG        27.1550    5.7850    9.1840 C.ar   96  TRP96       0.0003
     58  CD1       25.9250    6.3310    9.3210 C.ar   96  TRP96       0.0946
     59  CD2       28.0720    6.7390    9.6950 C.ar   96  TRP96       0.0152
     60  NE1       25.9980    7.5660    9.8930 N.ar   96  TRP96      -0.2442
     61  CE2       27.3080    7.8120   10.1940 C.ar   96  TRP96       0.0810
     62  CE3       29.4530    6.7480    9.8470 C.ar   96  TRP96       0.0012
     63  CZ2       27.8990    8.9510   10.7270 C.ar   96  TRP96       0.0191
     64  CZ3       30.0550    7.8760   10.4270 C.ar   96  TRP96       0.0001
     65  CH2       29.2750    8.9270   10.8710 C.ar   96  TRP96       0.0015
     66  N         26.1140    6.1160    5.9250 N.am   97  ASP97      -0.1960
     67  CA        26.1950    7.3840    5.1980 C.3    97  ASP97       0.1840
     68  C         25.7660    8.5220    6.1380 C.2    97  ASP97       0.2622
     69  O         24.6270    8.5710    6.5920 O.2    97  ASP97      -0.2715
     70  CB        25.2740    7.3380    3.9460 C.3    97  ASP97       0.1450
     71  CG        25.3220    8.6090    3.1210 C.2    97  ASP97       0.3671
     72  OD1       25.6640    9.7060    3.6150 O.co2  97  ASP97      -0.2456
     73  OD2       24.9910    8.5330    1.9140 O.co2  97  ASP97      -0.2456
     74  N         26.6580    9.4510    6.4350 N.am   98  ARG98      -0.1963
     75  CA        26.2940   10.4980    7.4240 C.3    98  ARG98       0.1729
     76  C         25.1640   11.4840    7.0300 C.2    98  ARG98       0.2616
     77  O         24.7060   12.2920    7.8690 O.2    98  ARG98      -0.2715
     78  CB        27.5150   11.3190    7.8090 C.3    98  ARG98       0.0348
     79  CG        27.9420   12.2890    6.7540 C.3    98  ARG98       0.0492
     80  CD        29.2380   12.9370    7.1720 C.3    98  ARG98       0.2205
     81  NE        30.2840   11.9840    7.5860 N.pl3  98  ARG98      -0.0865
     82  CZ        31.3230   12.3010    8.3780 C.cat  98  ARG98       0.5346
     83  NH1       31.4380   13.5320    8.8660 N.pl3  98  ARG98       0.1354
     84  NH2       32.2420   11.3900    8.7220 N.pl3  98  ARG98       0.1354
     85  N         24.7630   11.4770    5.7540 N.am   99  ASP99      -0.1957
     86  CA        23.7040   12.3780    5.2660 C.3    99  ASP99       0.1840
     87  C         22.3310   11.6840    5.2320 C.2    99  ASP99       0.2621
     88  O         21.3770   12.2370    4.6630 O.2    99  ASP99      -0.2715
     89  CB        24.0460   12.8500    3.8450 C.3    99  ASP99       0.1450
     90  CG        25.2650   13.7740    3.7880 C.2    99  ASP99       0.3671
     91  OD1       25.5630   14.5080    4.7610 O.co2  99  ASP99      -0.2456
     92  OD2       25.9100   13.7960    2.7190 O.co2  99  ASP99      -0.2456
     93  N         22.2370   10.4600    5.7710 N.am  100  MET100     -0.1977
     94  CA        21.0410    9.6430    5.6570 C.3   100  MET100      0.1605
     95  C         20.4720    9.1190    6.9860 C.2   100  MET100      0.2287
     96  O         19.4490    8.3990    6.9560 O.2   100  MET100     -0.2864
     97  CB        21.3060    8.4030    4.7850 C.3   100  MET100      0.0413
     98  CG        21.9460    8.6760    3.4470 C.3   100  MET100      0.0598
     99  SD        20.6520    9.2590    2.3890 S.3   100  MET100     -0.1393
    100  CE        20.0650    7.6950    1.7990 C.3   100  MET100      0.0692
@<TRIPOS>BOND
     1   100    99    1
     2    73    71   ar
     3    99    98    1
     4    92    90   ar
     5    71    72   ar
     6    71    70    1
     7    98    97    1
     8    90    89    1
     9    90    91   ar
    10    89    86    1
    11    70    67    1
    12    88    87    2
    13    97    94    1
    14    67    66    1
    15    67    68    1
    16    87    86    1
    17    87    93   am
    18    86    85    1
    19    94    93    1
    20    94    95    1
    21    85    76   am
    22    55    54    2
    23    66    54   am
    24    68    74   am
    25    68    69    2
    26    54    53    1
    27    74    75    1
    28    52    53    1
    29    79    80    1
    30    79    78    1
    31    96    95    2
    32    76    75    1
    33    76    77    2
    34    80    81    1
    35    53    56    1
    36    75    78    1
    37    81    82    2
    38    82    84    1
    39    82    83    1
    40    56    57    1
    41    57    58   ar
    42    57    59   ar
    43    58    60   ar
    44    59    62   ar
    45    59    61   ar
    46    62    64   ar
    47    60    61   ar
    48    61    63   ar
    49    64    65   ar
    50    63    65   ar
    51     1     2    1
    52     5     2    1
    53     5     6    1
    54     2     3    1
    55    50    49    2
    56    51    48    1
    57     7     6   ar
    58     7     9   ar
    59     6     8   ar
    60    49    48    1
    61     3    13   am
    62     3     4    2
    63     9    11   ar
    64    47    48    1
    65    47    42   am
    66    13    14    1
    67    18    17    1
    68     8    10   ar
    69    44    41    1
    70    44    45    1
    71    41    42    1
    72    41    40    1
    73    42    43    2
    74    11    10   ar
    75    11    12    1
    76    17    14    1
    77    14    15    1
    78    45    46    1
    79    16    15    2
    80    33    32    2
    81    40    32   am
    82    40    46    1
    83    15    19   am
    84    32    31    1
    85    19    20    1
    86    31    30    1
    87    31    34    1
    88    22    21    2
    89    30    21   am
    90    21    20    1
    91    20    23    1
    92    34    35    1
    93    23    24    1
    94    35    36   ar
    95    35    37   ar
    96    24    25    1
    97    36    38   ar
    98    37    39   ar
    99    38    39   ar
   100    25    26    1
   101    26    27    2
   102    27    29    1
   103    27    28    1
