@<TRIPOS>MOLECULE
tmp/5c0eA05.pdb
 90 87 0 0 0
SMALL
GASTEIGER

@<TRIPOS>ATOM
      1  N          5.1520   -0.4130   27.7080 N.3    28  TYR28      -0.1241
      2  CA         5.3010    0.9940   27.3000 C.3    28  TYR28       0.1605
      3  C          4.2190    1.8510   27.8330 C.2    28  TYR28       0.2264
      4  O          3.0680    1.4200   27.9990 O.2    28  TYR28      -0.2867
      5  CB         5.2180    1.0960   25.7470 C.3    28  TYR28       0.0534
      6  CG         6.3430    0.5390   24.9740 C.ar   28  TYR28      -0.0201
      7  CD1        6.3980   -0.7950   24.6550 C.ar   28  TYR28      -0.0009
      8  CD2        7.3380    1.3900   24.5140 C.ar   28  TYR28      -0.0009
      9  CE1        7.4610   -1.2300   23.8930 C.ar   28  TYR28       0.0417
     10  CE2        8.4020    0.9340   23.7590 C.ar   28  TYR28       0.0417
     11  CZ         8.4440   -0.3840   23.5010 C.ar   28  TYR28       0.1957
     12  OH         9.6590   -0.6730   22.7460 O.3    28  TYR28      -0.2866
     13  N          5.3730    6.1490   23.8970 N.3    31  ASP31      -0.1225
     14  CA         6.5690    5.6540   23.2060 C.3    31  ASP31       0.1805
     15  C          7.7620    5.4090   24.1250 C.2    31  ASP31       0.2598
     16  O          8.9240    5.3430   23.6750 O.2    31  ASP31      -0.2718
     17  CB         6.9410    6.5430   22.0390 C.3    31  ASP31       0.1424
     18  CG         5.8960    6.5720   20.9420 C.2    31  ASP31       0.3668
     19  OD1        5.3920    5.4970   20.5640 O.co2  31  ASP31      -0.2456
     20  OD2        5.5390    7.6350   20.5020 O.co2  31  ASP31      -0.2456
     21  N          7.5120    5.2950   25.4200 N.am   32  THR32      -0.1939
     22  CA         8.5450    5.0990   26.3980 C.3    32  THR32       0.2028
     23  C          8.4140    3.6840   27.0010 C.2    32  THR32       0.2642
     24  O          7.4670    3.3690   27.7110 O.2    32  THR32      -0.2714
     25  CB         8.3760    6.1080   27.5360 C.3    32  THR32       0.1808
     26  OG1        8.4790    7.4250   26.9960 O.3    32  THR32      -0.2208
     27  CG2        9.5060    5.9280   28.6270 C.3    32  THR32       0.0379
     28  N          9.4640    2.8890   26.8110 N.am   33  GLN33      -0.1976
     29  CA         9.5150    1.5520   27.4610 C.3    33  GLN33       0.1601
     30  C          9.7720    1.7660   28.9220 C.2    33  GLN33       0.2287
     31  O         10.6330    2.5970   29.3280 O.2    33  GLN33      -0.2864
     32  CB        10.5990    0.6750   26.8830 C.3    33  GLN33       0.0394
     33  CG        10.4700   -0.7360   27.3320 C.3    33  GLN33       0.0908
     34  CD        11.6260   -1.5790   26.9140 C.2    33  GLN33       0.2608
     35  OE1       12.2770   -1.2890   25.8960 O.2    33  GLN33      -0.2717
     36  NE2       11.8370   -2.7000   27.5960 N.am   33  GLN33      -0.0878
     37  N          6.6820    9.6990   18.9360 N.3   212  ALA212     -0.1245
     38  CA         7.1360    9.3200   17.6230 C.3   212  ALA212      0.1562
     39  C          6.2870    9.7610   16.4680 C.2   212  ALA212      0.2260
     40  O          6.7950    9.9310   15.3620 O.2   212  ALA212     -0.2867
     41  CB         7.3490    7.8180   17.5460 C.3   212  ALA212      0.0290
     42  N         11.3220    5.5520    7.2180 N.3   233  GLU233     -0.1231
     43  CA        10.6390    5.1380    8.4270 C.3   233  GLU233      0.1699
     44  C         11.1420    5.9230    9.6420 C.2   233  GLU233      0.2593
     45  O         12.3660    6.1240    9.7970 O.2   233  GLU233     -0.2718
     46  CB        10.9590    3.6670    8.6210 C.3   233  GLU233      0.0402
     47  CG        10.0810    2.8250    9.4920 C.3   233  GLU233      0.1161
     48  CD        10.4130    1.3630    9.2640 C.2   233  GLU233      0.3649
     49  OE1       10.1950    0.9020    8.1310 O.co2 233  GLU233     -0.2457
     50  OE2       10.9220    0.6880   10.1940 O.co2 233  GLU233     -0.2457
     51  N         10.2380    6.3540   10.5180 N.am  234  THR234     -0.1939
     52  CA        10.6240    7.0050   11.7390 C.3   234  THR234      0.2028
     53  C         11.4730    6.0120   12.5630 C.2   234  THR234      0.2642
     54  O         11.1650    4.8130   12.6320 O.2   234  THR234     -0.2714
     55  CB         9.3910    7.4260   12.5320 C.3   234  THR234      0.1808
     56  OG1        8.5980    8.2940   11.7050 O.3   234  THR234     -0.2208
     57  CG2        9.7460    8.0520   13.9060 C.3   234  THR234      0.0379
     58  N         12.5840    6.5160   13.0950 N.am  235  ARG235     -0.1963
     59  CA        13.6020    5.6670   13.7160 C.3   235  ARG235      0.1714
     60  C         14.0400    6.2170   15.0670 C.2   235  ARG235      0.2458
     61  O         14.0210    7.4110   15.3070 O.2   235  ARG235     -0.2730
     62  CB        14.8030    5.5460   12.7760 C.3   235  ARG235      0.0347
     63  CG        15.5410    6.8790   12.6340 C.3   235  ARG235      0.0492
     64  CD        16.4080    6.8090   11.3920 C.3   235  ARG235      0.2205
     65  NE        17.3270    8.0130   11.3380 N.pl3 235  ARG235     -0.0865
     66  CZ        18.1060    8.2780   10.3140 C.cat 235  ARG235      0.5346
     67  NH1       18.0400    7.6180    9.1720 N.pl3 235  ARG235      0.1354
     68  NH2       18.9710    9.3070   10.4270 N.pl3 235  ARG235      0.1354
     69  N         14.3830    5.3330   15.9960 N.am  236  PRO236     -0.2727
     70  CA        14.7590    5.7580   17.3340 C.3   236  PRO236      0.1402
     71  C         16.1870    6.3540   17.3930 C.2   236  PRO236      0.2269
     72  O         17.0840    5.7810   16.7710 O.2   236  PRO236     -0.2865
     73  CB        14.6980    4.4330   18.1170 C.3   236  PRO236      0.0296
     74  CG        14.9720    3.3870   17.1100 C.3   236  PRO236      0.0237
     75  CD        14.3510    3.8520   15.8560 C.3   236  PRO236      0.0939
     76  N         15.6830    7.9810   23.6450 N.3   240  GLY240     -0.1225
     77  CA        14.2590    8.0980   23.8650 C.3   240  GLY240      0.1811
     78  C         13.4930    8.9600   22.9030 C.2   240  GLY240      0.2280
     79  O         12.2450    8.9430   22.9010 O.2   240  GLY240     -0.2866
     80  N         13.1280   10.3930   18.6340 N.3   242  PHE242     -0.1241
     81  CA        12.9890    9.8480   17.3030 C.3   242  PHE242      0.1605
     82  C         13.5040   10.8210   16.2490 C.2   242  PHE242      0.2264
     83  O         13.6970   12.0260   16.5040 O.2   242  PHE242     -0.2867
     84  CB        11.5140    9.4630   17.0570 C.3   242  PHE242      0.0534
     85  CG        11.0450    8.4100   18.0550 C.ar  242  PHE242     -0.0203
     86  CD1       10.5540    8.7580   19.3050 C.ar  242  PHE242     -0.0042
     87  CD2       11.2050    7.1010   17.7780 C.ar  242  PHE242     -0.0042
     88  CE1       10.1980    7.7790   20.2580 C.ar  242  PHE242     -0.0003
     89  CE2       10.8950    6.1220   18.7380 C.ar  242  PHE242     -0.0003
     90  CZ        10.3880    6.4870   19.9700 C.ar  242  PHE242     -0.0000
@<TRIPOS>BOND
     1    42    43    1
     2    49    48   ar
     3    43    46    1
     4    43    44    1
     5    46    47    1
     6    67    66    1
     7    48    47    1
     8    48    50   ar
     9    44    45    2
    10    44    51   am
    11    66    68    1
    12    66    65    2
    13    51    52    1
    14    65    64    1
    15    64    63    1
    16    56    55    1
    17    52    55    1
    18    52    53    1
    19    55    57    1
    20    53    54    2
    21    53    58   am
    22    63    62    1
    23    62    59    1
    24    58    59    1
    25    59    60    1
    26    60    61    2
    27    60    69   am
    28    40    39    2
    29    75    69    1
    30    75    74    1
    31    69    70    1
    32    82    83    2
    33    82    81    1
    34    39    38    1
    35    72    71    2
    36    84    81    1
    37    84    85    1
    38    74    73    1
    39    81    80    1
    40    70    71    1
    41    70    73    1
    42    41    38    1
    43    38    37    1
    44    87    85   ar
    45    87    89   ar
    46    85    86   ar
    47    89    90   ar
    48    86    88   ar
    49    90    88   ar
    50    20    18   ar
    51    19    18   ar
    52    18    17    1
    53    17    14    1
    54    12    11    1
    55    79    78    2
    56    78    77    1
    57    14    13    1
    58    14    15    1
    59    11    10   ar
    60    11     9   ar
    61    76    77    1
    62    16    15    2
    63    10     8   ar
    64     9     7   ar
    65    15    21   am
    66     8     6   ar
    67     7     6   ar
    68     6     5    1
    69    21    22    1
    70     5     2    1
    71    35    34    2
    72    22    23    1
    73    22    25    1
    74    28    23   am
    75    28    29    1
    76    32    33    1
    77    32    29    1
    78    34    33    1
    79    34    36   am
    80    26    25    1
    81    23    24    2
    82     2     1    1
    83     2     3    1
    84    29    30    1
    85    25    27    1
    86     3     4    2
    87    30    31    2
