@<TRIPOS>MOLECULE
tmp/5c0kA00.pdb
 112 112 0 0 0
SMALL
GASTEIGER

@<TRIPOS>ATOM
      1  N         -7.1850  -23.3940   -2.6470 N.3    49  LYS49      -0.1245
      2  CA        -7.8980  -23.6510   -3.9020 C.3    49  LYS49       0.1561
      3  C         -8.0810  -25.1790   -4.1540 C.2    49  LYS49       0.2260
      4  O         -7.1170  -25.9450   -4.1620 O.2    49  LYS49      -0.2867
      5  CB        -7.2410  -22.9580   -5.1060 C.3    49  LYS49       0.0271
      6  CG        -8.1060  -23.0660   -6.3620 C.3    49  LYS49       0.0035
      7  CD        -7.6890  -22.1250   -7.4890 C.3    49  LYS49       0.0206
      8  CE        -8.7230  -22.0780   -8.6090 C.3    49  LYS49       0.1093
      9  NZ        -9.9580  -21.3360   -8.2140 N.3    49  LYS49      -0.1314
     10  N        -13.8780  -24.8870   -9.5760 N.3    58  GLY58      -0.1210
     11  CA       -12.8510  -24.4250   -8.6510 C.3    58  GLY58       0.1956
     12  C        -13.3710  -23.4890   -7.5810 C.2    58  GLY58       0.2612
     13  O        -14.2160  -22.6400   -7.8460 O.2    58  GLY58      -0.2717
     14  N        -12.8620  -23.6460   -6.3570 N.am   59  LEU59      -0.1965
     15  CA       -13.2750  -22.8930   -5.1690 C.3    59  LEU59       0.1728
     16  C        -12.0920  -22.5070   -4.3000 C.2    59  LEU59       0.2617
     17  O        -11.3030  -23.3690   -3.9540 O.2    59  LEU59      -0.2715
     18  CB       -14.2880  -23.7310   -4.3620 C.3    59  LEU59       0.0311
     19  CG       -15.6870  -23.9030   -4.9780 C.3    59  LEU59       0.0022
     20  CD1      -16.5180  -24.8750   -4.1630 C.3    59  LEU59       0.0001
     21  CD2      -16.4140  -22.5870   -5.0220 C.3    59  LEU59       0.0001
     22  N        -11.9660  -21.2130   -3.9570 N.am   60  THR60      -0.1937
     23  CA       -10.9030  -20.6610   -3.0930 C.3    60  THR60       0.2028
     24  C        -11.5460  -19.9430   -1.9210 C.2    60  THR60       0.2642
     25  O        -12.7400  -19.7650   -1.9280 O.2    60  THR60      -0.2714
     26  CB       -10.0660  -19.6010   -3.8200 C.3    60  THR60       0.1808
     27  OG1      -10.9130  -18.5180   -4.2070 O.3    60  THR60      -0.2208
     28  CG2       -9.4150  -20.1090   -4.9930 C.3    60  THR60       0.0379
     29  N        -10.7560  -19.5150   -0.9290 N.am   61  ASP61      -0.1957
     30  CA       -11.1840  -18.6290    0.1800 C.3    61  ASP61       0.1840
     31  C        -12.2630  -19.2470    1.0320 C.2    61  ASP61       0.2622
     32  O        -13.2850  -18.6320    1.3210 O.2    61  ASP61      -0.2715
     33  CB       -11.5860  -17.2120   -0.2990 C.3    61  ASP61       0.1450
     34  CG       -10.5980  -16.5200   -1.2190 C.2    61  ASP61       0.3671
     35  OD1      -11.0550  -15.7260   -2.0960 O.co2  61  ASP61      -0.2456
     36  OD2       -9.3650  -16.7740   -1.0790 O.co2  61  ASP61      -0.2456
     37  N        -12.0280  -20.4790    1.4300 N.am   62  TRP62      -0.1960
     38  CA       -12.8920  -21.2510    2.3060 C.3    62  TRP62       0.1771
     39  C        -12.8920  -20.6420    3.6990 C.2    62  TRP62       0.2619
     40  O        -11.8370  -20.3210    4.2430 O.2    62  TRP62      -0.2715
     41  CB       -12.3920  -22.6980    2.3460 C.3    62  TRP62       0.0590
     42  CG       -12.6490  -23.4030    1.0620 C.ar   62  TRP62       0.0006
     43  CD1      -11.8620  -23.4040   -0.0550 C.ar   62  TRP62       0.0946
     44  CD2      -13.7910  -24.2080    0.7550 C.ar   62  TRP62       0.0152
     45  NE1      -12.4400  -24.1660   -1.0350 N.ar   62  TRP62      -0.2442
     46  CE2      -13.6250  -24.6810   -0.5640 C.ar   62  TRP62       0.0810
     47  CE3      -14.9290  -24.6040    1.4830 C.ar   62  TRP62       0.0012
     48  CZ2      -14.5570  -25.5260   -1.1760 C.ar   62  TRP62       0.0191
     49  CZ3      -15.8600  -25.4110    0.8690 C.ar   62  TRP62       0.0001
     50  CH2      -15.6670  -25.8720   -0.4470 C.ar   62  TRP62       0.0015
     51  N        -14.0730  -20.4730    4.2580 N.am   63  LYS63      -0.1977
     52  CA       -14.2820  -19.9340    5.5980 C.3    63  LYS63       0.1596
     53  C        -14.5010  -21.1090    6.5690 C.2    63  LYS63       0.2287
     54  O        -14.9950  -22.1560    6.1440 O.2    63  LYS63      -0.2864
     55  CB       -15.4350  -18.9270    5.5890 C.3    63  LYS63       0.0298
     56  CG       -14.9780  -17.4650    5.4580 C.3    63  LYS63       0.0038
     57  CD       -14.4750  -17.0520    4.0650 C.3    63  LYS63       0.0206
     58  CE       -13.4570  -15.9260    4.1620 C.3    63  LYS63       0.1093
     59  NZ       -12.7140  -15.6980    2.8880 N.3    63  LYS63      -0.1314
     60  N        -17.7880  -23.3930    6.5570 N.3    66  GLU66      -0.1245
     61  CA       -18.3830  -23.7790    5.2800 C.3    66  GLU66       0.1567
     62  C        -18.3850  -25.2570    5.0150 C.2    66  GLU66       0.2260
     63  O        -17.4010  -25.9470    5.2870 O.2    66  GLU66      -0.2867
     64  CB       -17.7610  -23.0210    4.1410 C.3    66  GLU66       0.0388
     65  CG       -18.1580  -21.5580    4.2210 C.3    66  GLU66       0.1160
     66  CD       -17.4700  -20.7050    3.1900 C.2    66  GLU66       0.3649
     67  OE1      -16.5010  -21.2060    2.5800 O.co2  66  GLU66      -0.2457
     68  OE2      -17.9270  -19.5670    2.9380 O.co2  66  GLU66      -0.2457
     69  N        -21.2250  -25.4830   -0.7760 N.3    71  GLN71      -0.1245
     70  CA       -20.4270  -24.6530   -1.6600 C.3    71  GLN71       0.1566
     71  C        -20.3990  -25.2380   -3.0640 C.2    71  GLN71       0.2260
     72  O        -20.5180  -24.4920   -4.0430 O.2    71  GLN71      -0.2867
     73  CB       -19.0210  -24.4120   -1.0650 C.3    71  GLN71       0.0367
     74  CG       -19.0600  -23.6610    0.2980 C.3    71  GLN71       0.0905
     75  CD       -19.7560  -22.3240    0.2370 C.2    71  GLN71       0.2608
     76  OE1      -19.4620  -21.4810   -0.6010 O.2    71  GLN71      -0.2717
     77  NE2      -20.7660  -22.1310    1.0640 N.am   71  GLN71      -0.0878
     78  N        -23.7720  -24.4630   -4.4490 N.3    74  LYS74      -0.1231
     79  CA       -23.9850  -23.0270   -4.6860 C.3    74  LYS74       0.1693
     80  C        -23.3760  -22.5850   -6.0390 C.2    74  LYS74       0.2592
     81  O        -24.0320  -21.9290   -6.8490 O.2    74  LYS74      -0.2718
     82  CB       -23.3760  -22.2460   -3.5170 C.3    74  LYS74       0.0285
     83  CG       -23.5060  -20.7520   -3.6360 C.3    74  LYS74       0.0035
     84  CD       -22.9700  -20.1270   -2.3830 C.3    74  LYS74       0.0206
     85  CE       -23.8350  -19.0270   -1.8970 C.3    74  LYS74       0.1093
     86  NZ       -23.2230  -18.3540   -0.7300 N.3    74  LYS74      -0.1314
     87  N        -22.1120  -22.9730   -6.2730 N.am   75  TRP75      -0.1962
     88  CA       -21.3200  -22.4850   -7.3810 C.3    75  TRP75       0.1771
     89  C        -21.3560  -23.3850   -8.5990 C.2    75  TRP75       0.2619
     90  O        -21.1760  -22.8770   -9.7090 O.2    75  TRP75      -0.2715
     91  CB       -19.8680  -22.2160   -6.9140 C.3    75  TRP75       0.0590
     92  CG       -19.8010  -21.1540   -5.8590 C.ar   75  TRP75       0.0006
     93  CD1      -19.6870  -21.3430   -4.5100 C.ar   75  TRP75       0.0946
     94  CD2      -19.8680  -19.7370   -6.0640 C.ar   75  TRP75       0.0152
     95  NE1      -19.6680  -20.1380   -3.8650 N.ar   75  TRP75      -0.2442
     96  CE2      -19.7760  -19.1290   -4.7930 C.ar   75  TRP75       0.0810
     97  CE3      -19.9750  -18.9180   -7.2060 C.ar   75  TRP75       0.0012
     98  CZ2      -19.8080  -17.7280   -4.6230 C.ar   75  TRP75       0.0191
     99  CZ3      -19.9720  -17.5360   -7.0410 C.ar   75  TRP75       0.0001
    100  CH2      -19.9020  -16.9520   -5.7650 C.ar   75  TRP75       0.0015
    101  N        -21.5880  -24.7120   -8.4140 N.am   76  TYR76      -0.1974
    102  CA       -21.5790  -25.7140   -9.5000 C.3    76  TYR76       0.1639
    103  C        -22.8240  -26.5750   -9.4640 C.2    76  TYR76       0.2290
    104  O        -22.7270  -27.8030   -9.3430 O.2    76  TYR76      -0.2864
    105  CB       -20.2640  -26.5190   -9.5120 C.3    76  TYR76       0.0560
    106  CG       -19.1310  -25.5290   -9.6100 C.ar   76  TYR76      -0.0198
    107  CD1      -18.3690  -25.1980   -8.4880 C.ar   76  TYR76      -0.0009
    108  CD2      -18.8630  -24.8620  -10.8100 C.ar   76  TYR76      -0.0009
    109  CE1      -17.3660  -24.2290   -8.5580 C.ar   76  TYR76       0.0417
    110  CE2      -17.8490  -23.9060  -10.8950 C.ar   76  TYR76       0.0417
    111  CZ       -17.1150  -23.5850   -9.7640 C.ar   76  TYR76       0.1957
    112  OH       -16.1210  -22.6480   -9.8530 O.3    76  TYR76      -0.2866
@<TRIPOS>BOND
     1   110   108   ar
     2   110   111   ar
     3   108   106   ar
     4   112   111    1
     5   111   109   ar
     6    90    89    2
     7   106   105    1
     8   106   107   ar
     9    10    11    1
    10   105   102    1
    11   102   103    1
    12   102   101    1
    13   103   104    2
    14    11    12    1
    15     8     9    1
    16     8     7    1
    17    89   101   am
    18    89    88    1
    19   109   107   ar
    20    13    12    2
    21    12    14   am
    22     7     6    1
    23    88    91    1
    24    88    87    1
    25    97    99   ar
    26    97    94   ar
    27    99   100   ar
    28    91    92    1
    29    81    80    2
    30     6     5    1
    31    14    15    1
    32    87    80   am
    33    94    92   ar
    34    94    96   ar
    35    80    79    1
    36    92    93   ar
    37   100    98   ar
    38    15    18    1
    39    15    16    1
    40     5     2    1
    41    21    19    1
    42    28    26    1
    43    19    18    1
    44    19    20    1
    45    96    98   ar
    46    96    95   ar
    47    79    78    1
    48    79    82    1
    49    93    95   ar
    50    16    22   am
    51    16    17    2
    52    27    26    1
    53     4     3    2
    54     3     2    1
    55    72    71    2
    56    22    23    1
    57     2     1    1
    58    26    23    1
    59    83    82    1
    60    83    84    1
    61    23    24    1
    62    71    70    1
    63    84    85    1
    64    35    34   ar
    65    25    24    2
    66    24    29   am
    67    85    86    1
    68    70    73    1
    69    70    69    1
    70    34    36   ar
    71    34    33    1
    72    48    46   ar
    73    48    50   ar
    74    73    74    1
    75    45    46   ar
    76    45    43   ar
    77    29    30    1
    78    76    75    2
    79    46    44   ar
    80    50    49   ar
    81    33    30    1
    82    43    42   ar
    83    30    31    1
    84    75    74    1
    85    75    77   am
    86    44    42   ar
    87    44    47   ar
    88    49    47   ar
    89    31    32    2
    90    31    37   am
    91    42    41    1
    92    37    38    1
    93    38    41    1
    94    38    39    1
    95    67    66   ar
    96    59    58    1
    97    68    66   ar
    98    66    65    1
    99    39    40    2
   100    39    51   am
   101    57    58    1
   102    57    56    1
   103    64    65    1
   104    64    61    1
   105    51    52    1
   106    62    61    1
   107    62    63    2
   108    61    60    1
   109    56    55    1
   110    55    52    1
   111    52    53    1
   112    54    53    2
