@<TRIPOS>MOLECULE
tmp/5c0lA00.pdb
 103 103 0 0 0
SMALL
GASTEIGER

@<TRIPOS>ATOM
      1  N         -7.1680  -23.4170   -2.7340 N.3    49  LYS49      -0.1245
      2  CA        -7.8460  -23.6500   -4.0070 C.3    49  LYS49       0.1561
      3  C         -8.0530  -25.1670   -4.2650 C.2    49  LYS49       0.2260
      4  O         -7.1040  -25.9380   -4.2860 O.2    49  LYS49      -0.2867
      5  CB        -7.0370  -22.9640   -5.1170 C.3    49  LYS49       0.0271
      6  CG        -7.5130  -23.1930   -6.5380 C.3    49  LYS49       0.0035
      7  CD        -8.1970  -21.9730   -7.1170 C.3    49  LYS49       0.0206
      8  CE        -9.1190  -22.3530   -8.2710 C.3    49  LYS49       0.1093
      9  NZ       -10.3290  -21.4790   -8.2040 N.3    49  LYS49      -0.1314
     10  N        -13.7850  -24.8620   -9.7500 N.3    58  GLY58      -0.1210
     11  CA       -12.8200  -24.3520   -8.7820 C.3    58  GLY58       0.1956
     12  C        -13.4420  -23.5330   -7.6510 C.2    58  GLY58       0.2612
     13  O        -14.3600  -22.7250   -7.8750 O.2    58  GLY58      -0.2717
     14  N        -12.9340  -23.7490   -6.4350 N.am   59  LEU59      -0.1965
     15  CA       -13.3640  -23.0230   -5.2450 C.3    59  LEU59       0.1728
     16  C        -12.1880  -22.6020   -4.3750 C.2    59  LEU59       0.2617
     17  O        -11.2520  -23.3690   -4.1730 O.2    59  LEU59      -0.2715
     18  CB       -14.3600  -23.8590   -4.4280 C.3    59  LEU59       0.0311
     19  CG       -15.7370  -24.1340   -5.0350 C.3    59  LEU59       0.0022
     20  CD1      -16.4860  -25.0570   -4.1000 C.3    59  LEU59       0.0001
     21  CD2      -16.5210  -22.8450   -5.2550 C.3    59  LEU59       0.0001
     22  N        -12.2480  -21.3770   -3.8630 N.am   60  THR60      -0.1937
     23  CA       -11.1180  -20.7800   -3.1610 C.3    60  THR60       0.2028
     24  C        -11.5250  -19.9700   -1.9100 C.2    60  THR60       0.2642
     25  O        -12.7030  -19.7080   -1.7110 O.2    60  THR60      -0.2714
     26  CB       -10.2830  -19.9440   -4.1540 C.3    60  THR60       0.1808
     27  OG1       -8.9160  -19.9650   -3.7410 O.3    60  THR60      -0.2208
     28  CG2      -10.8020  -18.4900   -4.2880 C.3    60  THR60       0.0379
     29  N        -10.5560  -19.5820   -1.0780 N.am   61  ASP61      -0.1957
     30  CA       -10.7840  -18.6940    0.0810 C.3    61  ASP61       0.1840
     31  C        -11.8550  -19.1990    1.0310 C.2    61  ASP61       0.2622
     32  O        -12.8770  -18.5430    1.2550 O.2    61  ASP61      -0.2715
     33  CB       -11.0970  -17.2570   -0.3520 C.3    61  ASP61       0.1450
     34  CG       -10.0370  -16.6650   -1.2650 C.2    61  ASP61       0.3671
     35  OD1      -10.4020  -15.7420   -2.0250 O.co2  61  ASP61      -0.2456
     36  OD2       -8.8550  -17.1040   -1.2340 O.co2  61  ASP61      -0.2456
     37  N        -11.5990  -20.3790    1.5850 N.am   62  TRP62      -0.1960
     38  CA       -12.5280  -21.0630    2.4720 C.3    62  TRP62       0.1771
     39  C        -12.5610  -20.4390    3.8650 C.2    62  TRP62       0.2619
     40  O        -11.5190  -20.1650    4.4430 O.2    62  TRP62      -0.2715
     41  CB       -12.1430  -22.5370    2.5720 C.3    62  TRP62       0.0590
     42  CG       -12.3510  -23.2750    1.3210 C.ar   62  TRP62       0.0006
     43  CD1      -11.4640  -23.4070    0.2880 C.ar   62  TRP62       0.0946
     44  CD2      -13.5240  -24.0020    0.9340 C.ar   62  TRP62       0.0152
     45  NE1      -12.0070  -24.1690   -0.7190 N.ar   62  TRP62      -0.2442
     46  CE2      -13.2710  -24.5490   -0.3500 C.ar   62  TRP62       0.0810
     47  CE3      -14.7630  -24.2470    1.5440 C.ar   62  TRP62       0.0012
     48  CZ2      -14.2110  -25.3230   -1.0310 C.ar   62  TRP62       0.0191
     49  CZ3      -15.6930  -25.0140    0.8690 C.ar   62  TRP62       0.0001
     50  CH2      -15.4150  -25.5440   -0.4060 C.ar   62  TRP62       0.0015
     51  N        -13.7700  -20.2230    4.3800 N.am   63  LYS63      -0.1977
     52  CA       -14.0150  -19.7640    5.7550 C.3    63  LYS63       0.1596
     53  C        -14.4210  -20.9900    6.5930 C.2    63  LYS63       0.2287
     54  O        -14.9770  -21.9440    6.0310 O.2    63  LYS63      -0.2864
     55  CB       -15.0950  -18.6810    5.7760 C.3    63  LYS63       0.0298
     56  CG       -14.6880  -17.3680    5.1140 C.3    63  LYS63       0.0038
     57  CD       -15.7920  -16.3130    5.2410 C.3    63  LYS63       0.0206
     58  CE       -15.9520  -15.4730    3.9730 C.3    63  LYS63       0.1093
     59  NZ       -16.3050  -16.2910    2.7650 N.3    63  LYS63      -0.1314
     60  N        -18.0300  -22.6000    6.2920 N.3    66  GLU66      -0.1245
     61  CA       -18.5300  -23.0320    4.9800 C.3    66  GLU66       0.1567
     62  C        -18.4900  -24.5400    4.8000 C.2    66  GLU66       0.2260
     63  O        -17.5740  -25.1940    5.2910 O.2    66  GLU66      -0.2867
     64  CB       -17.7870  -22.3330    3.8520 C.3    66  GLU66       0.0388
     65  CG       -18.2260  -20.8920    3.6490 C.3    66  GLU66       0.1160
     66  CD       -17.2500  -20.0790    2.8170 C.2    66  GLU66       0.3649
     67  OE1      -16.1630  -20.5990    2.4600 O.co2  66  GLU66      -0.2457
     68  OE2      -17.5680  -18.9060    2.5140 O.co2  66  GLU66      -0.2457
     69  N        -21.1530  -25.4200   -0.9180 N.3    71  GLN71      -0.1245
     70  CA       -20.4190  -24.5570   -1.8400 C.3    71  GLN71       0.1566
     71  C        -20.4290  -25.1140   -3.2570 C.2    71  GLN71       0.2260
     72  O        -20.6530  -24.3720   -4.2150 O.2    71  GLN71      -0.2867
     73  CB       -18.9930  -24.2830   -1.3420 C.3    71  GLN71       0.0367
     74  CG       -18.9200  -23.3770   -0.1230 C.3    71  GLN71       0.0905
     75  CD       -19.6030  -22.0370   -0.3200 C.2    71  GLN71       0.2608
     76  OE1      -19.2500  -21.2660   -1.2120 O.2    71  GLN71      -0.2717
     77  NE2      -20.5870  -21.7540    0.5160 N.am   71  GLN71      -0.0878
     78  N        -22.0500  -22.9720   -6.4490 N.3    75  TRP75      -0.1227
     79  CA       -21.3020  -22.4380   -7.5730 C.3    75  TRP75       0.1737
     80  C        -21.2960  -23.3400   -8.8110 C.2    75  TRP75       0.2595
     81  O        -21.1050  -22.8570   -9.9320 O.2    75  TRP75      -0.2718
     82  CB       -19.8770  -22.0640   -7.1290 C.3    75  TRP75       0.0564
     83  CG       -19.8990  -21.0170   -6.0520 C.ar   75  TRP75       0.0003
     84  CD1      -19.7960  -21.2310   -4.6980 C.ar   75  TRP75       0.0946
     85  CD2      -20.0350  -19.5940   -6.2280 C.ar   75  TRP75       0.0152
     86  NE1      -19.8570  -20.0350   -4.0280 N.ar   75  TRP75      -0.2442
     87  CE2      -20.0040  -19.0110   -4.9330 C.ar   75  TRP75       0.0810
     88  CE3      -20.1780  -18.7540   -7.3500 C.ar   75  TRP75       0.0012
     89  CZ2      -20.1110  -17.6180   -4.7240 C.ar   75  TRP75       0.0191
     90  CZ3      -20.2860  -17.3600   -7.1410 C.ar   75  TRP75       0.0001
     91  CH2      -20.2510  -16.8150   -5.8370 C.ar   75  TRP75       0.0015
     92  N        -21.5030  -24.6430   -8.6000 N.am   76  TYR76      -0.1976
     93  CA       -21.5370  -25.6160   -9.6900 C.3    76  TYR76       0.1639
     94  C        -22.7980  -26.4940   -9.6510 C.2    76  TYR76       0.2290
     95  O        -22.6930  -27.7130   -9.5410 O.2    76  TYR76      -0.2864
     96  CB       -20.2050  -26.3880   -9.7610 C.3    76  TYR76       0.0560
     97  CG       -19.0750  -25.3970   -9.8220 C.ar   76  TYR76      -0.0198
     98  CD1      -18.3240  -25.1000   -8.6790 C.ar   76  TYR76      -0.0009
     99  CD2      -18.7520  -24.7440  -11.0240 C.ar   76  TYR76      -0.0009
    100  CE1      -17.2830  -24.1840   -8.7320 C.ar   76  TYR76       0.0417
    101  CE2      -17.7120  -23.8240  -11.0880 C.ar   76  TYR76       0.0417
    102  CZ       -16.9830  -23.5510   -9.9370 C.ar   76  TYR76       0.1957
    103  OH       -15.9560  -22.6530   -9.9720 O.3    76  TYR76      -0.2866
@<TRIPOS>BOND
     1   101    99   ar
     2   101   102   ar
     3    99    97   ar
     4   103   102    1
     5   102   100   ar
     6    81    80    2
     7    97    96    1
     8    97    98   ar
     9    96    93    1
    10    10    11    1
    11    93    94    1
    12    93    92    1
    13    94    95    2
    14    80    92   am
    15    80    79    1
    16    11    12    1
    17   100    98   ar
    18     8     9    1
    19     8     7    1
    20    13    12    2
    21    12    14   am
    22    79    82    1
    23    79    78    1
    24    88    90   ar
    25    88    85   ar
    26    90    91   ar
    27    82    83    1
    28     7     6    1
    29     6     5    1
    30    14    15    1
    31    85    83   ar
    32    85    87   ar
    33    83    84   ar
    34    91    89   ar
    35    21    19    1
    36    15    18    1
    37    15    16    1
    38     5     2    1
    39    19    18    1
    40    19    20    1
    41    87    89   ar
    42    87    86   ar
    43    84    86   ar
    44    16    17    2
    45    16    22   am
    46    28    26    1
    47     4     3    2
    48     3     2    1
    49    72    71    2
    50    26    27    1
    51    26    23    1
    52     2     1    1
    53    22    23    1
    54    71    70    1
    55    23    24    1
    56    35    34   ar
    57    24    25    2
    58    24    29   am
    59    70    73    1
    60    70    69    1
    61    73    74    1
    62    34    36   ar
    63    34    33    1
    64    76    75    2
    65    29    30    1
    66    48    50   ar
    67    48    46   ar
    68    45    46   ar
    69    45    43   ar
    70    50    49   ar
    71    33    30    1
    72    46    44   ar
    73    75    74    1
    74    75    77   am
    75    30    31    1
    76    43    42   ar
    77    49    47   ar
    78    44    42   ar
    79    44    47   ar
    80    31    32    2
    81    31    37   am
    82    42    41    1
    83    37    38    1
    84    67    66   ar
    85    38    41    1
    86    38    39    1
    87    68    66   ar
    88    59    58    1
    89    66    65    1
    90    65    64    1
    91    64    61    1
    92    39    51   am
    93    39    40    2
    94    58    57    1
    95    51    52    1
    96    62    61    1
    97    62    63    2
    98    61    60    1
    99    56    57    1
   100    56    55    1
   101    52    55    1
   102    52    53    1
   103    54    53    2
