@<TRIPOS>MOLECULE
tmp/5c0mA00.pdb
 165 157 0 0 0
SMALL
GASTEIGER

@<TRIPOS>ATOM
      1  N          9.1040   12.5240    4.3390 N.3     2  ARG2       -0.1231
      2  CA        10.4330   12.0760    4.7560 C.3     2  ARG2        0.1694
      3  C         11.0420   12.9550    5.8280 C.2     2  ARG2        0.2591
      4  O         11.6370   12.4430    6.7760 O.2     2  ARG2       -0.2718
      5  CB        11.4060   12.0410    3.5700 C.3     2  ARG2        0.0321
      6  CG        12.8720   11.9380    3.9890 C.3     2  ARG2        0.0489
      7  CD        13.7590   11.5030    2.8440 C.3     2  ARG2        0.2205
      8  NE        15.1600   11.8400    3.0890 N.pl3   2  ARG2       -0.0865
      9  CZ        15.6970   13.0570    2.9780 C.cat   2  ARG2        0.5346
     10  NH1       14.9550   14.1190    2.6370 N.pl3   2  ARG2        0.1354
     11  NH2       16.9960   13.2220    3.2310 N.pl3   2  ARG2        0.1354
     12  N         10.9570   14.2720    5.6510 N.am    3  ARG3       -0.1980
     13  CA        11.6070   15.1830    6.5940 C.3     3  ARG3        0.1597
     14  C         11.0290   15.0840    7.9910 C.2     3  ARG3        0.2287
     15  O         11.7770   15.0860    8.9680 O.2     3  ARG3       -0.2864
     16  CB        11.5710   16.6290    6.0940 C.3     3  ARG3        0.0334
     17  CG        12.6210   16.8720    5.0300 C.3     3  ARG3        0.0492
     18  CD        12.6230   18.3080    4.5490 C.3     3  ARG3        0.2205
     19  NE        13.0170   19.2370    5.6010 N.pl3   3  ARG3       -0.0865
     20  CZ        12.9860   20.5650    5.4910 C.cat   3  ARG3        0.5346
     21  NH1       12.5900   21.1540    4.3580 N.pl3   3  ARG3        0.1354
     22  NH2       13.3640   21.3170    6.5220 N.pl3   3  ARG3        0.1354
     23  N         12.1530   11.7030    9.4150 N.3     6  LEU6       -0.1231
     24  CA        13.5520   11.8320    9.8530 C.3     6  LEU6        0.1693
     25  C         13.7300   12.5550   11.1640 C.2     6  LEU6        0.2591
     26  O         14.3370   12.0210   12.0880 O.2     6  LEU6       -0.2718
     27  CB        14.4110   12.5520    8.8010 C.3     6  LEU6        0.0284
     28  CG        15.1420   11.6450    7.8260 C.3     6  LEU6        0.0019
     29  CD1       16.0320   12.5190    6.9580 C.3     6  LEU6        0.0001
     30  CD2       15.9360   10.5510    8.5400 C.3     6  LEU6        0.0001
     31  N         13.2100   13.7790   11.2300 N.am    7  MET7       -0.1979
     32  CA        13.2670   14.5940   12.4480 C.3     7  MET7        0.1605
     33  C         12.6590   13.9230   13.6560 C.2     7  MET7        0.2287
     34  O         13.1860   14.0530   14.7680 O.2     7  MET7       -0.2864
     35  CB        12.5390   15.9310   12.2430 C.3     7  MET7        0.0413
     36  CG        13.2060   16.8590   11.2560 C.3     7  MET7        0.0598
     37  SD        14.8100   17.3930   11.8230 S.3     7  MET7       -0.1393
     38  CE        15.8640   16.3150   10.8220 C.3     7  MET7        0.0692
     39  N         31.1550   13.5970    4.2970 N.3    61  GLN61      -0.1245
     40  CA        30.3240   14.0260    5.4180 C.3    61  GLN61       0.1566
     41  C         30.4240   13.0020    6.5390 C.2    61  GLN61       0.2260
     42  O         30.5380   11.7960    6.2800 O.2    61  GLN61      -0.2867
     43  CB        28.8540   14.1110    5.0210 C.3    61  GLN61       0.0367
     44  CG        28.5120   15.0730    3.8920 C.3    61  GLN61       0.0905
     45  CD        28.3790   16.5290    4.3090 C.2    61  GLN61       0.2608
     46  OE1       28.0860   16.8450    5.4650 O.2    61  GLN61      -0.2717
     47  NE2       28.5660   17.4320    3.3450 N.am   61  GLN61      -0.0878
     48  N         27.9640   11.3250    8.7730 N.3    63  ILE63      -0.1245
     49  CA        26.5260   11.0730    8.7740 C.3    63  ILE63       0.1561
     50  C         26.0670   10.2900    9.9980 C.2    63  ILE63       0.2260
     51  O         26.8450    9.5130   10.5810 O.2    63  ILE63      -0.2867
     52  CB        26.0530   10.3490    7.4870 C.3    63  ILE63       0.0252
     53  CG1       26.5390    8.8790    7.3970 C.3    63  ILE63       0.0019
     54  CG2       26.5140   11.1170    6.2710 C.3    63  ILE63       0.0019
     55  CD1       25.7220    8.0470    6.4220 C.3    63  ILE63       0.0001
     56  N         22.7690    4.2420    6.7280 N.3    81  ASP81      -0.1239
     57  CA        22.2260    5.5940    6.9440 C.3    81  ASP81       0.1674
     58  C         20.8660    5.4600    7.6520 C.2    81  ASP81       0.2266
     59  O         20.0910    4.5870    7.2860 O.2    81  ASP81      -0.2867
     60  CB        22.0640    6.1970    5.5500 C.3    81  ASP81       0.1410
     61  CG        21.7780    7.6940    5.5430 C.2    81  ASP81       0.3668
     62  OD1       21.1990    8.2640    6.4930 O.co2  81  ASP81      -0.2456
     63  OD2       22.1050    8.2760    4.5040 O.co2  81  ASP81      -0.2456
     64  N         18.5740    7.5160    7.3680 N.3    83  ASP83      -0.1239
     65  CA        17.6810    8.0230    6.3390 C.3    83  ASP83       0.1674
     66  C         17.4500    6.9270    5.3110 C.2    83  ASP83       0.2266
     67  O         18.3970    6.4350    4.7100 O.2    83  ASP83      -0.2867
     68  CB        18.3750    9.2080    5.6780 C.3    83  ASP83       0.1410
     69  CG        17.5760    9.8450    4.5760 C.2    83  ASP83       0.3668
     70  OD1       16.3560    9.5500    4.4310 O.co2  83  ASP83      -0.2456
     71  OD2       18.2080   10.6480    3.8510 O.co2  83  ASP83      -0.2456
     72  N         16.2890    7.2900    2.3430 N.3    85  GLU85      -0.1231
     73  CA        16.8160    7.7380    1.0380 C.3    85  GLU85       0.1699
     74  C         18.3140    7.4640    0.8490 C.2    85  GLU85       0.2592
     75  O         18.8150    7.5970   -0.2660 O.2    85  GLU85      -0.2718
     76  CB        16.5360    9.2270    0.7920 C.3    85  GLU85       0.0402
     77  CG        15.1380    9.5240    0.2570 C.3    85  GLU85       0.1161
     78  CD        15.0180   10.9260   -0.3240 C.2    85  GLU85       0.3649
     79  OE1       15.8480   11.8010    0.0190 O.co2  85  GLU85      -0.2457
     80  OE2       14.0950   11.1530   -1.1370 O.co2  85  GLU85      -0.2457
     81  N         19.0290    7.1390    1.9300 N.am   86  GLY86      -0.1957
     82  CA        20.3980    6.6450    1.8590 C.3    86  GLY86       0.1869
     83  C         20.3330    5.1580    1.5920 C.2    86  GLY86       0.2309
     84  O         20.1700    4.3500    2.5130 O.2    86  GLY86      -0.2863
     85  N         23.9450   18.9440   13.1010 N.3   125  TYR125     -0.1241
     86  CA        23.3920   20.2720   12.8080 C.3   125  TYR125      0.1605
     87  C         21.8730   20.1830   12.7450 C.2   125  TYR125      0.2264
     88  O         21.3490   19.2670   12.1290 O.2   125  TYR125     -0.2867
     89  CB        23.9740   20.8390   11.5220 C.3   125  TYR125      0.0534
     90  CG        23.6580   22.2950   11.3300 C.ar  125  TYR125     -0.0201
     91  CD1       24.4460   23.2770   11.9230 C.ar  125  TYR125     -0.0009
     92  CD2       22.5980   22.6920   10.5410 C.ar  125  TYR125     -0.0009
     93  CE1       24.1710   24.6300   11.7440 C.ar  125  TYR125      0.0417
     94  CE2       22.3220   24.0300   10.3450 C.ar  125  TYR125      0.0417
     95  CZ        23.1000   24.9940   10.9500 C.ar  125  TYR125      0.1957
     96  OH        22.8110   26.3230   10.7550 O.3   125  TYR125     -0.2866
     97  N         18.0760   20.0720   11.9040 N.3   127  GLN127     -0.1231
     98  CA        17.3530   19.7490   10.6510 C.3   127  GLN127      0.1698
     99  C         18.1510   18.9310    9.6380 C.2   127  GLN127      0.2593
    100  O         17.7230   18.7740    8.4860 O.2   127  GLN127     -0.2718
    101  CB        16.7700   21.0020    9.9870 C.3   127  GLN127      0.0381
    102  CG        16.0180   21.8760   10.9620 C.3   127  GLN127      0.0905
    103  CD        15.0780   22.8420   10.2940 C.2   127  GLN127      0.2608
    104  OE1       15.1660   24.0490   10.5070 O.2   127  GLN127     -0.2717
    105  NE2       14.1510   22.3180    9.4930 N.am  127  GLN127     -0.0878
    106  N         19.3150   18.4380   10.0480 N.am  128  THR128     -0.1939
    107  CA        20.1300   17.5680    9.2290 C.3   128  THR128      0.2028
    108  C         20.3210   16.2380    9.9540 C.2   128  THR128      0.2643
    109  O         19.9540   16.0920   11.1280 O.2   128  THR128     -0.2714
    110  CB        21.5150   18.1790    8.9310 C.3   128  THR128      0.1808
    111  OG1       22.3810   18.0420   10.0700 O.3   128  THR128     -0.2208
    112  CG2       21.4160   19.6530    8.5330 C.3   128  THR128      0.0379
    113  N         20.8960   15.2780    9.2480 N.am  129  THR129     -0.1936
    114  CA        21.3540   14.0300    9.8660 C.3   129  THR129      0.2028
    115  C         22.8890   13.9500    9.7990 C.2   129  THR129      0.2642
    116  O         23.4570   12.8590    9.8340 O.2   129  THR129     -0.2714
    117  CB        20.6970   12.8000    9.1930 C.3   129  THR129      0.1808
    118  OG1       21.2010   12.6590    7.8720 O.3   129  THR129     -0.2208
    119  CG2       19.1510   12.9280    9.1720 C.3   129  THR129      0.0379
    120  N         23.5610   15.1070    9.7500 N.am  130  CYS130     -0.1967
    121  CA        25.0320   15.1630    9.5940 C.3   130  CYS130      0.1712
    122  C         25.7280   15.9470   10.7030 C.2   130  CYS130      0.2296
    123  O         25.1670   16.8830   11.2690 O.2   130  CYS130     -0.2864
    124  CB        25.4240   15.7460    8.2470 C.3   130  CYS130      0.0983
    125  SG        24.9820   14.6630    6.8620 S.3   130  CYS130     -0.0798
    126  N         29.0190   18.2280   12.1790 N.3   132  TYR132     -0.1241
    127  CA        29.9420   19.2910   11.7640 C.3   132  TYR132      0.1605
    128  C         30.7110   19.8230   12.9490 C.2   132  TYR132      0.2264
    129  O         30.2350   19.7270   14.0780 O.2   132  TYR132     -0.2867
    130  CB        29.1670   20.4220   11.1090 C.3   132  TYR132      0.0534
    131  CG        28.3830   19.9700    9.9020 C.ar  132  TYR132     -0.0201
    132  CD1       27.0850   19.4960   10.0350 C.ar  132  TYR132     -0.0009
    133  CD2       28.9430   19.9940    8.6440 C.ar  132  TYR132     -0.0009
    134  CE1       26.3550   19.0830    8.9390 C.ar  132  TYR132      0.0417
    135  CE2       28.2090   19.5790    7.5340 C.ar  132  TYR132      0.0417
    136  CZ        26.9100   19.1260    7.6990 C.ar  132  TYR132      0.1957
    137  OH        26.1510   18.6910    6.6290 O.3   132  TYR132     -0.2866
    138  N         28.6290   26.3060   15.8750 N.3   151  PHE151     -0.1227
    139  CA        29.1990   25.6560   14.7060 C.3   151  PHE151      0.1736
    140  C         30.1870   26.5810   13.9980 C.2   151  PHE151      0.2595
    141  O         29.9680   27.7950   13.9450 O.2   151  PHE151     -0.2718
    142  CB        28.1050   25.2120   13.7290 C.3   151  PHE151      0.0547
    143  CG        27.3030   24.0370   14.2130 C.ar  151  PHE151     -0.0202
    144  CD1       27.7080   22.7420   13.9400 C.ar  151  PHE151     -0.0042
    145  CD2       26.1310   24.2270   14.9520 C.ar  151  PHE151     -0.0042
    146  CE1       26.9680   21.6610   14.3780 C.ar  151  PHE151     -0.0003
    147  CE2       25.3920   23.1480   15.3900 C.ar  151  PHE151     -0.0003
    148  CZ        25.8110   21.8610   15.0990 C.ar  151  PHE151     -0.0000
    149  N         31.2750   26.0080   13.4760 N.am  152  GLU152     -0.1965
    150  CA        32.1440   26.7190   12.5350 C.3   152  GLU152      0.1733
    151  C         31.3130   26.9710   11.2820 C.2   152  GLU152      0.2616
    152  O         30.8090   26.0440   10.6550 O.2   152  GLU152     -0.2715
    153  CB        33.4320   25.9320   12.2110 C.3   152  GLU152      0.0429
    154  CG        34.3320   25.7420   13.4140 C.3   152  GLU152      0.1163
    155  CD        35.6040   24.9590   13.1020 C.2   152  GLU152      0.3649
    156  OE1       35.7810   24.4690   11.9720 O.co2 152  GLU152     -0.2457
    157  OE2       36.4310   24.8440   14.0160 O.co2 152  GLU152     -0.2457
    158  N         31.1490   28.2420   10.9500 N.am  153  ASP153     -0.1971
    159  CA        30.2520   28.6730    9.8870 C.3   153  ASP153      0.1709
    160  C         30.7970   29.9550    9.2720 C.2   153  ASP153      0.2293
    161  O         30.6610   31.0440    9.8420 O.2   153  ASP153     -0.2864
    162  CB        28.8460   28.8880   10.4700 C.3   153  ASP153      0.1436
    163  CG        27.7820   29.1920    9.3960 C.2   153  ASP153      0.3671
    164  OD1       28.1160   29.5620    8.2650 O.co2 153  ASP153     -0.2456
    165  OD2       26.5850   29.0610    9.7140 O.co2 153  ASP153     -0.2456
@<TRIPOS>BOND
     1    80    78   ar
     2    78    79   ar
     3    78    77    1
     4    75    74    2
     5    77    76    1
     6    76    73    1
     7    74    73    1
     8    74    81   am
     9    73    72    1
    10    83    82    1
    11    83    84    2
    12    82    81    1
    13    10     9    1
    14     7     8    1
    15     7     6    1
    16     9     8    2
    17     9    11    1
    18    47    45   am
    19     5     6    1
    20     5     2    1
    21    71    69   ar
    22    44    45    1
    23    44    43    1
    24    39    40    1
    25    45    46    2
    26     1     2    1
    27    21    20    1
    28    70    69   ar
    29    63    61   ar
    30    18    17    1
    31    18    19    1
    32    69    68    1
    33    67    66    2
    34     2     3    1
    35    43    40    1
    36    17    16    1
    37    66    65    1
    38    40    41    1
    39    20    19    2
    40    20    22    1
    41    61    60    1
    42    61    62   ar
    43    60    57    1
    44    12     3   am
    45    12    13    1
    46    68    65    1
    47     3     4    2
    48    16    13    1
    49    54    52    1
    50    42    41    2
    51    65    64    1
    52    55    53    1
    53    13    14    1
    54   137   136    1
    55    56    57    1
    56   125   124    1
    57    57    58    1
    58    29    28    1
    59    59    58    2
    60    53    52    1
    61    52    49    1
    62   135   136   ar
    63   135   133   ar
    64   136   134   ar
    65    28    30    1
    66    28    27    1
    67   118   117    1
    68    14    15    2
    69   124   121    1
    70   164   163   ar
    71   100    99    2
    72   112   110    1
    73   133   131   ar
    74    48    49    1
    75    49    50    1
    76    27    24    1
    77   110   107    1
    78   110   111    1
    79   134   132   ar
    80   119   117    1
    81   117   114    1
    82   107   108    1
    83   107   106    1
    84   113   114    1
    85   113   108   am
    86   160   161    2
    87   160   159    1
    88   163   165   ar
    89   163   162    1
    90    23    24    1
    91   105   103   am
    92   121   120    1
    93   121   122    1
    94    99   106   am
    95    99    98    1
    96   120   115   am
    97   115   116    2
    98   115   114    1
    99    24    25    1
   100   159   162    1
   101   159   158    1
   102   131   132   ar
   103   131   130    1
   104   108   109    2
   105   101    98    1
   106   101   102    1
   107    50    51    2
   108   103   104    2
   109   103   102    1
   110    94    92   ar
   111    94    95   ar
   112    92    90   ar
   113    98    97    1
   114   152   151    2
   115   122   123    2
   116    96    95    1
   117    38    37    1
   118   158   151   am
   119    95    93   ar
   120   130   127    1
   121    25    31   am
   122    25    26    2
   123    31    32    1
   124    36    37    1
   125    36    35    1
   126   151   150    1
   127    90    89    1
   128    90    91   ar
   129    89    86    1
   130    93    91   ar
   131   127   126    1
   132   127   128    1
   133   156   155   ar
   134    88    87    2
   135   153   150    1
   136   153   154    1
   137    35    32    1
   138    32    33    1
   139   150   149    1
   140    87    86    1
   141    86    85    1
   142   128   129    2
   143   155   154    1
   144   155   157   ar
   145   149   140   am
   146    33    34    2
   147   142   143    1
   148   142   139    1
   149   144   143   ar
   150   144   146   ar
   151   141   140    2
   152   140   139    1
   153   143   145   ar
   154   146   148   ar
   155   139   138    1
   156   145   147   ar
   157   148   147   ar
