@<TRIPOS>MOLECULE
tmp/5c0yB00.pdb
 250 246 0 0 0
SMALL
GASTEIGER

@<TRIPOS>ATOM
      1  N         27.2520   20.2250  -42.3950 N.3   112  ASP112     -0.1225
      2  CA        27.9560   21.4170  -41.9310 C.3   112  ASP112      0.1805
      3  C         28.1130   22.3240  -43.1330 C.2   112  ASP112      0.2598
      4  O         27.7950   21.9280  -44.2560 O.2   112  ASP112     -0.2718
      5  CB        29.3190   21.0670  -41.2910 C.3   112  ASP112      0.1424
      6  CG        29.8980   22.2060  -40.4000 C.2   112  ASP112      0.3668
      7  OD1       29.4510   23.3690  -40.4890 O.co2 112  ASP112     -0.2456
      8  OD2       30.8250   21.9380  -39.6050 O.co2 112  ASP112     -0.2456
      9  N         28.5570   23.5550  -42.8810 N.am  113  LEU113     -0.1966
     10  CA        28.8070   24.5540  -43.9250 C.3   113  LEU113      0.1728
     11  C         30.1090   25.2920  -43.6960 C.2   113  LEU113      0.2616
     12  O         30.6220   25.3470  -42.5630 O.2   113  LEU113     -0.2715
     13  CB        27.7100   25.6100  -43.9760 C.3   113  LEU113      0.0311
     14  CG        26.2600   25.1990  -44.0230 C.3   113  LEU113      0.0022
     15  CD1       25.4150   26.4480  -43.8310 C.3   113  LEU113      0.0001
     16  CD2       25.9980   24.5200  -45.3550 C.3   113  LEU113      0.0001
     17  N         30.6190   25.8810  -44.7750 N.am  114  GLU114     -0.1963
     18  CA        31.6900   26.8550  -44.6790 C.3   114  GLU114      0.1733
     19  C         31.1210   28.1810  -45.2510 C.2   114  GLU114      0.2616
     20  O         30.4560   28.1840  -46.2840 O.2   114  GLU114     -0.2715
     21  CB        32.9390   26.3370  -45.4140 C.3   114  GLU114      0.0429
     22  CG        33.4900   24.9480  -44.9060 C.3   114  GLU114      0.1163
     23  CD        34.0080   24.9340  -43.4530 C.2   114  GLU114      0.3649
     24  OE1       34.6690   25.9150  -43.0640 O.co2 114  GLU114     -0.2457
     25  OE2       33.7460   23.9610  -42.6860 O.co2 114  GLU114     -0.2457
     26  N         31.3560   29.2900  -44.5500 N.am  115  HIS115     -0.1973
     27  CA        30.7270   30.6030  -44.8130 C.3   115  HIS115      0.1656
     28  C         31.7940   31.6660  -45.0180 C.2   115  HIS115      0.2291
     29  O         32.8470   31.5990  -44.3880 O.2   115  HIS115     -0.2864
     30  CB        29.8140   30.9910  -43.6350 C.3   115  HIS115      0.0771
     31  CG        29.0120   32.2500  -43.8340 C.ar  115  HIS115      0.0820
     32  ND1       29.2870   33.4200  -43.1540 N.ar  115  HIS115     -0.2267
     33  CD2       27.8970   32.4990  -44.5620 C.ar  115  HIS115      0.1154
     34  CE1       28.4080   34.3480  -43.4960 C.ar  115  HIS115      0.1986
     35  NE2       27.5510   33.8140  -44.3470 N.ar  115  HIS115     -0.2212
     36  N         32.3230   35.9330  -45.1190 N.3   117  ASP117     -0.1239
     37  CA        31.6780   37.2290  -44.9160 C.3   117  ASP117      0.1674
     38  C         32.5780   38.4570  -45.0890 C.2   117  ASP117      0.2266
     39  O         32.1300   39.5670  -44.8340 O.2   117  ASP117     -0.2867
     40  CB        31.0310   37.2780  -43.5280 C.3   117  ASP117      0.1410
     41  CG        32.0340   37.1130  -42.4070 C.2   117  ASP117      0.3668
     42  OD1       31.6190   36.7690  -41.2870 O.co2 117  ASP117     -0.2456
     43  OD2       33.2420   37.3170  -42.6340 O.co2 117  ASP117     -0.2456
     44  N         26.2490   20.0120  -35.5390 N.3   165  HIS165     -0.1226
     45  CA        26.7530   20.4760  -34.2680 C.3   165  HIS165      0.1752
     46  C         26.6670   21.9810  -34.1630 C.2   165  HIS165      0.2596
     47  O         27.3830   22.6680  -34.8770 O.2   165  HIS165     -0.2718
     48  CB        28.2060   20.0780  -34.0760 C.3   165  HIS165      0.0759
     49  CG        28.7280   20.4950  -32.7490 C.ar  165  HIS165      0.0818
     50  ND1       28.5620   19.7330  -31.6210 N.ar  165  HIS165     -0.2268
     51  CD2       29.3180   21.6440  -32.3470 C.ar  165  HIS165      0.1154
     52  CE1       29.0730   20.3680  -30.5830 C.ar  165  HIS165      0.1986
     53  NE2       29.5350   21.5310  -30.9990 N.ar  165  HIS165     -0.2212
     54  N         25.8410   22.4990  -33.2590 N.am  166  GLY166     -0.1957
     55  CA        25.6830   23.9430  -33.1140 C.3   166  GLY166      0.1869
     56  C         25.2120   24.6060  -34.3910 C.2   166  GLY166      0.2309
     57  O         25.9400   25.3760  -35.0260 O.2   166  GLY166     -0.2863
     58  N         22.8860   26.7980  -34.9080 N.3   168  PHE168     -0.1227
     59  CA        22.1050   28.0160  -34.7200 C.3   168  PHE168      0.1736
     60  C         22.3240   28.9790  -35.8590 C.2   168  PHE168      0.2595
     61  O         21.3760   29.5010  -36.4240 O.2   168  PHE168     -0.2718
     62  CB        22.4120   28.6930  -33.3690 C.3   168  PHE168      0.0547
     63  CG        23.8780   29.0060  -33.1140 C.ar  168  PHE168     -0.0202
     64  CD1       24.2920   30.3180  -32.9370 C.ar  168  PHE168     -0.0042
     65  CD2       24.8220   27.9970  -32.9830 C.ar  168  PHE168     -0.0042
     66  CE1       25.6250   30.6210  -32.6700 C.ar  168  PHE168     -0.0003
     67  CE2       26.1520   28.2950  -32.7250 C.ar  168  PHE168     -0.0003
     68  CZ        26.5510   29.6040  -32.5630 C.ar  168  PHE168     -0.0000
     69  N         23.5760   29.1720  -36.2360 N.am  169  MET169     -0.1965
     70  CA        23.8720   30.0080  -37.3880 C.3   169  MET169      0.1736
     71  C         23.6720   29.2710  -38.7080 C.2   169  MET169      0.2616
     72  O         23.2600   29.8840  -39.6800 O.2   169  MET169     -0.2715
     73  CB        25.2950   30.5670  -37.2910 C.3   169  MET169      0.0427
     74  CG        25.4100   31.6770  -36.2520 C.3   169  MET169      0.0599
     75  SD        24.1520   32.9440  -36.4600 S.3   169  MET169     -0.1393
     76  CE        24.0600   33.5510  -34.7840 C.3   169  MET169      0.0692
     77  N         23.9850   27.9790  -38.7610 N.am  170  ASN170     -0.1972
     78  CA        23.8400   27.2380  -40.0200 C.3   170  ASN170      0.1688
     79  C         22.3960   27.3000  -40.5330 C.2   170  ASN170      0.2292
     80  O         22.1560   27.4040  -41.7260 O.2   170  ASN170     -0.2864
     81  CB        24.2820   25.7730  -39.8590 C.3   170  ASN170      0.1181
     82  CG        25.8100   25.5980  -39.8740 C.2   170  ASN170      0.2629
     83  OD1       26.5350   26.4440  -40.3890 O.2   170  ASN170     -0.2716
     84  ND2       26.2930   24.4750  -39.3390 N.am  170  ASN170     -0.0877
     85  N         21.7620   30.7700  -42.3700 N.3   173  TRP173     -0.1241
     86  CA        22.4370   30.8210  -43.6660 C.3   173  TRP173      0.1605
     87  C         21.8140   29.9550  -44.7470 C.2   173  TRP173      0.2264
     88  O         21.7440   30.3650  -45.9020 O.2   173  TRP173     -0.2867
     89  CB        23.9010   30.4350  -43.4820 C.3   173  TRP173      0.0550
     90  CG        24.6420   31.3920  -42.5720 C.ar  173  TRP173      0.0003
     91  CD1       24.3120   32.6960  -42.3140 C.ar  173  TRP173      0.0946
     92  CD2       25.8220   31.1180  -41.7980 C.ar  173  TRP173      0.0152
     93  NE1       25.2080   33.2420  -41.4260 N.ar  173  TRP173     -0.2442
     94  CE2       26.1470   32.2960  -41.1000 C.ar  173  TRP173      0.0810
     95  CE3       26.6410   29.9970  -41.6340 C.ar  173  TRP173      0.0012
     96  CZ2       27.2500   32.3840  -40.2500 C.ar  173  TRP173      0.0191
     97  CZ3       27.7390   30.0880  -40.7830 C.ar  173  TRP173      0.0001
     98  CH2       28.0290   31.2720  -40.1050 C.ar  173  TRP173      0.0015
     99  N         25.3960   19.9060  -30.2330 N.3   189  TYR189     -0.1227
    100  CA        25.7920   20.9060  -29.2440 C.3   189  TYR189      0.1736
    101  C         24.8460   20.8820  -28.0440 C.2   189  TYR189      0.2595
    102  O         25.2680   20.8990  -26.8870 O.2   189  TYR189     -0.2718
    103  CB        25.8460   22.2990  -29.8960 C.3   189  TYR189      0.0548
    104  CG        25.9760   23.4520  -28.9310 C.ar  189  TYR189     -0.0200
    105  CD1       27.1640   23.7000  -28.2740 C.ar  189  TYR189     -0.0009
    106  CD2       24.8940   24.2870  -28.6660 C.ar  189  TYR189     -0.0009
    107  CE1       27.2760   24.7480  -27.3780 C.ar  189  TYR189      0.0417
    108  CE2       24.9950   25.3320  -27.7790 C.ar  189  TYR189      0.0417
    109  CZ        26.1950   25.5640  -27.1380 C.ar  189  TYR189      0.1957
    110  OH        26.3120   26.6080  -26.2490 O.3   189  TYR189     -0.2866
    111  N         23.5490   20.8550  -28.3190 N.am  190  HIS190     -0.1975
    112  CA        22.5800   20.8040  -27.2430 C.3   190  HIS190      0.1656
    113  C         22.6260   19.4520  -26.5300 C.2   190  HIS190      0.2291
    114  O         22.4660   19.3930  -25.3160 O.2   190  HIS190     -0.2864
    115  CB        21.1900   21.1610  -27.7730 C.3   190  HIS190      0.0771
    116  CG        21.0230   22.6340  -28.0240 C.ar  190  HIS190      0.0820
    117  ND1       21.0060   23.5650  -27.0030 N.ar  190  HIS190     -0.2267
    118  CD2       20.8970   23.3420  -29.1720 C.ar  190  HIS190      0.1154
    119  CE1       20.8620   24.7750  -27.5120 C.ar  190  HIS190      0.1986
    120  NE2       20.7900   24.6670  -28.8280 N.ar  190  HIS190     -0.2212
    121  N         25.6350   19.6170  -24.2680 N.3   193  LYS193     -0.1245
    122  CA        25.3020   20.4220  -23.1110 C.3   193  LYS193      0.1561
    123  C         24.4190   19.6570  -22.1390 C.2   193  LYS193      0.2260
    124  O         24.6830   19.6550  -20.9420 O.2   193  LYS193     -0.2867
    125  CB        24.6150   21.7150  -23.5370 C.3   193  LYS193      0.0271
    126  CG        25.5610   22.8980  -23.5460 C.3   193  LYS193      0.0035
    127  CD        24.9980   24.1050  -24.2770 C.3   193  LYS193      0.0206
    128  CE        23.9640   24.8500  -23.4140 C.3   193  LYS193      0.1093
    129  NZ        23.2860   25.9720  -24.1440 N.3   193  LYS193     -0.1314
    130  N         31.9110   21.9550  -25.0180 N.3   200  HIS200     -0.1226
    131  CA        30.8210   21.6980  -25.9540 C.3   200  HIS200      0.1752
    132  C         31.1060   21.9830  -27.4310 C.2   200  HIS200      0.2597
    133  O         30.1770   21.9920  -28.2230 O.2   200  HIS200     -0.2718
    134  CB        29.5960   22.5150  -25.5320 C.3   200  HIS200      0.0759
    135  CG        29.1970   22.3010  -24.1050 C.ar  200  HIS200      0.0818
    136  ND1       29.0170   23.3410  -23.2200 N.ar  200  HIS200     -0.2268
    137  CD2       28.9530   21.1670  -23.4070 C.ar  200  HIS200      0.1154
    138  CE1       28.6800   22.8550  -22.0370 C.ar  200  HIS200      0.1986
    139  NE2       28.6390   21.5390  -22.1230 N.ar  200  HIS200     -0.2212
    140  N         32.3690   22.1670  -27.8040 N.am  201  SER201     -0.1938
    141  CA        32.7370   22.4800  -29.1820 C.3   201  SER201      0.2055
    142  C         32.8770   21.2320  -30.0370 C.2   201  SER201      0.2643
    143  O         33.0670   20.1420  -29.5220 O.2   201  SER201     -0.2714
    144  CB        34.0600   23.2430  -29.2140 C.3   201  SER201      0.2130
    145  OG        35.0800   22.4340  -28.6520 O.3   201  SER201     -0.2179
    146  N         32.8050   21.4020  -31.3490 N.am  202  LEU202     -0.1963
    147  CA        33.0680   20.3170  -32.2810 C.3   202  LEU202      0.1728
    148  C         34.4770   19.7900  -32.0850 C.2   202  LEU202      0.2616
    149  O         34.6960   18.5880  -32.0200 O.2   202  LEU202     -0.2715
    150  CB        32.8860   20.7990  -33.7160 C.3   202  LEU202      0.0311
    151  CG        33.1240   19.7770  -34.8250 C.3   202  LEU202      0.0022
    152  CD1       32.1630   18.6110  -34.7270 C.3   202  LEU202      0.0001
    153  CD2       33.0620   20.4400  -36.1870 C.3   202  LEU202      0.0001
    154  N         35.4330   20.7010  -31.9680 N.am  203  ALA203     -0.1977
    155  CA        36.8230   20.3160  -31.7740 C.3   203  ALA203      0.1597
    156  C         36.9750   19.3850  -30.5840 C.2   203  ALA203      0.2287
    157  O         37.7320   18.4180  -30.6240 O.2   203  ALA203     -0.2864
    158  CB        37.6830   21.5480  -31.5780 C.3   203  ALA203      0.0319
    159  N         41.3150   19.0880  -34.3610 N.3   214  THR214     -0.1218
    160  CA        40.8490   19.9750  -35.4160 C.3   214  THR214      0.1862
    161  C         41.8000   21.1590  -35.5620 C.2   214  THR214      0.2287
    162  O         42.4400   21.5880  -34.5940 O.2   214  THR214     -0.2866
    163  CB        39.4070   20.4550  -35.1640 C.3   214  THR214      0.1770
    164  OG1       38.6690   20.4120  -36.3950 O.3   214  THR214     -0.2211
    165  CG2       39.3810   21.8720  -34.5970 C.3   214  THR214      0.0375
    166  N         40.5430   27.6950  -40.2560 N.3   219  GLN219     -0.1245
    167  CA        39.3340   28.4570  -39.9480 C.3   219  GLN219      0.1566
    168  C         39.5620   29.9480  -40.2690 C.2   219  GLN219      0.2260
    169  O         38.6450   30.7620  -40.1770 O.2   219  GLN219     -0.2867
    170  CB        38.9510   28.2740  -38.4670 C.3   219  GLN219      0.0367
    171  CG        39.1410   26.8440  -37.9550 C.3   219  GLN219      0.0905
    172  CD        38.0820   26.3740  -36.9780 C.2   219  GLN219      0.2608
    173  OE1       37.1700   25.6330  -37.3430 O.2   219  GLN219     -0.2717
    174  NE2       38.2130   26.7840  -35.7190 N.am  219  GLN219     -0.0878
    175  N         37.1680   30.4790  -48.1570 N.3   223  TRP223     -0.1241
    176  CA        36.4430   29.3330  -48.6760 C.3   223  TRP223      0.1605
    177  C         35.8690   29.5620  -50.0870 C.2   223  TRP223      0.2264
    178  O         35.1870   28.6800  -50.6090 O.2   223  TRP223     -0.2867
    179  CB        35.3370   28.9100  -47.6980 C.3   223  TRP223      0.0550
    180  CG        35.9150   28.3690  -46.4100 C.ar  223  TRP223      0.0003
    181  CD1       36.0090   29.0190  -45.2150 C.ar  223  TRP223      0.0946
    182  CD2       36.5800   27.1040  -46.2290 C.ar  223  TRP223      0.0152
    183  NE1       36.6380   28.2170  -44.2850 N.ar  223  TRP223     -0.2442
    184  CE2       37.0060   27.0420  -44.8870 C.ar  223  TRP223      0.0810
    185  CE3       36.8290   26.0110  -47.0630 C.ar  223  TRP223      0.0012
    186  CZ2       37.6720   25.9360  -44.3640 C.ar  223  TRP223      0.0191
    187  CZ3       37.4900   24.9110  -46.5410 C.ar  223  TRP223      0.0001
    188  CH2       37.9060   24.8850  -45.2070 C.ar  223  TRP223      0.0015
    189  N         40.0180   19.2710  -43.8450 N.3   235  TYR235     -0.1241
    190  CA        39.4580   19.9280  -42.6830 C.3   235  TYR235      0.1605
    191  C         37.9410   20.0360  -42.8230 C.2   235  TYR235      0.2264
    192  O         37.2120   19.8830  -41.8430 O.2   235  TYR235     -0.2867
    193  CB        40.0940   21.3190  -42.5050 C.3   235  TYR235      0.0534
    194  CG        39.2830   22.2710  -41.6560 C.ar  235  TYR235     -0.0201
    195  CD1       39.5150   22.3920  -40.2920 C.ar  235  TYR235     -0.0009
    196  CD2       38.2750   23.0550  -42.2200 C.ar  235  TYR235     -0.0009
    197  CE1       38.7560   23.2600  -39.5170 C.ar  235  TYR235      0.0417
    198  CE2       37.5170   23.9160  -41.4540 C.ar  235  TYR235      0.0417
    199  CZ        37.7670   24.0180  -40.1130 C.ar  235  TYR235      0.1957
    200  OH        37.0160   24.8800  -39.3660 O.3   235  TYR235     -0.2866
    201  N         34.5200   17.7560  -40.6800 N.3   239  ASP239     -0.1239
    202  CA        33.3600   18.3450  -40.0110 C.3   239  ASP239      0.1674
    203  C         32.1830   17.3780  -39.9210 C.2   239  ASP239      0.2266
    204  O         31.4420   17.4020  -38.9530 O.2   239  ASP239     -0.2867
    205  CB        32.8830   19.6250  -40.7130 C.3   239  ASP239      0.1410
    206  CG        33.7830   20.8250  -40.4400 C.2   239  ASP239      0.3668
    207  OD1       34.5550   20.8040  -39.4530 O.co2 239  ASP239     -0.2456
    208  OD2       33.6490   21.8330  -41.1690 O.co2 239  ASP239     -0.2456
    209  N         14.6200   28.9130  -35.8480 N.3   273  ARG273     -0.1245
    210  CA        15.2270   30.2510  -35.9210 C.3   273  ARG273      0.1563
    211  C         14.9460   30.9080  -37.2660 C.2   273  ARG273      0.2260
    212  O         14.9770   30.2360  -38.2990 O.2   273  ARG273     -0.2867
    213  CB        16.7390   30.2160  -35.7130 C.3   273  ARG273      0.0307
    214  CG        17.2410   30.1850  -34.2830 C.3   273  ARG273      0.0489
    215  CD        18.7680   30.2860  -34.3270 C.3   273  ARG273      0.2205
    216  NE        19.3930   30.3760  -33.0090 N.pl3 273  ARG273     -0.0865
    217  CZ        20.2400   31.3330  -32.6340 C.cat 273  ARG273      0.5346
    218  NH1       20.5750   32.3020  -33.4800 N.pl3 273  ARG273      0.1354
    219  NH2       20.7570   31.3130  -31.4080 N.pl3 273  ARG273      0.1354
    220  N         16.9290   39.0920  -29.3620 N.3   286  SER286     -0.1202
    221  CA        16.4830   37.7570  -29.0080 C.3   286  SER286      0.2020
    222  C         17.1610   36.6740  -29.8240 C.2   286  SER286      0.2619
    223  O         17.3730   36.8310  -31.0250 O.2   286  SER286     -0.2717
    224  CB        14.9680   37.6620  -29.1820 C.3   286  SER286      0.2103
    225  OG        14.5660   38.2410  -30.4130 O.3   286  SER286     -0.2182
    226  N         17.5160   35.5820  -29.1490 N.am  287  SER287     -0.1951
    227  CA        18.0330   34.3830  -29.8030 C.3   287  SER287      0.1924
    228  C         17.0000   33.7250  -30.7310 C.2   287  SER287      0.2314
    229  O         17.3320   32.8160  -31.4940 O.2   287  SER287     -0.2863
    230  CB        18.5080   33.3710  -28.7510 C.3   287  SER287      0.2116
    231  OG        19.5000   33.9300  -27.9050 O.3   287  SER287     -0.2180
    232  N         15.3620   35.3200  -33.1340 N.3   289  VAL289     -0.1231
    233  CA        15.5150   35.9290  -34.4520 C.3   289  VAL289      0.1692
    234  C         16.9930   36.2500  -34.6800 C.2   289  VAL289      0.2592
    235  O         17.7140   36.6050  -33.7400 O.2   289  VAL289     -0.2718
    236  CB        14.6340   37.2110  -34.5990 C.3   289  VAL289      0.0266
    237  CG1       14.5040   37.6250  -36.0620 C.3   289  VAL289      0.0020
    238  CG2       13.2610   37.0150  -33.9530 C.3   289  VAL289      0.0020
    239  N         17.4590   36.0980  -35.9170 N.am  290  TYR290     -0.1976
    240  CA        18.7760   36.6160  -36.2450 C.3   290  TYR290      0.1639
    241  C         18.6620   37.7050  -37.3080 C.2   290  TYR290      0.2290
    242  O         18.0340   37.5180  -38.3590 O.2   290  TYR290     -0.2864
    243  CB        19.7280   35.5210  -36.7380 C.3   290  TYR290      0.0560
    244  CG        21.0810   36.0860  -37.1470 C.ar  290  TYR290     -0.0198
    245  CD1       22.0780   36.3060  -36.2000 C.ar  290  TYR290     -0.0009
    246  CD2       21.3410   36.4530  -38.4700 C.ar  290  TYR290     -0.0009
    247  CE1       23.3060   36.8360  -36.5580 C.ar  290  TYR290      0.0417
    248  CE2       22.5650   36.9940  -38.8420 C.ar  290  TYR290      0.0417
    249  CZ        23.5500   37.1800  -37.8800 C.ar  290  TYR290      0.1957
    250  OH        24.7820   37.7070  -38.2250 O.3   290  TYR290     -0.2866
@<TRIPOS>BOND
     1   178   177    2
     2   177   176    1
     3   176   175    1
     4   176   179    1
     5   179   180    1
     6   185   187   ar
     7   185   182   ar
     8   187   188   ar
     9   180   182   ar
    10   180   181   ar
    11    20    19    2
    12   182   184   ar
    13    88    87    2
    14    21    22    1
    15    21    18    1
    16    16    14    1
    17    19    18    1
    18    19    26   am
    19   181   183   ar
    20   188   186   ar
    21    36    37    1
    22    38    37    1
    23    38    39    2
    24    28    27    1
    25    28    29    2
    26    37    40    1
    27    22    23    1
    28   184   186   ar
    29   184   183   ar
    30    27    26    1
    31    27    30    1
    32    17    18    1
    33    17    11   am
    34    87    86    1
    35    33    35   ar
    36    33    31   ar
    37    35    34   ar
    38     4     3    2
    39    14    13    1
    40    14    15    1
    41    13    10    1
    42    10    11    1
    43    10     9    1
    44   189   190    1
    45    31    30    1
    46    31    32   ar
    47    11    12    2
    48    86    89    1
    49    86    85    1
    50    40    41    1
    51    34    32   ar
    52    89    90    1
    53    23    24   ar
    54    23    25   ar
    55     3     9   am
    56     3     2    1
    57   191   190    1
    58   191   192    2
    59   190   193    1
    60    43    41   ar
    61    90    91   ar
    62    90    92   ar
    63   193   194    1
    64    41    42   ar
    65     1     2    1
    66    91    93   ar
    67   196   194   ar
    68   196   198   ar
    69     2     5    1
    70    92    95   ar
    71    92    94   ar
    72    80    79    2
    73   194   195   ar
    74    95    97   ar
    75   198   199   ar
    76    93    94   ar
    77     5     6    1
    78   208   206   ar
    79    94    96   ar
    80    97    98   ar
    81   205   206    1
    82   205   202    1
    83   201   202    1
    84    79    78    1
    85     7     6   ar
    86   206   207   ar
    87     6     8   ar
    88    83    82    2
    89   195   197   ar
    90   168   169    2
    91   168   167    1
    92   166   167    1
    93    96    98   ar
    94   199   197   ar
    95   199   200    1
    96    78    81    1
    97    78    77    1
    98   202   203    1
    99   167   170    1
   100   203   204    2
   101    82    81    1
   102    82    84   am
   103    72    71    2
   104   248   246   ar
   105   248   249   ar
   106    77    71   am
   107    71    70    1
   108   246   244   ar
   109   170   171    1
   110   242   241    2
   111   212   211    2
   112   250   249    1
   113   171   172    1
   114   249   247   ar
   115    70    73    1
   116    70    69    1
   117   173   172    2
   118   241   240    1
   119    73    74    1
   120   211   210    1
   121   244   243    1
   122   244   245   ar
   123   172   174   am
   124   243   240    1
   125   247   245   ar
   126    75    74    1
   127    75    76    1
   128    61    60    2
   129   164   163    1
   130   240   239    1
   131    69    60   am
   132   153   151    1
   133   237   236    1
   134   210   209    1
   135   210   213    1
   136   239   234   am
   137    60    59    1
   138   213   214    1
   139   161   160    1
   140   161   162    2
   141    44    45    1
   142   160   163    1
   143   160   159    1
   144   163   165    1
   145    57    56    2
   146    58    59    1
   147    47    46    2
   148   151   152    1
   149   151   150    1
   150    59    62    1
   151   234   233    1
   152   234   235    2
   153   236   233    1
   154   236   238    1
   155   233   232    1
   156    56    55    1
   157   215   214    1
   158   215   216    1
   159    45    46    1
   160    45    48    1
   161    46    54   am
   162    48    49    1
   163   150   147    1
   164   218   217    1
   165    62    63    1
   166    54    55    1
   167    63    65   ar
   168    63    64   ar
   169   216   217    2
   170    65    67   ar
   171    64    66   ar
   172    49    51   ar
   173    49    50   ar
   174    67    68   ar
   175    66    68   ar
   176   217   219    1
   177    51    53   ar
   178   147   148    1
   179   147   146    1
   180   148   149    2
   181   148   154   am
   182   154   155    1
   183   155   158    1
   184   155   156    1
   185    50    52   ar
   186   229   228    2
   187   146   142   am
   188   223   222    2
   189    53    52   ar
   190   228   227    1
   191   157   156    2
   192   225   224    1
   193    99   100    1
   194   142   143    2
   195   142   141    1
   196   103   100    1
   197   103   104    1
   198   222   226   am
   199   222   221    1
   200   227   226    1
   201   227   230    1
   202   220   221    1
   203   100   101    1
   204   144   141    1
   205   144   145    1
   206   224   221    1
   207   141   140    1
   208   118   120   ar
   209   118   116   ar
   210   104   106   ar
   211   104   105   ar
   212   120   119   ar
   213   230   231    1
   214   106   108   ar
   215   111   101   am
   216   111   112    1
   217   105   107   ar
   218   133   132    2
   219   101   102    2
   220   116   115    1
   221   116   117   ar
   222   140   132   am
   223   108   109   ar
   224   115   112    1
   225   119   117   ar
   226   132   131    1
   227   107   109   ar
   228   112   113    1
   229   109   110    1
   230   113   114    2
   231   131   134    1
   232   131   130    1
   233   134   135    1
   234   127   126    1
   235   127   128    1
   236   121   122    1
   237   129   128    1
   238   135   137   ar
   239   135   136   ar
   240   126   125    1
   241   125   122    1
   242   137   139   ar
   243   136   138   ar
   244   122   123    1
   245   123   124    2
   246   139   138   ar
