@<TRIPOS>MOLECULE
tmp/5c0yA00.pdb
 111 107 0 0 0
SMALL
GASTEIGER

@<TRIPOS>ATOM
      1  N         12.6210   43.6020   -2.6950 N.3   113  HIS113     -0.1241
      2  CA        13.0500   44.9910   -2.5410 C.3   113  HIS113      0.1621
      3  C         14.5690   45.1220   -2.6230 C.2   113  HIS113      0.2264
      4  O         15.2860   44.3980   -1.9460 O.2   113  HIS113     -0.2867
      5  CB        12.5410   45.5710   -1.2190 C.3   113  HIS113      0.0745
      6  CG        13.0350   46.9600   -0.9420 C.ar  113  HIS113      0.0817
      7  ND1       12.3840   48.0890   -1.3950 N.ar  113  HIS113     -0.2268
      8  CD2       14.1090   47.3990   -0.2430 C.ar  113  HIS113      0.1154
      9  CE1       13.0430   49.1620   -0.9990 C.ar  113  HIS113      0.1986
     10  NE2       14.0920   48.7710   -0.2950 N.ar  113  HIS113     -0.2212
     11  N         16.3010   48.5160   -2.9090 N.3   115  TYR115     -0.1241
     12  CA        16.8230   49.8680   -2.6720 C.3   115  TYR115      0.1605
     13  C         17.6130   49.9400   -1.3580 C.2   115  TYR115      0.2264
     14  O         18.7020   50.5060   -1.3210 O.2   115  TYR115     -0.2867
     15  CB        15.6790   50.9050   -2.6670 C.3   115  TYR115      0.0534
     16  CG        16.0920   52.3770   -2.6290 C.ar  115  TYR115     -0.0201
     17  CD1       16.9210   52.9180   -3.6080 C.ar  115  TYR115     -0.0009
     18  CD2       15.6140   53.2320   -1.6440 C.ar  115  TYR115     -0.0009
     19  CE1       17.2770   54.2480   -3.5920 C.ar  115  TYR115      0.0417
     20  CE2       15.9720   54.5710   -1.6210 C.ar  115  TYR115      0.0417
     21  CZ        16.7980   55.0670   -2.5990 C.ar  115  TYR115      0.1957
     22  OH        17.1520   56.3830   -2.5910 O.3   115  TYR115     -0.2866
     23  N          6.9490   48.8170   -7.5820 N.3   217  LEU217     -0.1245
     24  CA         7.9750   49.8320   -7.3440 C.3   217  LEU217      0.1561
     25  C          7.8460   50.4060   -5.9360 C.2   217  LEU217      0.2260
     26  O          8.6700   51.2100   -5.5030 O.2   217  LEU217     -0.2867
     27  CB         7.8820   50.9480   -8.3840 C.3   217  LEU217      0.0270
     28  CG         8.4250   50.6240   -9.7780 C.3   217  LEU217      0.0019
     29  CD1        9.7560   49.8760   -9.6950 C.3   217  LEU217      0.0001
     30  CD2        7.4110   49.8420  -10.6030 C.3   217  LEU217      0.0001
     31  N         22.6010   52.6760   -5.5410 N.3   332  ARG332     -0.1245
     32  CA        21.9380   53.9410   -5.8710 C.3   332  ARG332      0.1563
     33  C         21.4400   54.6890   -4.6380 C.2   332  ARG332      0.2260
     34  O         21.2950   55.9050   -4.6860 O.2   332  ARG332     -0.2867
     35  CB        20.7850   53.7480   -6.8630 C.3   332  ARG332      0.0307
     36  CG        19.5630   52.9930   -6.3710 C.3   332  ARG332      0.0489
     37  CD        18.5740   52.7640   -7.5250 C.3   332  ARG332      0.2205
     38  NE        17.3630   52.0790   -7.0820 N.pl3 332  ARG332     -0.0865
     39  CZ        17.2750   50.7620   -6.9110 C.cat 332  ARG332      0.5346
     40  NH1       18.3090   49.9820   -7.1880 N.pl3 332  ARG332      0.1354
     41  NH2       16.1440   50.2160   -6.4940 N.pl3 332  ARG332      0.1354
     42  N         23.4430   57.7200   -6.5040 N.3   336  PRO336     -0.2102
     43  CA        23.0000   57.4230   -7.8720 C.3   336  PRO336      0.1504
     44  C         24.1020   57.7260   -8.8870 C.2   336  PRO336      0.2576
     45  O         24.9080   58.6190   -8.6370 O.2   336  PRO336     -0.2718
     46  CB        21.8240   58.3740   -8.0650 C.3   336  PRO336      0.0282
     47  CG        21.3160   58.6140   -6.6890 C.3   336  PRO336      0.0208
     48  CD        22.5590   58.6910   -5.8450 C.3   336  PRO336      0.0893
     49  N         24.1200   57.0310  -10.0180 N.am  337  ASN337     -0.1961
     50  CA        25.1600   57.2460  -11.0260 C.3   337  ASN337      0.1819
     51  C         25.1960   58.7100  -11.4650 C.2   337  ASN337      0.2621
     52  O         26.2370   59.2490  -11.8200 O.2   337  ASN337     -0.2715
     53  CB        24.9490   56.3260  -12.2260 C.3   337  ASN337      0.1195
     54  CG        25.6580   55.0020  -12.0620 C.2   337  ASN337      0.2630
     55  OD1       25.3520   54.2380  -11.1500 O.2   337  ASN337     -0.2716
     56  ND2       26.6150   54.7220  -12.9450 N.am  337  ASN337     -0.0877
     57  N         24.0300   59.3310  -11.4750 N.am  338  GLN338     -0.1977
     58  CA        23.8900   60.7150  -11.8800 C.3   338  GLN338      0.1601
     59  C         24.6270   61.6280  -10.9010 C.2   338  GLN338      0.2287
     60  O         25.2530   62.5990  -11.3140 O.2   338  GLN338     -0.2864
     61  CB        22.4110   61.0590  -11.9790 C.3   338  GLN338      0.0394
     62  CG        22.1000   62.4580  -12.3900 C.3   338  GLN338      0.0908
     63  CD        20.6160   62.6290  -12.6450 C.2   338  GLN338      0.2608
     64  OE1       20.2050   62.9350  -13.7680 O.2   338  GLN338     -0.2717
     65  NE2       19.7980   62.4340  -11.6020 N.am  338  GLN338     -0.0878
     66  N         23.1360   68.9280   -7.9960 N.3   359  ASN359     -0.1225
     67  CA        22.3100   67.7460   -7.8240 C.3   359  ASN359      0.1785
     68  C         21.7290   67.6640   -6.4260 C.2   359  ASN359      0.2598
     69  O         20.5970   67.2220   -6.2240 O.2   359  ASN359     -0.2718
     70  CB        23.1470   66.4910   -8.0900 C.3   359  ASN359      0.1169
     71  CG        22.3480   65.1990   -7.9430 C.2   359  ASN359      0.2627
     72  OD1       22.0420   64.7630   -6.8290 O.2   359  ASN359     -0.2716
     73  ND2       22.0350   64.5640   -9.0690 N.am  359  ASN359     -0.0877
     74  N         22.5140   68.0930   -5.4530 N.am  360  GLY360     -0.1942
     75  CA        22.1310   67.8940   -4.0750 C.3   360  GLY360      0.2014
     76  C         22.8200   66.5670   -3.8480 C.2   360  GLY360      0.2639
     77  O         23.3950   66.0320   -4.7950 O.2   360  GLY360     -0.2714
     78  N         22.8110   66.0300   -2.6340 N.am  361  VAL361     -0.1963
     79  CA        23.5720   64.8140   -2.4050 C.3   361  VAL361      0.1727
     80  C         22.7840   63.8730   -1.5430 C.2   361  VAL361      0.2617
     81  O         21.8130   64.2650   -0.9070 O.2   361  VAL361     -0.2715
     82  CB        24.9630   65.0840   -1.7640 C.3   361  VAL361      0.0290
     83  CG1       25.6330   66.2770   -2.4020 C.3   361  VAL361      0.0023
     84  CG2       24.8620   65.2790   -0.2830 C.3   361  VAL361      0.0023
     85  N         23.2100   62.6190   -1.5320 N.am  362  THR362     -0.1937
     86  CA        22.6340   61.6190   -0.6600 C.3   362  THR362      0.2028
     87  C         23.1830   61.7210    0.7540 C.2   362  THR362      0.2642
     88  O         24.1520   62.4310    1.0190 O.2   362  THR362     -0.2714
     89  CB        22.8760   60.2160   -1.1860 C.3   362  THR362      0.1808
     90  OG1       24.2870   59.9850   -1.2810 O.3   362  THR362     -0.2208
     91  CG2       22.2570   60.0810   -2.5510 C.3   362  THR362      0.0379
     92  N         22.5480   60.9960    1.6610 N.am  363  GLU363     -0.1976
     93  CA        23.0060   60.9390    3.0280 C.3   363  GLU363      0.1602
     94  C         24.4270   60.3880    3.0850 C.2   363  GLU363      0.2287
     95  O         25.2600   60.8930    3.8260 O.2   363  GLU363     -0.2864
     96  CB        22.0450   60.0840    3.8650 C.3   363  GLU363      0.0415
     97  CG        22.4490   59.8820    5.3090 C.3   363  GLU363      0.1163
     98  CD        21.4320   59.0620    6.0850 C.2   363  GLU363      0.3649
     99  OE1       20.3370   58.7960    5.5350 O.co2 363  GLU363     -0.2457
    100  OE2       21.7350   58.6840    7.2400 O.co2 363  GLU363     -0.2457
    101  N         26.9730   63.1030    2.0140 N.3   366  ARG366     -0.1245
    102  CA        27.1500   64.1180    3.0540 C.3   366  ARG366      0.1563
    103  C         28.0850   63.6280    4.1360 C.2   366  ARG366      0.2260
    104  O         28.9650   64.3530    4.5960 O.2   366  ARG366     -0.2867
    105  CB        25.8340   64.4670    3.7320 C.3   366  ARG366      0.0307
    106  CG        25.0690   65.5890    3.1540 C.3   366  ARG366      0.0489
    107  CD        24.0500   66.0540    4.1780 C.3   366  ARG366      0.2205
    108  NE        23.0910   65.0120    4.5200 N.pl3 366  ARG366     -0.0865
    109  CZ        22.0840   64.6290    3.7420 C.cat 366  ARG366      0.5346
    110  NH1       21.8930   65.1960    2.5440 N.pl3 366  ARG366      0.1354
    111  NH2       21.2640   63.6740    4.1700 N.pl3 366  ARG366      0.1354
@<TRIPOS>BOND
     1    64    63    2
     2    56    54   am
     3    63    62    1
     4    63    65   am
     5    62    61    1
     6    53    54    1
     7    53    50    1
     8    54    55    2
     9    61    58    1
    10    58    57    1
    11    58    59    1
    12    52    51    2
    13    57    51   am
    14    51    50    1
    15    60    59    2
    16    50    49    1
    17    30    28    1
    18    49    44   am
    19    28    29    1
    20    28    27    1
    21    73    71   am
    22    44    45    2
    23    44    43    1
    24    27    24    1
    25    70    71    1
    26    70    67    1
    27    46    43    1
    28    46    47    1
    29    66    67    1
    30    71    72    2
    31    43    42    1
    32    67    68    1
    33    23    24    1
    34    37    38    1
    35    37    36    1
    36    24    25    1
    37    40    39    1
    38    38    39    2
    39    39    41    1
    40    35    36    1
    41    35    32    1
    42    47    48    1
    43    42    48    1
    44    68    69    2
    45    68    74   am
    46    25    26    2
    47    32    31    1
    48    32    33    1
    49    74    75    1
    50    77    76    2
    51    34    33    2
    52    75    76    1
    53    76    78   am
    54    17    19   ar
    55    17    16   ar
    56    19    21   ar
    57    11    12    1
    58     1     2    1
    59    12    15    1
    60    12    13    1
    61    15    16    1
    62    78    79    1
    63    16    18   ar
    64     3     2    1
    65     3     4    2
    66    21    22    1
    67    21    20   ar
    68    91    89    1
    69     2     5    1
    70    79    82    1
    71    79    80    1
    72    83    82    1
    73    82    84    1
    74    18    20   ar
    75    80    85   am
    76    80    81    2
    77    85    86    1
    78     7     9   ar
    79     7     6   ar
    80    13    14    2
    81    90    89    1
    82     5     6    1
    83    89    86    1
    84     9    10   ar
    85     6     8   ar
    86    86    87    1
    87    10     8   ar
    88    87    88    2
    89    87    92   am
    90    92    93    1
    91   101   102    1
    92   110   109    1
    93    93    94    1
    94    93    96    1
    95   102   105    1
    96   102   103    1
    97    94    95    2
    98   106   105    1
    99   106   107    1
   100   109   111    1
   101   109   108    2
   102    96    97    1
   103   103   104    2
   104   107   108    1
   105    97    98    1
   106    99    98   ar
   107    98   100   ar
