@<TRIPOS>MOLECULE
tmp/5c11A00.pdb
 156 154 0 0 0
SMALL
GASTEIGER

@<TRIPOS>ATOM
      1  N        -54.3630  -15.5430   -8.6650 N.3     1  SER1       -0.1217
      2  CA       -53.8150  -16.2440   -7.5100 C.3     1  SER1        0.1889
      3  C        -53.4060  -15.2680   -6.4150 C.2     1  SER1        0.2288
      4  O        -52.7460  -14.2680   -6.6790 O.2     1  SER1       -0.2866
      5  CB       -52.6150  -17.1030   -7.9220 C.3     1  SER1        0.2089
      6  OG       -52.9960  -18.1530   -8.7960 O.3     1  SER1       -0.2183
      7  N        -49.8490  -18.4490  -16.4470 N.3    14  ASP14      -0.1225
      8  CA       -49.6590  -19.8900  -16.3810 C.3    14  ASP14       0.1805
      9  C        -48.2920  -20.1680  -15.7670 C.2    14  ASP14       0.2598
     10  O        -47.3060  -19.5160  -16.1180 O.2    14  ASP14      -0.2718
     11  CB       -49.7800  -20.5220  -17.7670 C.3    14  ASP14       0.1424
     12  CG       -51.1370  -20.2740  -18.3990 C.2    14  ASP14       0.3668
     13  OD1      -52.1050  -20.0060  -17.6530 O.co2  14  ASP14      -0.2456
     14  OD2      -51.2390  -20.3540  -19.6420 O.co2  14  ASP14      -0.2456
     15  N        -48.2550  -21.1310  -14.8480 N.am   15  LYS15      -0.1966
     16  CA       -47.0730  -21.4650  -14.0460 C.3    15  LYS15       0.1728
     17  C        -46.7580  -20.3840  -13.0140 C.2    15  LYS15       0.2616
     18  O        -46.2790  -19.3040  -13.3530 O.2    15  LYS15      -0.2715
     19  CB       -45.8430  -21.7210  -14.9270 C.3    15  LYS15       0.0311
     20  CG       -45.9100  -23.0050  -15.7380 C.3    15  LYS15       0.0038
     21  CD       -44.5900  -23.2830  -16.4400 C.3    15  LYS15       0.0206
     22  CE       -44.6280  -24.6190  -17.1640 C.3    15  LYS15       0.1093
     23  NZ       -43.3370  -24.9410  -17.8370 N.3    15  LYS15      -0.1314
     24  N        -47.0360  -20.6920  -11.7510 N.am   16  VAL16      -0.1963
     25  CA       -46.7200  -19.8030  -10.6390 C.3    16  VAL16       0.1727
     26  C        -45.7970  -20.5210   -9.6590 C.2    16  VAL16       0.2616
     27  O        -46.0210  -21.6830   -9.3360 O.2    16  VAL16      -0.2715
     28  CB       -47.9890  -19.3380   -9.8990 C.3    16  VAL16       0.0290
     29  CG1      -47.6400  -18.2860   -8.8560 C.3    16  VAL16       0.0023
     30  CG2      -49.0140  -18.7950  -10.8840 C.3    16  VAL16       0.0023
     31  N        -44.7580  -19.8350   -9.1920 N.am   17  ASP17      -0.1957
     32  CA       -43.7940  -20.4390   -8.2750 C.3    17  ASP17       0.1840
     33  C        -44.0940  -20.0670   -6.8250 C.2    17  ASP17       0.2622
     34  O        -44.1850  -18.8920   -6.4790 O.2    17  ASP17      -0.2715
     35  CB       -42.3690  -20.0220   -8.6470 C.3    17  ASP17       0.1450
     36  CG       -41.9800  -20.4690  -10.0430 C.2    17  ASP17       0.3671
     37  OD1      -42.3790  -21.5840  -10.4450 O.co2  17  ASP17      -0.2456
     38  OD2      -41.2770  -19.7060  -10.7350 O.co2  17  ASP17      -0.2456
     39  N        -44.2470  -21.0810   -5.9790 N.am   18  TRP18      -0.1960
     40  CA       -44.5930  -20.8650   -4.5760 C.3    18  TRP18       0.1771
     41  C        -43.4680  -21.2750   -3.6310 C.2    18  TRP18       0.2620
     42  O        -42.5890  -22.0590   -3.9870 O.2    18  TRP18      -0.2715
     43  CB       -45.8580  -21.6410   -4.2040 C.3    18  TRP18       0.0590
     44  CG       -47.0710  -21.2890   -5.0020 C.ar   18  TRP18       0.0006
     45  CD1      -47.3310  -21.6430   -6.2890 C.ar   18  TRP18       0.0946
     46  CD2      -48.2020  -20.5350   -4.5550 C.ar   18  TRP18       0.0152
     47  NE1      -48.5470  -21.1470   -6.6780 N.ar   18  TRP18      -0.2442
     48  CE2      -49.1060  -20.4630   -5.6320 C.ar   18  TRP18       0.0810
     49  CE3      -48.5390  -19.9100   -3.3530 C.ar   18  TRP18       0.0012
     50  CZ2      -50.3210  -19.7930   -5.5430 C.ar   18  TRP18       0.0191
     51  CZ3      -49.7380  -19.2490   -3.2660 C.ar   18  TRP18       0.0001
     52  CH2      -50.6190  -19.1950   -4.3530 C.ar   18  TRP18       0.0015
     53  N        -43.5080  -20.7330   -2.4210 N.am   19  VAL19      -0.1963
     54  CA       -42.5890  -21.1320   -1.3680 C.3    19  VAL19       0.1727
     55  C        -43.3170  -21.0470   -0.0280 C.2    19  VAL19       0.2616
     56  O        -44.1840  -20.1950    0.1620 O.2    19  VAL19      -0.2715
     57  CB       -41.3130  -20.2560   -1.3530 C.3    19  VAL19       0.0290
     58  CG1      -41.6390  -18.8170   -0.9670 C.3    19  VAL19       0.0023
     59  CG2      -40.2640  -20.8490   -0.4200 C.3    19  VAL19       0.0023
     60  N        -42.9870  -21.9450    0.8920 N.am   20  GLN20      -0.1963
     61  CA       -43.6680  -21.9810    2.1820 C.3    20  GLN20       0.1733
     62  C        -42.7280  -21.6030    3.3200 C.2    20  GLN20       0.2616
     63  O        -41.5500  -21.9580    3.3120 O.2    20  GLN20      -0.2715
     64  CB       -44.2690  -23.3650    2.4330 C.3    20  GLN20       0.0408
     65  CG       -45.2130  -23.4050    3.6210 C.3    20  GLN20       0.0908
     66  CD       -45.8240  -24.7730    3.8380 C.2    20  GLN20       0.2608
     67  OE1      -45.3160  -25.7790    3.3470 O.2    20  GLN20      -0.2717
     68  NE2      -46.9260  -24.8160    4.5760 N.am   20  GLN20      -0.0878
     69  N        -43.2650  -20.8800    4.2980 N.am   21  CYS21      -0.1954
     70  CA       -42.4840  -20.4190    5.4360 C.3    21  CYS21       0.1843
     71  C        -42.1180  -21.5670    6.3700 C.2    21  CYS21       0.2625
     72  O        -42.9430  -22.4340    6.6580 O.2    21  CYS21      -0.2714
     73  CB       -43.2550  -19.3440    6.2050 C.3    21  CYS21       0.0997
     74  SG       -42.3630  -18.6470    7.6110 S.3    21  CYS21      -0.0797
     75  N        -40.8720  -21.5700    6.8320 N.am   22  ASP22      -0.1971
     76  CA       -40.4170  -22.5450    7.8150 C.3    22  ASP22       0.1709
     77  C        -40.5870  -21.9850    9.2200 C.2    22  ASP22       0.2293
     78  O        -40.6450  -22.7310   10.1940 O.2    22  ASP22      -0.2864
     79  CB       -38.9540  -22.9130    7.5780 C.3    22  ASP22       0.1436
     80  CG       -38.7150  -23.5000    6.2050 C.2    22  ASP22       0.3671
     81  OD1      -39.4870  -24.3900    5.7880 O.co2  22  ASP22      -0.2456
     82  OD2      -37.7530  -23.0660    5.5410 O.co2  22  ASP22      -0.2456
     83  N        -46.4420  -21.4990    8.4930 N.3    26  ASP26      -0.1239
     84  CA       -46.6640  -22.5500    7.5010 C.3    26  ASP26       0.1674
     85  C        -47.6090  -22.1270    6.3830 C.2    26  ASP26       0.2266
     86  O        -48.3760  -22.9420    5.8710 O.2    26  ASP26      -0.2867
     87  CB       -47.2040  -23.8140    8.1760 C.3    26  ASP26       0.1410
     88  CG       -46.1060  -24.6810    8.7560 C.2    26  ASP26       0.3668
     89  OD1      -45.0160  -24.1470    9.0520 O.co2  26  ASP26      -0.2456
     90  OD2      -46.3330  -25.8990    8.9120 O.co2  26  ASP26      -0.2456
     91  N        -48.2840  -20.1670    2.5160 N.3    28  TRP28      -0.1241
     92  CA       -47.6430  -20.1290    1.2080 C.3    28  TRP28       0.1605
     93  C        -47.5700  -18.7330    0.6120 C.2    28  TRP28       0.2264
     94  O        -48.4720  -17.9150    0.7900 O.2    28  TRP28      -0.2867
     95  CB       -48.3720  -21.0610    0.2420 C.3    28  TRP28       0.0550
     96  CG       -48.1070  -22.4940    0.5140 C.ar   28  TRP28       0.0003
     97  CD1      -48.8400  -23.3300    1.3060 C.ar   28  TRP28       0.0946
     98  CD2      -47.0170  -23.2750    0.0080 C.ar   28  TRP28       0.0152
     99  NE1      -48.2780  -24.5840    1.3160 N.ar   28  TRP28      -0.2442
    100  CE2      -47.1570  -24.5740    0.5270 C.ar   28  TRP28       0.0810
    101  CE3      -45.9400  -22.9960   -0.8400 C.ar   28  TRP28       0.0012
    102  CZ2      -46.2600  -25.5980    0.2290 C.ar   28  TRP28       0.0191
    103  CZ3      -45.0520  -24.0140   -1.1340 C.ar   28  TRP28       0.0001
    104  CH2      -45.2160  -25.2970   -0.6020 C.ar   28  TRP28       0.0015
    105  N        -43.2690  -16.6550   -4.8730 N.3    31  GLN31      -0.1245
    106  CA       -41.8470  -16.3220   -4.7750 C.3    31  GLN31       0.1566
    107  C        -41.5910  -14.8800   -5.1930 C.2    31  GLN31       0.2260
    108  O        -40.7880  -14.1780   -4.5810 O.2    31  GLN31      -0.2867
    109  CB       -41.0040  -17.2670   -5.6320 C.3    31  GLN31       0.0367
    110  CG       -40.9220  -18.6830   -5.0990 C.3    31  GLN31       0.0905
    111  CD       -40.0010  -19.5540   -5.9280 C.2    31  GLN31       0.2608
    112  OE1      -39.3970  -19.0920   -6.8970 O.2    31  GLN31      -0.2717
    113  NE2      -39.8890  -20.8220   -5.5520 N.am   31  GLN31      -0.0878
    114  N        -34.8400  -20.7310   -2.9170 N.3    41  ALA41      -0.1231
    115  CA       -36.0130  -21.4710   -2.4770 C.3    41  ALA41       0.1694
    116  C        -35.6810  -22.9300   -2.1670 C.2    41  ALA41       0.2591
    117  O        -36.0790  -23.4560   -1.1280 O.2    41  ALA41      -0.2718
    118  CB       -37.1060  -21.3890   -3.5300 C.3    41  ALA41       0.0304
    119  N        -34.9460  -23.5790   -3.0650 N.am   42  GLU42      -0.1979
    120  CA       -34.6790  -25.0080   -2.9290 C.3    42  GLU42       0.1602
    121  C        -33.4610  -25.3200   -2.0670 C.2    42  GLU42       0.2287
    122  O        -33.3680  -26.4070   -1.5020 O.2    42  GLU42      -0.2864
    123  CB       -34.5070  -25.6420   -4.3090 C.3    42  GLU42       0.0415
    124  CG       -35.8200  -26.0390   -4.9570 C.3    42  GLU42       0.1163
    125  CD       -35.7800  -25.9640   -6.4680 C.2    42  GLU42       0.3649
    126  OE1      -34.6820  -26.0960   -7.0470 O.co2  42  GLU42      -0.2457
    127  OE2      -36.8530  -25.7610   -7.0730 O.co2  42  GLU42      -0.2457
    128  N        -32.0150  -23.2040    0.5700 N.3    44  GLU44      -0.1231
    129  CA       -32.0140  -22.7280    1.9510 C.3    44  GLU44       0.1699
    130  C        -33.4220  -22.5060    2.4910 C.2    44  GLU44       0.2592
    131  O        -34.3990  -22.5310    1.7430 O.2    44  GLU44      -0.2718
    132  CB       -31.2000  -21.4370    2.0650 C.3    44  GLU44       0.0402
    133  CG       -31.9150  -20.1990    1.5600 C.3    44  GLU44       0.1161
    134  CD       -30.9780  -19.0240    1.3700 C.2    44  GLU44       0.3649
    135  OE1      -30.0230  -19.1520    0.5760 O.co2  44  GLU44      -0.2457
    136  OE2      -31.1950  -17.9750    2.0140 O.co2  44  GLU44      -0.2457
    137  N        -33.5160  -22.2940    3.7990 N.am   45  ASP45      -0.1960
    138  CA       -34.8010  -22.0880    4.4550 C.3    45  ASP45       0.1840
    139  C        -35.3660  -20.7010    4.1720 C.2    45  ASP45       0.2622
    140  O        -34.6340  -19.7850    3.7970 O.2    45  ASP45      -0.2715
    141  CB       -34.6680  -22.2920    5.9660 C.3    45  ASP45       0.1450
    142  CG       -34.1870  -23.6820    6.3260 C.2    45  ASP45       0.3671
    143  OD1      -34.3830  -24.6080    5.5120 O.co2  45  ASP45      -0.2456
    144  OD2      -33.6160  -23.8490    7.4250 O.co2  45  ASP45      -0.2456
    145  N        -36.6750  -20.5540    4.3550 N.am   46  TYR46      -0.1974
    146  CA       -37.3100  -19.2480    4.2450 C.3    46  TYR46       0.1639
    147  C        -38.1060  -18.9130    5.4980 C.2    46  TYR46       0.2290
    148  O        -39.0490  -19.6210    5.8570 O.2    46  TYR46      -0.2864
    149  CB       -38.2310  -19.1770    3.0220 C.3    46  TYR46       0.0560
    150  CG       -38.9470  -17.8470    2.9010 C.ar   46  TYR46      -0.0198
    151  CD1      -38.2870  -16.7260    2.4220 C.ar   46  TYR46      -0.0009
    152  CD2      -40.2780  -17.7100    3.2770 C.ar   46  TYR46      -0.0009
    153  CE1      -38.9300  -15.5050    2.3160 C.ar   46  TYR46       0.0417
    154  CE2      -40.9290  -16.4930    3.1750 C.ar   46  TYR46       0.0417
    155  CZ       -40.2500  -15.3940    2.6940 C.ar   46  TYR46       0.1957
    156  OH       -40.8900  -14.1800    2.5900 O.3    46  TYR46      -0.2866
@<TRIPOS>BOND
     1    14    12   ar
     2    12    11    1
     3    12    13   ar
     4    23    22    1
     5    11     8    1
     6    22    21    1
     7     7     8    1
     8    21    20    1
     9     8     9    1
    10    10     9    2
    11     9    15   am
    12    20    19    1
    13    19    16    1
    14    15    16    1
    15    16    17    1
    16    18    17    2
    17    17    24   am
    18    24    25    1
    19    30    28    1
    20    38    36   ar
    21    25    28    1
    22    25    26    1
    23    37    36   ar
    24    36    35    1
    25    28    29    1
    26    26    27    2
    27    26    31   am
    28    31    32    1
    29     6     5    1
    30     1     2    1
    31    35    32    1
    32    32    33    1
    33     5     2    1
    34     2     3    1
    35   127   125   ar
    36   126   125   ar
    37   112   111    2
    38    33    34    2
    39    33    39   am
    40     4     3    2
    41    47    45   ar
    42    47    48   ar
    43   125   124    1
    44    45    44   ar
    45    39    40    1
    46   111   113   am
    47   111   110    1
    48    48    50   ar
    49    48    46   ar
    50   109   110    1
    51   109   106    1
    52    50    52   ar
    53   107   106    1
    54   107   108    2
    55    44    46   ar
    56    44    43    1
    57   124   123    1
    58   105   106    1
    59    40    43    1
    60    40    41    1
    61    46    49   ar
    62    52    51   ar
    63   123   120    1
    64    42    41    2
    65    41    53   am
    66   118   115    1
    67    49    51   ar
    68   119   120    1
    69   119   116   am
    70   120   121    1
    71   114   115    1
    72   115   116    1
    73    53    54    1
    74   116   117    2
    75   121   122    2
    76    54    57    1
    77    54    55    1
    78    57    58    1
    79    57    59    1
    80   103   101   ar
    81   103   104   ar
    82   101    98   ar
    83   104   102   ar
    84    55    56    2
    85    55    60   am
    86    98    96   ar
    87    98   100   ar
    88   102   100   ar
    89    95    96    1
    90    95    92    1
    91    96    97   ar
    92   100    99   ar
    93   128   129    1
    94   135   134   ar
    95    93    94    2
    96    93    92    1
    97    60    61    1
    98    92    91    1
    99    97    99   ar
   100   134   133    1
   101   134   136   ar
   102   133   132    1
   103   131   130    2
   104   129   132    1
   105   129   130    1
   106    61    64    1
   107    61    62    1
   108   153   151   ar
   109   153   155   ar
   110   151   150   ar
   111    64    65    1
   112   130   137   am
   113   156   155    1
   114   155   154   ar
   115   150   149    1
   116   150   152   ar
   117   149   146    1
   118   154   152   ar
   119    63    62    2
   120    62    69   am
   121    67    66    2
   122    65    66    1
   123   140   139    2
   124   137   138    1
   125    66    68   am
   126   139   145   am
   127   139   138    1
   128   146   145    1
   129   146   147    1
   130    69    70    1
   131   138   141    1
   132    70    73    1
   133    70    71    1
   134   147   148    2
   135   143   142   ar
   136    82    80   ar
   137    81    80   ar
   138    86    85    2
   139   141   142    1
   140    73    74    1
   141    80    79    1
   142   142   144   ar
   143    71    72    2
   144    71    75   am
   145    85    84    1
   146    75    76    1
   147    84    87    1
   148    84    83    1
   149    79    76    1
   150    76    77    1
   151    87    88    1
   152    88    90   ar
   153    88    89   ar
   154    77    78    2
