@<TRIPOS>MOLECULE
tmp/5c13A00.pdb
 162 164 0 0 0
SMALL
GASTEIGER

@<TRIPOS>ATOM
      1  N          0.0050    6.6880   46.0190 N.3     1  MET1       -0.1245
      2  CA         0.2180    5.5250   46.8970 C.3     1  MET1        0.1570
      3  C         -0.2280    5.6430   48.3950 C.2     1  MET1        0.2261
      4  O          0.1650    6.5500   49.1410 O.2     1  MET1       -0.2867
      5  CB         1.7000    5.1420   46.9040 C.3     1  MET1        0.0387
      6  CG         2.2200    4.5050   45.6190 C.3     1  MET1        0.0595
      7  SD         3.9660    4.1100   45.7480 S.3     1  MET1       -0.1393
      8  CE         3.8370    2.3460   46.0970 C.3     1  MET1        0.0692
      9  N          4.8850    1.0180   51.5110 N.3    13  TRP13      -0.1241
     10  CA         4.2150    1.6310   50.3810 C.3    13  TRP13       0.1605
     11  C          3.4310    0.6080   49.6010 C.2    13  TRP13       0.2264
     12  O          3.9540   -0.4550   49.2790 O.2    13  TRP13      -0.2867
     13  CB         5.2060    2.3180   49.4910 C.3    13  TRP13       0.0550
     14  CG         5.9400    3.3250   50.2470 C.ar   13  TRP13       0.0003
     15  CD1        6.9420    3.1020   51.1430 C.ar   13  TRP13       0.0946
     16  CD2        5.7680    4.7380   50.1760 C.ar   13  TRP13       0.0152
     17  NE1        7.3940    4.2950   51.6490 N.ar   13  TRP13      -0.2442
     18  CE2        6.6840    5.3150   51.0730 C.ar   13  TRP13       0.0810
     19  CE3        4.9310    5.5720   49.4390 C.ar   13  TRP13       0.0012
     20  CZ2        6.7820    6.6810   51.2550 C.ar   13  TRP13       0.0191
     21  CZ3        5.0170    6.9280   49.6330 C.ar   13  TRP13       0.0001
     22  CH2        5.9340    7.4720   50.5310 C.ar   13  TRP13       0.0015
     23  N          5.7720   -9.7360   48.4730 N.3    24  GLY24      -0.1225
     24  CA         6.7130  -10.6520   47.8950 C.3    24  GLY24       0.1811
     25  C          6.9640  -10.0410   46.5440 C.2    24  GLY24       0.2280
     26  O          7.9840   -9.3970   46.3300 O.2    24  GLY24      -0.2866
     27  N          7.7230   -8.5860   42.9310 N.3    26  PRO26      -0.2102
     28  CA         8.5460   -7.4350   42.5720 C.3    26  PRO26       0.1504
     29  C          7.7150   -6.2640   42.1390 C.2    26  PRO26       0.2576
     30  O          6.5690   -6.4680   41.7120 O.2    26  PRO26      -0.2718
     31  CB         9.3860   -7.9550   41.4090 C.3    26  PRO26       0.0282
     32  CG         8.5700   -9.0370   40.8340 C.3    26  PRO26       0.0208
     33  CD         7.9010   -9.6940   41.9790 C.3    26  PRO26       0.0893
     34  N          8.2770   -5.0630   42.2740 N.am   27  MET27      -0.1966
     35  CA         7.6130   -3.8330   41.8440 C.3    27  MET27       0.1736
     36  C          8.3690   -3.0200   40.8070 C.2    27  MET27       0.2616
     37  O          9.5770   -3.1730   40.6370 O.2    27  MET27      -0.2715
     38  CB         7.3490   -2.9560   43.0530 C.3    27  MET27       0.0427
     39  CG         6.5140   -3.6930   44.1140 C.3    27  MET27       0.0599
     40  SD         6.2290   -2.7280   45.6010 S.3    27  MET27      -0.1393
     41  CE         4.7170   -1.8730   45.2550 C.3    27  MET27       0.0692
     42  N          7.6420   -2.1310   40.1280 N.am   28  ILE28      -0.1963
     43  CA         8.2250   -1.2890   39.0920 C.3    28  ILE28       0.1727
     44  C          7.7470    0.1230   39.3420 C.2    28  ILE28       0.2617
     45  O          6.6300    0.3150   39.7440 O.2    28  ILE28      -0.2715
     46  CB         7.8550   -1.7620   37.6800 C.3    28  ILE28       0.0290
     47  CG1        8.5850   -0.9180   36.6400 C.3    28  ILE28       0.0022
     48  CG2        6.3650   -1.6400   37.4140 C.3    28  ILE28       0.0023
     49  CD1        8.5730   -1.5650   35.3240 C.3    28  ILE28       0.0001
     50  N          8.6190    1.1100   39.1620 N.am   29  GLY29      -0.1940
     51  CA         8.2780    2.4820   39.4630 C.3    29  GLY29       0.2014
     52  C          7.9680    3.2990   38.2240 C.2    29  GLY29       0.2639
     53  O          8.6680    3.1980   37.2230 O.2    29  GLY29      -0.2714
     54  N          6.9110    4.1020   38.2990 N.am   30  CYS30      -0.1953
     55  CA         6.5540    5.0350   37.2320 C.3    30  CYS30       0.1843
     56  C          7.5830    6.1670   37.0890 C.2    30  CYS30       0.2625
     57  O          7.9380    6.8240   38.0610 O.2    30  CYS30      -0.2714
     58  CB         5.1810    5.6500   37.4840 C.3    30  CYS30       0.0997
     59  SG         4.6460    6.7520   36.1140 S.3    30  CYS30      -0.0797
     60  N          8.0410    6.4120   35.8670 N.am   31  ASP31      -0.1971
     61  CA         9.0740    7.4270   35.6380 C.3    31  ASP31       0.1709
     62  C          8.4890    8.8170   35.4640 C.2    31  ASP31       0.2293
     63  O          9.2170    9.7680   35.2320 O.2    31  ASP31      -0.2864
     64  CB         9.9150    7.0430   34.4270 C.3    31  ASP31       0.1436
     65  CG        10.8050    5.8480   34.7150 C.2    31  ASP31       0.3671
     66  OD1       11.4710    5.8420   35.7670 O.co2  31  ASP31      -0.2456
     67  OD2       10.7980    4.8890   33.9300 O.co2  31  ASP31      -0.2456
     68  N          6.0830    8.3770   39.8160 N.3    34  ASP34      -0.1239
     69  CA         6.8540    7.6220   40.7810 C.3    34  ASP34       0.1674
     70  C          6.0190    6.8220   41.7720 C.2    34  ASP34       0.2266
     71  O          6.5210    6.4630   42.8500 O.2    34  ASP34      -0.2867
     72  CB         7.7870    8.5590   41.5490 C.3    34  ASP34       0.1410
     73  CG         8.9890    7.8440   42.0990 C.2    34  ASP34       0.3668
     74  OD1        9.2950    6.7160   41.6310 O.co2  34  ASP34      -0.2456
     75  OD2        9.6420    8.4260   42.9900 O.co2  34  ASP34      -0.2456
     76  N          4.6860    3.1940   42.5430 N.3    36  TRP36      -0.1241
     77  CA         5.2120    1.8650   42.2900 C.3    36  TRP36       0.1605
     78  C          4.1060    0.8030   42.3010 C.2    36  TRP36       0.2264
     79  O          3.1870    0.8770   43.1180 O.2    36  TRP36      -0.2867
     80  CB         6.2740    1.5150   43.3340 C.3    36  TRP36       0.0550
     81  CG         7.5360    2.3510   43.1920 C.ar   36  TRP36       0.0003
     82  CD1        7.6490    3.6860   43.3970 C.ar   36  TRP36       0.0946
     83  CD2        8.8480    1.8930   42.8030 C.ar   36  TRP36       0.0152
     84  NE1        8.9660    4.0930   43.1730 N.ar   36  TRP36      -0.2442
     85  CE2        9.7030    3.0040   42.8100 C.ar   36  TRP36       0.0810
     86  CE3        9.3790    0.6450   42.4660 C.ar   36  TRP36       0.0012
     87  CZ2       11.0550    2.9080   42.4790 C.ar   36  TRP36       0.0191
     88  CZ3       10.7080    0.5620   42.1430 C.ar   36  TRP36       0.0001
     89  CH2       11.5290    1.6870   42.1520 C.ar   36  TRP36       0.0015
     90  N          4.6070   -5.9330   39.4250 N.3    39  TRP39      -0.1241
     91  CA         4.6930   -6.4060   38.0600 C.3    39  TRP39       0.1605
     92  C          3.3880   -7.0020   37.5480 C.2    39  TRP39       0.2264
     93  O          2.9190   -6.5890   36.5100 O.2    39  TRP39      -0.2867
     94  CB         5.8180   -7.4260   37.9370 C.3    39  TRP39       0.0550
     95  CG         7.1730   -6.7940   38.0700 C.ar   39  TRP39       0.0003
     96  CD1        7.4510   -5.5690   38.5790 C.ar   39  TRP39       0.0946
     97  CD2        8.4310   -7.3600   37.6720 C.ar   39  TRP39       0.0152
     98  NE1        8.8100   -5.3250   38.5180 N.ar   39  TRP39      -0.2442
     99  CE2        9.4300   -6.4160   37.9770 C.ar   39  TRP39       0.0810
    100  CE3        8.8060   -8.5750   37.0940 C.ar   39  TRP39       0.0012
    101  CZ2       10.7810   -6.6450   37.7200 C.ar   39  TRP39       0.0191
    102  CZ3       10.1530   -8.8030   36.8490 C.ar   39  TRP39       0.0001
    103  CH2       11.1160   -7.8400   37.1510 C.ar   39  TRP39       0.0015
    104  N         11.7320   -8.6670   33.7910 N.3    47  ALA47      -0.1231
    105  CA        12.4690   -7.4580   34.0930 C.3    47  ALA47       0.1679
    106  C         12.6450   -6.6870   32.8010 C.2    47  ALA47       0.2434
    107  O         13.0300   -7.2630   31.7920 O.2    47  ALA47      -0.2733
    108  CB        13.8210   -7.7770   34.7280 C.3    47  ALA47       0.0304
    109  N         12.3010   -5.3960   32.8020 N.am   48  PRO48      -0.2718
    110  CA        12.4780   -4.6750   31.5420 C.3    48  PRO48       0.1520
    111  C         13.9450   -4.3050   31.3760 C.2    48  PRO48       0.2440
    112  O         14.6570   -4.2680   32.3750 O.2    48  PRO48      -0.2731
    113  CB        11.5990   -3.4320   31.7110 C.3    48  PRO48       0.0310
    114  CG        10.8620   -3.6110   33.0220 C.3    48  PRO48       0.0237
    115  CD        11.6710   -4.5550   33.8290 C.3    48  PRO48       0.0939
    116  N         14.4070   -4.0880   30.1420 N.am   49  PRO49      -0.2716
    117  CA        15.7460   -3.5140   29.9610 C.3    49  PRO49       0.1536
    118  C         15.9030   -2.1730   30.7040 C.2    49  PRO49       0.2598
    119  O         14.9450   -1.4150   30.8390 O.2    49  PRO49      -0.2715
    120  CB        15.8410   -3.3400   28.4460 C.3    49  PRO49       0.0310
    121  CG        14.9070   -4.4080   27.8970 C.3    49  PRO49       0.0237
    122  CD        13.7820   -4.4840   28.8640 C.3    49  PRO49       0.0939
    123  N         17.1080   -1.9010   31.1920 N.am   50  GLU50      -0.1978
    124  CA        17.3330   -0.7860   32.0950 C.3    50  GLU50       0.1602
    125  C         17.2270    0.5560   31.3610 C.2    50  GLU50       0.2287
    126  O         16.8540    1.5610   31.9620 O.2    50  GLU50      -0.2864
    127  CB        18.7140   -0.9130   32.7870 C.3    50  GLU50       0.0415
    128  CG        19.0970   -2.3390   33.2440 C.3    50  GLU50       0.1163
    129  CD        19.7620   -3.1620   32.1500 C.2    50  GLU50       0.3649
    130  OE1       20.9650   -2.9370   31.8950 O.co2  50  GLU50      -0.2457
    131  OE2       19.0890   -4.0310   31.5390 O.co2  50  GLU50      -0.2457
    132  N         15.0800    1.2200   29.3700 N.3    52  MET52      -0.1230
    133  CA        13.6700    1.4700   29.1590 C.3    52  MET52       0.1702
    134  C         13.0940    2.2470   30.3230 C.2    52  MET52       0.2592
    135  O         13.6260    2.2200   31.4110 O.2    52  MET52      -0.2718
    136  CB        12.9170    0.1700   28.9580 C.3    52  MET52       0.0401
    137  CG        12.7170   -0.1260   27.5060 C.3    52  MET52       0.0596
    138  SD        11.8240   -1.6350   27.2720 S.3    52  MET52      -0.1393
    139  CE        12.7680   -2.2810   25.9200 C.3    52  MET52       0.0692
    140  N         12.0300    2.9760   30.0510 N.am   53  GLN53      -0.1966
    141  CA        11.3150    3.7180   31.0620 C.3    53  GLN53       0.1733
    142  C          9.9000    3.1850   31.0840 C.2    53  GLN53       0.2616
    143  O          9.3380    2.9540   30.0310 O.2    53  GLN53      -0.2715
    144  CB        11.3270    5.1940   30.7400 C.3    53  GLN53       0.0408
    145  CG        12.6310    5.8850   31.0340 C.3    53  GLN53       0.0908
    146  CD        12.4920    7.3720   30.8620 C.2    53  GLN53       0.2608
    147  OE1       11.6930    7.8380   30.0500 O.2    53  GLN53      -0.2717
    148  NE2       13.2510    8.1300   31.6350 N.am   53  GLN53      -0.0878
    149  N          9.3390    2.9610   32.2670 N.am   54  TRP54      -0.1974
    150  CA         7.9590    2.5020   32.3920 C.3    54  TRP54       0.1640
    151  C          7.0460    3.5860   32.9700 C.2    54  TRP54       0.2290
    152  O          7.5270    4.4450   33.7110 O.2    54  TRP54      -0.2864
    153  CB         7.9170    1.2710   33.2580 C.3    54  TRP54       0.0576
    154  CG         6.5300    0.7700   33.4430 C.ar   54  TRP54       0.0006
    155  CD1        5.7870    0.0290   32.5610 C.ar   54  TRP54       0.0946
    156  CD2        5.7120    0.9830   34.5860 C.ar   54  TRP54       0.0152
    157  NE1        4.5490   -0.2370   33.1010 N.ar   54  TRP54      -0.2442
    158  CE2        4.4850    0.3320   34.3480 C.ar   54  TRP54       0.0810
    159  CE3        5.9110    1.6440   35.8130 C.ar   54  TRP54       0.0012
    160  CZ2        3.4570    0.3340   35.2760 C.ar   54  TRP54       0.0191
    161  CZ3        4.8930    1.6480   36.7300 C.ar   54  TRP54       0.0001
    162  CH2        3.6830    0.9880   36.4650 C.ar   54  TRP54       0.0015
@<TRIPOS>BOND
     1   139   138    1
     2   138   137    1
     3   137   136    1
     4   121   120    1
     5   121   122    1
     6   120   117    1
     7   122   116    1
     8   136   133    1
     9   133   132    1
    10   133   134    1
    11   117   116    1
    12   117   118    1
    13   143   142    2
    14   147   146    2
    15   140   134   am
    16   140   141    1
    17   116   111   am
    18   134   135    2
    19   118   119    2
    20   118   123   am
    21   144   145    1
    22   144   141    1
    23   146   145    1
    24   146   148   am
    25   141   142    1
    26   142   149   am
    27   123   124    1
    28   125   126    2
    29   125   124    1
    30   111   110    1
    31   111   112    2
    32   131   129   ar
    33   110   113    1
    34   110   109    1
    35   113   114    1
    36   107   106    2
    37   130   129   ar
    38   124   127    1
    39   129   128    1
    40   149   150    1
    41   150   151    1
    42   150   153    1
    43   155   157   ar
    44   155   154   ar
    45   127   128    1
    46   106   109   am
    47   106   105    1
    48   109   115    1
    49   151   152    2
    50   114   115    1
    51   157   158   ar
    52   153   154    1
    53   154   156   ar
    54   104   105    1
    55    67    65   ar
    56   105   108    1
    57   158   156   ar
    58   158   160   ar
    59    64    65    1
    60    64    61    1
    61   156   159   ar
    62    65    66   ar
    63    63    62    2
    64   160   162   ar
    65    49    47    1
    66    62    61    1
    67    61    60    1
    68   159   161   ar
    69    60    56   am
    70    59    58    1
    71   162   161   ar
    72    93    92    2
    73    47    46    1
    74   102   100   ar
    75   102   103   ar
    76    56    55    1
    77    56    57    2
    78   100    97   ar
    79   103   101   ar
    80    53    52    2
    81    55    58    1
    82    55    54    1
    83    48    46    1
    84    92    91    1
    85    97    99   ar
    86    97    95   ar
    87    46    43    1
    88   101    99   ar
    89    94    91    1
    90    94    95    1
    91    99    98   ar
    92    91    90    1
    93    95    96   ar
    94    52    54   am
    95    52    51    1
    96    98    96   ar
    97    43    44    1
    98    43    42    1
    99    50    44   am
   100    50    51    1
   101    44    45    2
   102    68    69    1
   103    42    36   am
   104    37    36    2
   105    69    72    1
   106    69    70    1
   107    36    35    1
   108    32    31    1
   109    32    33    1
   110    31    28    1
   111    72    73    1
   112    74    73   ar
   113    30    29    2
   114    70    71    2
   115    35    34    1
   116    35    38    1
   117    33    27    1
   118    73    75   ar
   119    29    34   am
   120    29    28    1
   121    88    89   ar
   122    88    86   ar
   123    89    87   ar
   124    77    78    1
   125    77    76    1
   126    77    80    1
   127    78    79    2
   128    86    83   ar
   129    87    85   ar
   130    28    27    1
   131    83    85   ar
   132    83    81   ar
   133    85    84   ar
   134    38    39    1
   135    84    82   ar
   136    81    80    1
   137    81    82   ar
   138    39    40    1
   139    41    40    1
   140     6     7    1
   141     6     5    1
   142     7     8    1
   143     1     2    1
   144    26    25    2
   145    25    24    1
   146     2     5    1
   147     2     3    1
   148    24    23    1
   149     3     4    2
   150    12    11    2
   151    19    21   ar
   152    19    16   ar
   153    13    14    1
   154    13    10    1
   155    11    10    1
   156    21    22   ar
   157    16    14   ar
   158    16    18   ar
   159    14    15   ar
   160    10     9    1
   161    22    20   ar
   162    18    20   ar
   163    18    17   ar
   164    15    17   ar
