@<TRIPOS>MOLECULE
tmp/5c17A00.pdb
 111 107 0 0 0
SMALL
GASTEIGER

@<TRIPOS>ATOM
      1  N          3.6920   20.9810    1.7450 N.3     7  PHE7       -0.1227
      2  CA         4.0770   22.1920    1.0190 C.3     7  PHE7        0.1736
      3  C          4.7800   21.8450   -0.2820 C.2     7  PHE7        0.2595
      4  O          4.4420   22.3720   -1.3410 O.2     7  PHE7       -0.2718
      5  CB         4.9510   23.0870    1.9170 C.3     7  PHE7        0.0547
      6  CG         5.8100   24.0900    1.1660 C.ar    7  PHE7       -0.0202
      7  CD1        5.2970   25.3190    0.7500 C.ar    7  PHE7       -0.0042
      8  CD2        7.1510   23.8240    0.9270 C.ar    7  PHE7       -0.0042
      9  CE1        6.1110   26.2290    0.0750 C.ar    7  PHE7       -0.0003
     10  CE2        7.9580   24.7350    0.2510 C.ar    7  PHE7       -0.0003
     11  CZ         7.4390   25.9310   -0.1580 C.ar    7  PHE7       -0.0000
     12  N          5.7590   20.9470   -0.2220 N.am    8  TYR8       -0.1976
     13  CA         6.4950   20.6100   -1.4230 C.3     8  TYR8        0.1639
     14  C          5.6490   19.8210   -2.4060 C.2     8  TYR8        0.2290
     15  O          5.8140   19.9850   -3.6180 O.2     8  TYR8       -0.2864
     16  CB         7.7370   19.8130   -1.0720 C.3     8  TYR8        0.0560
     17  CG         8.9120   20.6240   -0.6160 C.ar    8  TYR8       -0.0198
     18  CD1        9.5520   21.5010   -1.4750 C.ar    8  TYR8       -0.0009
     19  CD2        9.4200   20.4740    0.6530 C.ar    8  TYR8       -0.0009
     20  CE1       10.6510   22.2220   -1.0770 C.ar    8  TYR8        0.0417
     21  CE2       10.5300   21.1840    1.0710 C.ar    8  TYR8        0.0417
     22  CZ        11.1420   22.0600    0.2080 C.ar    8  TYR8        0.1957
     23  OH        12.2530   22.7540    0.6230 O.3     8  TYR8       -0.2866
     24  N         18.4860   32.4440    3.5540 N.3    99  CYS99      -0.1235
     25  CA        17.9630   32.6500    4.8990 C.3    99  CYS99       0.1677
     26  C         18.5980   31.6650    5.8710 C.2    99  CYS99       0.2270
     27  O         19.3380   30.7590    5.4890 O.2    99  CYS99      -0.2867
     28  CB        16.4380   32.5020    4.9260 C.3    99  CYS99       0.0956
     29  SG        15.8730   30.7900    4.7680 S.3    99  CYS99      -0.0801
     30  N         17.2210   29.2340    7.6090 N.3   101  ILE101     -0.1231
     31  CA        16.8500   27.8330    7.4080 C.3   101  ILE101      0.1692
     32  C         17.7090   27.2240    6.3050 C.2   101  ILE101      0.2592
     33  O         18.1960   26.0970    6.4560 O.2   101  ILE101     -0.2718
     34  CB        15.3600   27.6700    7.0950 C.3   101  ILE101      0.0266
     35  CG1       14.5250   28.0330    8.3330 C.3   101  ILE101      0.0019
     36  CG2       15.0680   26.2490    6.6580 C.3   101  ILE101      0.0020
     37  CD1       13.0310   28.0760    8.0720 C.3   101  ILE101      0.0001
     38  N         17.8940   27.9550    5.2040 N.am  102  SER102     -0.1952
     39  CA        18.6620   27.4670    4.0740 C.3   102  SER102      0.1924
     40  C         20.0810   27.0920    4.4840 C.2   102  SER102      0.2314
     41  O         20.6410   26.1240    3.9830 O.2   102  SER102     -0.2863
     42  CB        18.7010   28.5090    2.9440 C.3   102  SER102      0.2116
     43  OG        17.4090   28.7340    2.4080 O.3   102  SER102     -0.2180
     44  N         19.5050   23.5520    6.0550 N.3   105  GLU105     -0.1245
     45  CA        18.8990   22.5560    5.1840 C.3   105  GLU105      0.1567
     46  C         19.7720   22.2600    3.9700 C.2   105  GLU105      0.2260
     47  O         19.7510   21.1370    3.4790 O.2   105  GLU105     -0.2867
     48  CB        17.4640   22.9050    4.8140 C.3   105  GLU105      0.0388
     49  CG        17.3060   23.7540    3.6280 C.3   105  GLU105      0.1160
     50  CD        15.8570   23.9890    3.2400 C.2   105  GLU105      0.3649
     51  OE1       14.9460   23.6050    4.0010 O.co2 105  GLU105     -0.2457
     52  OE2       15.6330   24.5650    2.1620 O.co2 105  GLU105     -0.2457
     53  N          4.7170   28.4660    5.6680 N.3   151  PHE151     -0.1227
     54  CA         5.0930   28.3550    4.2920 C.3   151  PHE151      0.1736
     55  C          3.7750   28.4030    3.4720 C.2   151  PHE151      0.2595
     56  O          2.7260   28.0290    3.8900 O.2   151  PHE151     -0.2718
     57  CB         6.0410   27.1410    3.9440 C.3   151  PHE151      0.0547
     58  CG         7.4640   27.2100    4.5450 C.ar  151  PHE151     -0.0202
     59  CD1        7.8850   28.2470    5.3590 C.ar  151  PHE151     -0.0042
     60  CD2        8.3830   26.2440    4.2180 C.ar  151  PHE151     -0.0042
     61  CE1        9.1600   28.2810    5.8730 C.ar  151  PHE151     -0.0003
     62  CE2        9.6660   26.2800    4.7250 C.ar  151  PHE151     -0.0003
     63  CZ        10.0420   27.3030    5.5600 C.ar  151  PHE151     -0.0000
     64  N          3.9560   28.8680    2.2760 N.am  152  ASP152     -0.1974
     65  CA         2.9640   29.4950    1.3560 C.3   152  ASP152      0.1709
     66  C          3.4150   29.0000   -0.0520 C.2   152  ASP152      0.2293
     67  O          4.4380   29.3350   -0.4830 O.2   152  ASP152     -0.2864
     68  CB         3.0640   31.0480    1.5700 C.3   152  ASP152      0.1436
     69  CG         2.1170   31.9140    0.7250 C.2   152  ASP152      0.3671
     70  OD1        1.8210   31.6420   -0.4230 O.co2 152  ASP152     -0.2456
     71  OD2        1.7600   32.9960    1.2030 O.co2 152  ASP152     -0.2456
     72  N          3.8870   32.0510   -2.3950 N.3   155  ALA155     -0.1245
     73  CA         4.7580   33.1290   -1.9810 C.3   155  ALA155      0.1562
     74  C          6.0890   33.0000   -2.6930 C.2   155  ALA155      0.2260
     75  O          6.6020   31.8990   -2.8160 O.2   155  ALA155     -0.2867
     76  CB         4.9680   33.0810   -0.4780 C.3   155  ALA155      0.0290
     77  N         10.1100   33.0990   -2.9930 N.3   157  TRP157     -0.1241
     78  CA        11.0990   32.6600   -2.0150 C.3   157  TRP157      0.1605
     79  C         12.1420   33.7640   -1.7220 C.2   157  TRP157      0.2264
     80  O         12.0790   34.4180   -0.6840 O.2   157  TRP157     -0.2867
     81  CB        11.8230   31.3860   -2.4740 C.3   157  TRP157      0.0550
     82  CG        11.0280   30.0840   -2.5700 C.ar  157  TRP157      0.0003
     83  CD1        9.6950   29.9300   -2.8400 C.ar  157  TRP157      0.0946
     84  CD2       11.5660   28.7500   -2.4350 C.ar  157  TRP157      0.0152
     85  NE1        9.3640   28.5820   -2.8380 N.ar  157  TRP157     -0.2442
     86  CE2       10.4970   27.8440   -2.6000 C.ar  157  TRP157      0.0810
     87  CE3       12.8560   28.2400   -2.1840 C.ar  157  TRP157      0.0012
     88  CZ2       10.6770   26.4560   -2.5310 C.ar  157  TRP157      0.0191
     89  CZ3       13.0190   26.8610   -2.0930 C.ar  157  TRP157      0.0001
     90  CH2       11.9360   25.9900   -2.2690 C.ar  157  TRP157      0.0015
     91  N          9.3620   35.1150    1.2010 N.3   161  THR161     -0.1203
     92  CA         9.3610   34.3960    2.4600 C.3   161  THR161      0.1994
     93  C         10.7590   34.3500    3.0860 C.2   161  THR161      0.2618
     94  O         10.8920   34.4430    4.3030 O.2   161  THR161     -0.2717
     95  CB         8.7940   33.0020    2.2420 C.3   161  THR161      0.1784
     96  OG1        7.4620   33.1290    1.7300 O.3   161  THR161     -0.2211
     97  CG2        8.7670   32.1920    3.5320 C.3   161  THR161      0.0376
     98  N         11.8110   34.2330    2.2780 N.am  162  CYS162     -0.1969
     99  CA        13.1620   34.1390    2.8360 C.3   162  CYS162      0.1712
    100  C         13.5290   35.4100    3.6200 C.2   162  CYS162      0.2296
    101  O         14.2980   35.3390    4.5710 O.2   162  CYS162     -0.2864
    102  CB        14.2100   33.8250    1.7610 C.3   162  CYS162      0.0983
    103  SG        14.0710   32.1470    1.0840 S.3   162  CYS162     -0.0798
    104  N         12.3960   35.1710    7.4220 N.3   165  ILE165     -0.1245
    105  CA        13.0150   34.1600    8.2510 C.3   165  ILE165      0.1561
    106  C         14.3300   34.7500    8.7650 C.2   165  ILE165      0.2260
    107  O         15.0090   35.3780    8.0450 O.2   165  ILE165     -0.2867
    108  CB        13.2620   32.8920    7.4250 C.3   165  ILE165      0.0252
    109  CG1       11.9250   32.2430    7.0260 C.3   165  ILE165      0.0019
    110  CG2       14.2440   31.9400    8.1160 C.3   165  ILE165      0.0019
    111  CD1       12.0320   31.2310    5.9160 C.3   165  ILE165      0.0001
@<TRIPOS>BOND
     1    15    14    2
     2    77    78    1
     3    83    85   ar
     4    83    82   ar
     5    85    86   ar
     6    75    74    2
     7    74    73    1
     8    86    88   ar
     9    86    84   ar
    10    82    81    1
    11    82    84   ar
    12    88    90   ar
    13    81    78    1
    14    84    87   ar
    15    14    13    1
    16    72    73    1
    17    90    89   ar
    18    87    89   ar
    19    78    79    1
    20    73    76    1
    21    79    80    2
    22    18    20   ar
    23    18    17   ar
    24    13    16    1
    25    13    12    1
    26     4     3    2
    27    20    22   ar
    28    16    17    1
    29    17    19   ar
    30    67    66    2
    31    70    69   ar
    32     3    12   am
    33     3     2    1
    34    11     9   ar
    35    11    10   ar
    36    66    65    1
    37     9     7   ar
    38    22    23    1
    39    22    21   ar
    40    10     8   ar
    41    19    21   ar
    42    69    71   ar
    43    69    68    1
    44     7     6   ar
    45     8     6   ar
    46     2     1    1
    47     2     5    1
    48   103   102    1
    49     6     5    1
    50    91    92    1
    51    65    68    1
    52    65    64    1
    53    96    95    1
    54   102    99    1
    55    52    50   ar
    56    95    92    1
    57    95    97    1
    58    64    55   am
    59    98    99    1
    60    98    93   am
    61    43    42    1
    62    92    93    1
    63    99   100    1
    64    42    39    1
    65    93    94    2
    66    50    49    1
    67    50    51   ar
    68    55    56    2
    69    55    54    1
    70    47    46    2
    71    24    25    1
    72   100   101    2
    73    49    48    1
    74    57    54    1
    75    57    58    1
    76    46    45    1
    77    41    40    2
    78    39    40    1
    79    39    38    1
    80    60    58   ar
    81    60    62   ar
    82    54    53    1
    83    58    59   ar
    84    62    63   ar
    85    29    28    1
    86    48    45    1
    87    25    28    1
    88    25    26    1
    89    45    44    1
    90    38    32   am
    91    59    61   ar
    92    27    26    2
    93    63    61   ar
    94   111   109    1
    95    32    33    2
    96    32    31    1
    97    36    34    1
    98   109   108    1
    99    34    31    1
   100    34    35    1
   101    31    30    1
   102   104   105    1
   103   108   110    1
   104   108   105    1
   105   107   106    2
   106    37    35    1
   107   105   106    1
