@<TRIPOS>MOLECULE
tmp/5c1bD00.pdb
 215 210 0 0 0
SMALL
GASTEIGER

@<TRIPOS>ATOM
      1  N         78.6720   49.9120   61.5790 N.3    93  ARG93      -0.1231
      2  CA        77.5210   49.7850   62.4730 C.3    93  ARG93       0.1694
      3  C         76.2450   49.4890   61.6840 C.2    93  ARG93       0.2592
      4  O         76.0450   50.0130   60.5880 O.2    93  ARG93      -0.2718
      5  CB        77.3090   51.0560   63.2960 C.3    93  ARG93       0.0321
      6  CG        77.4770   52.3590   62.5360 C.3    93  ARG93       0.0489
      7  CD        77.1690   53.5380   63.4430 C.3    93  ARG93       0.2205
      8  NE        77.9960   54.7050   63.1520 N.pl3  93  ARG93      -0.0865
      9  CZ        77.5270   55.9180   62.8590 C.cat  93  ARG93       0.5346
     10  NH1       76.2230   56.1560   62.8070 N.pl3  93  ARG93       0.1354
     11  NH2       78.3740   56.9070   62.6130 N.pl3  93  ARG93       0.1354
     12  N         75.3820   48.6560   62.2570 N.am   94  ILE94      -0.1966
     13  CA        74.1130   48.2960   61.6310 C.3    94  ILE94       0.1727
     14  C         72.9530   48.5040   62.6020 C.2    94  ILE94       0.2616
     15  O         73.0800   48.2480   63.7980 O.2    94  ILE94      -0.2715
     16  CB        74.1270   46.8280   61.1650 C.3    94  ILE94       0.0290
     17  CG1       75.0460   46.6710   59.9530 C.3    94  ILE94       0.0022
     18  CG2       72.7190   46.3570   60.8330 C.3    94  ILE94       0.0023
     19  CD1       75.2160   45.2420   59.4900 C.3    94  ILE94       0.0001
     20  N         71.8220   48.9720   62.0810 N.am   95  HIS95      -0.1973
     21  CA        70.6520   49.2430   62.9110 C.3    95  HIS95       0.1656
     22  C         69.4010   48.5380   62.3830 C.2    95  HIS95       0.2291
     23  O         68.8420   48.9310   61.3580 O.2    95  HIS95      -0.2864
     24  CB        70.3960   50.7480   62.9870 C.3    95  HIS95       0.0771
     25  CG        69.4680   51.1430   64.0920 C.ar   95  HIS95       0.0820
     26  ND1       69.6660   50.7590   65.4010 N.ar   95  HIS95      -0.2267
     27  CD2       68.3300   51.8760   64.0830 C.ar   95  HIS95       0.1154
     28  CE1       68.6940   51.2450   66.1520 C.ar   95  HIS95       0.1986
     29  NE2       67.8710   51.9280   65.3760 N.ar   95  HIS95      -0.2212
     30  N         65.4300   47.0120   63.2570 N.3    97  LEU97      -0.1245
     31  CA        64.2670   47.1020   64.1380 C.3    97  LEU97       0.1561
     32  C         63.2510   46.0080   63.8280 C.2    97  LEU97       0.2260
     33  O         62.9570   45.7420   62.6620 O.2    97  LEU97      -0.2867
     34  CB        63.5900   48.4660   63.9950 C.3    97  LEU97       0.0270
     35  CG        64.2430   49.6420   64.7200 C.3    97  LEU97       0.0019
     36  CD1       63.5240   50.9310   64.3690 C.3    97  LEU97       0.0001
     37  CD2       64.2380   49.4250   66.2240 C.3    97  LEU97       0.0001
     38  N         66.6040   40.4500   75.5370 N.3   109  ASN109     -0.1240
     39  CA        67.6320   40.6930   74.5250 C.3   109  ASN109      0.1653
     40  C         67.3610   39.9820   73.2000 C.2   109  ASN109      0.2266
     41  O         67.7710   38.8370   73.0040 O.2   109  ASN109     -0.2867
     42  CB        69.0090   40.2890   75.0550 C.3   109  ASN109      0.1155
     43  CG        70.1390   41.0070   74.3420 C.2   109  ASN109      0.2627
     44  OD1       70.0590   41.2730   73.1430 O.2   109  ASN109     -0.2716
     45  ND2       71.1980   41.3260   75.0760 N.am  109  ASN109     -0.0877
     46  N         68.6350   40.6310   70.4140 N.3   111  PHE111     -0.1227
     47  CA        69.8420   40.5920   69.5910 C.3   111  PHE111      0.1736
     48  C         70.7510   39.3950   69.8890 C.2   111  PHE111      0.2595
     49  O         71.4180   38.8890   68.9880 O.2   111  PHE111     -0.2718
     50  CB        70.6130   41.9140   69.7220 C.3   111  PHE111      0.0547
     51  CG        72.0940   41.7490   69.9240 C.ar  111  PHE111     -0.0202
     52  CD1       72.9190   41.4220   68.8600 C.ar  111  PHE111     -0.0042
     53  CD2       72.6650   41.9580   71.1670 C.ar  111  PHE111     -0.0042
     54  CE1       74.2820   41.2800   69.0380 C.ar  111  PHE111     -0.0003
     55  CE2       74.0270   41.8240   71.3500 C.ar  111  PHE111     -0.0003
     56  CZ        74.8370   41.4840   70.2840 C.ar  111  PHE111     -0.0000
     57  N         70.7790   38.9330   71.1370 N.am  112  GLU112     -0.1979
     58  CA        71.6820   37.8400   71.5060 C.3   112  GLU112      0.1602
     59  C         71.1510   36.4680   71.0960 C.2   112  GLU112      0.2287
     60  O         71.9270   35.5490   70.8280 O.2   112  GLU112     -0.2864
     61  CB        71.9320   37.8240   73.0140 C.3   112  GLU112      0.0415
     62  CG        73.2560   37.1760   73.4000 C.3   112  GLU112      0.1163
     63  CD        73.0910   35.7950   74.0230 C.2   112  GLU112      0.3649
     64  OE1       71.9400   35.3580   74.2410 O.co2 112  GLU112     -0.2457
     65  OE2       74.1210   35.1390   74.2840 O.co2 112  GLU112     -0.2457
     66  N         72.4840   37.2200   66.8540 N.3   116  LYS116     -0.1245
     67  CA        73.8230   36.7150   67.1470 C.3   116  LYS116      0.1561
     68  C         74.1670   35.4800   66.3080 C.2   116  LYS116      0.2260
     69  O         75.1020   35.5150   65.5100 O.2   116  LYS116     -0.2867
     70  CB        73.9700   36.4160   68.6410 C.3   116  LYS116      0.0271
     71  CG        75.3480   35.9250   69.0520 C.3   116  LYS116      0.0035
     72  CD        76.2920   37.0810   69.3320 C.3   116  LYS116      0.0206
     73  CE        77.5270   36.6250   70.0910 C.3   116  LYS116      0.1093
     74  NZ        77.2140   36.1620   71.4720 N.3   116  LYS116     -0.1314
     75  N         74.0250   35.9920   62.2400 N.3   119  PHE119     -0.1227
     76  CA        75.1170   36.6400   61.5210 C.3   119  PHE119      0.1736
     77  C         76.4690   36.0170   61.8570 C.2   119  PHE119      0.2595
     78  O         77.4570   36.2480   61.1600 O.2   119  PHE119     -0.2718
     79  CB        75.1440   38.1360   61.8370 C.3   119  PHE119      0.0547
     80  CG        73.9800   38.8940   61.2670 C.ar  119  PHE119     -0.0202
     81  CD1       73.8150   39.0100   59.8980 C.ar  119  PHE119     -0.0042
     82  CD2       73.0530   39.4950   62.1020 C.ar  119  PHE119     -0.0042
     83  CE1       72.7440   39.7070   59.3720 C.ar  119  PHE119     -0.0003
     84  CE2       71.9820   40.1950   61.5820 C.ar  119  PHE119     -0.0003
     85  CZ        71.8270   40.3010   60.2150 C.ar  119  PHE119     -0.0000
     86  N         76.5090   35.2320   62.9290 N.am  120  LEU120     -0.1966
     87  CA        77.7530   34.6170   63.3810 C.3   120  LEU120      0.1728
     88  C         78.3640   33.7260   62.3040 C.2   120  LEU120      0.2616
     89  O         77.7200   32.7980   61.8130 O.2   120  LEU120     -0.2715
     90  CB        77.5100   33.8070   64.6570 C.3   120  LEU120      0.0311
     91  CG        78.6640   32.9210   65.1330 C.3   120  LEU120      0.0022
     92  CD1       78.8060   33.0020   66.6430 C.3   120  LEU120      0.0001
     93  CD2       78.4490   31.4770   64.7000 C.3   120  LEU120      0.0001
     94  N         79.6090   34.0220   61.9410 N.am  121  GLU121     -0.1977
     95  CA        80.3400   33.2220   60.9640 C.3   121  GLU121      0.1602
     96  C         79.5840   33.1300   59.6400 C.2   121  GLU121      0.2287
     97  O         79.7830   32.1960   58.8620 O.2   121  GLU121     -0.2864
     98  CB        80.6040   31.8300   61.5470 C.3   121  GLU121      0.0415
     99  CG        81.8920   31.1720   61.0750 C.3   121  GLU121      0.1163
    100  CD        81.8180   29.6560   61.1100 C.2   121  GLU121      0.3649
    101  OE1       80.9270   29.1170   61.8010 O.co2 121  GLU121     -0.2457
    102  OE2       82.6610   29.0010   60.4610 O.co2 121  GLU121     -0.2457
    103  N         67.2700   49.2260   59.0360 N.3   146  VAL146     -0.1231
    104  CA        66.9360   50.6430   59.0170 C.3   146  VAL146      0.1692
    105  C         68.0850   51.4650   58.4500 C.2   146  VAL146      0.2592
    106  O         67.8620   52.4480   57.7460 O.2   146  VAL146     -0.2718
    107  CB        66.6050   51.1580   60.4290 C.3   146  VAL146      0.0266
    108  CG1       66.3730   52.6620   60.4090 C.3   146  VAL146      0.0020
    109  CG2       65.3900   50.4350   60.9870 C.3   146  VAL146      0.0020
    110  N         69.3140   51.0740   58.7720 N.am  147  GLU147     -0.1966
    111  CA        70.4820   51.7720   58.2480 C.3   147  GLU147      0.1733
    112  C         71.7810   50.9950   58.4470 C.2   147  GLU147      0.2617
    113  O         71.9200   50.2140   59.3880 O.2   147  GLU147     -0.2715
    114  CB        70.5920   53.1700   58.8550 C.3   147  GLU147      0.0429
    115  CG        70.6110   54.2820   57.8150 C.3   147  GLU147      0.1163
    116  CD        70.0150   55.5760   58.3300 C.2   147  GLU147      0.3649
    117  OE1       69.1440   55.5190   59.2230 O.co2 147  GLU147     -0.2457
    118  OE2       70.4130   56.6520   57.8380 O.co2 147  GLU147     -0.2457
    119  N         72.7310   51.2370   57.5510 N.am  148  THR148     -0.1937
    120  CA        74.0500   50.6210   57.6170 C.3   148  THR148      0.2028
    121  C         75.0830   51.7060   57.3430 C.2   148  THR148      0.2642
    122  O         74.8490   52.5890   56.5180 O.2   148  THR148     -0.2714
    123  CB        74.1990   49.5050   56.5680 C.3   148  THR148      0.1808
    124  OG1       74.0650   50.0580   55.2540 O.3   148  THR148     -0.2208
    125  CG2       73.1420   48.4260   56.7720 C.3   148  THR148      0.0379
    126  N         76.2190   51.6550   58.0340 N.am  149  ASP149     -0.1971
    127  CA        77.2080   52.7200   57.9040 C.3   149  ASP149      0.1709
    128  C         77.7300   52.8050   56.4670 C.2   149  ASP149      0.2293
    129  O         77.7770   53.8940   55.8940 O.2   149  ASP149     -0.2864
    130  CB        78.3530   52.5500   58.9080 C.3   149  ASP149      0.1436
    131  CG        79.1920   53.8090   59.0510 C.2   149  ASP149      0.3671
    132  OD1       78.8060   54.8460   58.4730 O.co2 149  ASP149     -0.2456
    133  OD2       80.2280   53.7680   59.7500 O.co2 149  ASP149     -0.2456
    134  N         80.3980   41.5850   58.9740 N.3   157  ALA157     -0.1231
    135  CA        81.5870   40.9500   59.5300 C.3   157  ALA157      0.1679
    136  C         81.5590   41.0500   61.0530 C.2   157  ALA157      0.2434
    137  O         80.7890   41.8310   61.6090 O.2   157  ALA157     -0.2733
    138  CB        82.8380   41.6070   58.9740 C.3   157  ALA157      0.0304
    139  N         82.4000   40.2580   61.7350 N.am  158  PRO158     -0.2718
    140  CA        82.4310   40.2730   63.2020 C.3   158  PRO158      0.1535
    141  C         82.6600   41.6660   63.7850 C.2   158  PRO158      0.2599
    142  O         82.2780   41.9200   64.9280 O.2   158  PRO158     -0.2715
    143  CB        83.6090   39.3540   63.5370 C.3   158  PRO158      0.0310
    144  CG        83.7090   38.4370   62.3760 C.3   158  PRO158      0.0237
    145  CD        83.3250   39.2540   61.1780 C.3   158  PRO158      0.0939
    146  N         83.2740   42.5550   63.0100 N.am  159  ASP159     -0.1958
    147  CA        83.5770   43.8990   63.4900 C.3   159  ASP159      0.1840
    148  C         82.3450   44.8070   63.4710 C.2   159  ASP159      0.2623
    149  O         82.2910   45.7990   64.1970 O.2   159  ASP159     -0.2715
    150  CB        84.6860   44.5210   62.6410 C.3   159  ASP159      0.1450
    151  CG        85.4350   45.6160   63.3730 C.2   159  ASP159      0.3671
    152  OD1       84.8670   46.1980   64.3200 O.co2 159  ASP159     -0.2456
    153  OD2       86.5930   45.8990   62.9990 O.co2 159  ASP159     -0.2456
    154  N         81.3620   44.4700   62.6400 N.am  160  THR160     -0.1937
    155  CA        80.1460   45.2740   62.5360 C.3   160  THR160      0.2028
    156  C         79.3790   45.2600   63.8550 C.2   160  THR160      0.2642
    157  O         79.1510   44.1990   64.4360 O.2   160  THR160     -0.2714
    158  CB        79.2050   44.7550   61.4260 C.3   160  THR160      0.1808
    159  OG1       78.6650   43.4820   61.8040 O.3   160  THR160     -0.2208
    160  CG2       79.9380   44.6230   60.1000 C.3   160  THR160      0.0379
    161  N         78.9870   46.4410   64.3220 N.am  161  VAL161     -0.1963
    162  CA        78.2070   46.5630   65.5490 C.3   161  VAL161      0.1727
    163  C         76.7210   46.6300   65.2200 C.2   161  VAL161      0.2616
    164  O         76.3350   47.1480   64.1730 O.2   161  VAL161     -0.2715
    165  CB        78.6100   47.8150   66.3490 C.3   161  VAL161      0.0290
    166  CG1       77.5620   48.9050   66.2090 C.3   161  VAL161      0.0023
    167  CG2       78.8070   47.4610   67.8110 C.3   161  VAL161      0.0023
    168  N         75.8900   46.1170   66.1210 N.am  162  ILE162     -0.1963
    169  CA        74.4480   46.1260   65.9130 C.3   162  ILE162      0.1727
    170  C         73.6940   46.8640   67.0000 C.2   162  ILE162      0.2616
    171  O         73.9940   46.7390   68.1880 O.2   162  ILE162     -0.2715
    172  CB        73.8670   44.7010   65.8610 C.3   162  ILE162      0.0290
    173  CG1       74.3860   43.9530   64.6350 C.3   162  ILE162      0.0022
    174  CG2       72.3510   44.7530   65.7810 C.3   162  ILE162      0.0023
    175  CD1       74.8830   42.5610   64.9390 C.3   162  ILE162      0.0001
    176  N         72.7080   47.6390   66.5680 N.am  163  HIS163     -0.1973
    177  CA        71.8590   48.3740   67.4770 C.3   163  HIS163      0.1656
    178  C         70.4300   48.0520   67.0710 C.2   163  HIS163      0.2291
    179  O         70.0330   48.2930   65.9320 O.2   163  HIS163     -0.2864
    180  CB        72.1440   49.8740   67.3870 C.3   163  HIS163      0.0771
    181  CG        73.3740   50.3080   68.1270 C.ar  163  HIS163      0.0820
    182  ND1       73.3570   51.2530   69.1220 N.ar  163  HIS163     -0.2267
    183  CD2       74.6660   49.9110   68.0040 C.ar  163  HIS163      0.1154
    184  CE1       74.5770   51.4320   69.5850 C.ar  163  HIS163      0.1986
    185  NE2       75.3960   50.6290   68.9250 N.ar  163  HIS163     -0.2212
    186  N         67.7560   49.0190   69.1380 N.3   165  GLU165     -0.1231
    187  CA        67.0680   49.7530   70.1830 C.3   165  GLU165      0.1699
    188  C         65.8500   50.4430   69.5920 C.2   165  GLU165      0.2593
    189  O         65.9810   51.2500   68.6710 O.2   165  GLU165     -0.2718
    190  CB        67.9940   50.8090   70.7820 C.3   165  GLU165      0.0402
    191  CG        69.2600   50.2430   71.3950 C.3   165  GLU165      0.1161
    192  CD        70.4310   50.2870   70.4290 C.2   165  GLU165      0.3649
    193  OE1       71.1680   49.2840   70.3400 O.co2 165  GLU165     -0.2457
    194  OE2       70.6160   51.3270   69.7630 O.co2 165  GLU165     -0.2457
    195  N         64.6650   50.1370   70.1070 N.am  166  GLY166     -0.1942
    196  CA        63.4840   50.8630   69.6890 C.3   166  GLY166      0.2014
    197  C         62.2180   50.0470   69.5680 C.2   166  GLY166      0.2638
    198  O         62.2400   48.8650   69.2230 O.2   166  GLY166     -0.2714
    199  N         61.1030   50.7050   69.8650 N.am  167  GLU167     -0.1977
    200  CA        59.7890   50.0910   69.7960 C.3   167  GLU167      0.1602
    201  C         59.5910   49.5780   68.3790 C.2   167  GLU167      0.2287
    202  O         59.9140   50.2740   67.4150 O.2   167  GLU167     -0.2864
    203  CB        58.7080   51.1040   70.1750 C.3   167  GLU167      0.0415
    204  CG        58.6750   51.4090   71.6680 C.3   167  GLU167      0.1163
    205  CD        57.9950   52.7230   71.9980 C.2   167  GLU167      0.3649
    206  OE1       57.7870   53.5390   71.0770 O.co2 167  GLU167     -0.2457
    207  OE2       57.6730   52.9400   73.1850 O.co2 167  GLU167     -0.2457
    208  N         58.7310   48.8350   64.7430 N.3   169  ILE169     -0.1245
    209  CA        58.1140   49.7120   63.7620 C.3   169  ILE169      0.1561
    210  C         56.8530   49.0260   63.2780 C.2   169  ILE169      0.2260
    211  O         56.7820   47.7980   63.2420 O.2   169  ILE169     -0.2867
    212  CB        59.0440   49.9940   62.5560 C.3   169  ILE169      0.0252
    213  CG1       59.8380   48.7480   62.1480 C.3   169  ILE169      0.0019
    214  CG2       59.9490   51.1930   62.8410 C.3   169  ILE169      0.0019
    215  CD1       59.9670   48.5950   60.6420 C.3   169  ILE169      0.0001
@<TRIPOS>BOND
     1   124   123    1
     2   129   128    2
     3   128   127    1
     4   122   121    2
     5   123   125    1
     6   123   120    1
     7   121   120    1
     8   121   126   am
     9   119   120    1
    10   119   112   am
    11   106   105    2
    12   115   116    1
    13   115   114    1
    14   118   116   ar
    15   127   126    1
    16   127   130    1
    17   111   112    1
    18   111   110    1
    19   111   114    1
    20   116   117   ar
    21   112   113    2
    22   105   110   am
    23   105   104    1
    24   132   131   ar
    25    97    96    2
    26   130   131    1
    27   134   135    1
    28   138   135    1
    29   104   103    1
    30   104   107    1
    31   131   133   ar
    32    83    81   ar
    33    83    85   ar
    34    19    17    1
    35   135   136    1
    36    96    95    1
    37    81    80   ar
    38    17    16    1
    39   160   158    1
    40    85    84   ar
    41   108   107    1
    42   107   109    1
    43   102   100   ar
    44     4     3    2
    45   215   213    1
    46    18    16    1
    47    95    98    1
    48    95    94    1
    49   136   137    2
    50   136   139   am
    51    99   100    1
    52    99    98    1
    53   100   101   ar
    54    78    77    2
    55    16    13    1
    56   145   139    1
    57   145   144    1
    58    80    79    1
    59    80    82   ar
    60    23    22    2
    61   158   159    1
    62   158   155    1
    63    76    79    1
    64    76    77    1
    65    76    75    1
    66     1     2    1
    67    84    82   ar
    68    13    12    1
    69    13    14    1
    70     3    12   am
    71     3     2    1
    72   139   140    1
    73    89    88    2
    74    77    86   am
    75    94    88   am
    76    20    14   am
    77    20    21    1
    78   213   212    1
    79    88    87    1
    80   144   143    1
    81    22    21    1
    82     2     5    1
    83   155   154    1
    84   155   156    1
    85     6     5    1
    86     6     7    1
    87   212   214    1
    88   212   209    1
    89    14    15    2
    90    11     9    1
    91   154   148   am
    92   150   151    1
    93   150   147    1
    94    33    32    2
    95    10     9    1
    96     9     8    2
    97    21    24    1
    98    86    87    1
    99    24    25    1
   100   153   151   ar
   101   146   147    1
   102   146   141   am
   103     8     7    1
   104   140   143    1
   105   140   141    1
   106   211   210    2
   107    30    31    1
   108   210   209    1
   109   151   152   ar
   110    87    90    1
   111   148   147    1
   112   148   149    2
   113   209   208    1
   114   141   142    2
   115    32    31    1
   116   156   161   am
   117   156   157    2
   118    34    31    1
   119    34    35    1
   120    27    25   ar
   121    27    29   ar
   122    25    26   ar
   123   164   163    2
   124   161   162    1
   125    36    35    1
   126   173   175    1
   127   173   172    1
   128    90    91    1
   129    93    91    1
   130    35    37    1
   131    91    92    1
   132   163   162    1
   133   163   168   am
   134    29    28   ar
   135    26    28   ar
   136    69    68    2
   137   162   165    1
   138   174   172    1
   139   172   169    1
   140   169   168    1
   141   169   170    1
   142   179   178    2
   143   166   165    1
   144    68    67    1
   145   165   167    1
   146   176   170   am
   147   176   177    1
   148    66    67    1
   149   170   171    2
   150   178   177    1
   151    67    70    1
   152   180   177    1
   153   180   181    1
   154   202   201    2
   155   183   181   ar
   156   183   185   ar
   157   181   182   ar
   158   201   200    1
   159    70    71    1
   160   189   188    2
   161    52    54   ar
   162    52    51   ar
   163   185   184   ar
   164    49    48    2
   165    54    56   ar
   166    71    72    1
   167   182   184   ar
   168   186   187    1
   169   198   197    2
   170    72    73    1
   171   197   196    1
   172   197   199   am
   173    47    50    1
   174    47    48    1
   175    47    46    1
   176   188   195   am
   177   188   187    1
   178   196   195    1
   179    50    51    1
   180   194   192   ar
   181   200   199    1
   182   200   203    1
   183    48    57   am
   184    51    53   ar
   185    73    74    1
   186   203   204    1
   187   187   190    1
   188    56    55   ar
   189   193   192   ar
   190   192   191    1
   191   190   191    1
   192    60    59    2
   193   206   205   ar
   194    59    58    1
   195    57    58    1
   196    53    55   ar
   197    58    61    1
   198   204   205    1
   199   205   207   ar
   200    41    40    2
   201    61    62    1
   202    44    43    2
   203    40    39    1
   204    62    63    1
   205    63    64   ar
   206    63    65   ar
   207    43    42    1
   208    43    45   am
   209    39    42    1
   210    39    38    1
