@<TRIPOS>MOLECULE
tmp/5c1bA00.pdb
 179 175 0 0 0
SMALL
GASTEIGER

@<TRIPOS>ATOM
      1  N        -67.8200   12.7950   54.6340 N.3    93  ARG93      -0.1231
      2  CA       -66.8590   13.5890   53.8740 C.3    93  ARG93       0.1694
      3  C        -65.5370   13.6930   54.6280 C.2    93  ARG93       0.2592
      4  O        -65.5220   13.8510   55.8480 O.2    93  ARG93      -0.2718
      5  CB       -67.4010   14.9970   53.6360 C.3    93  ARG93       0.0321
      6  CG       -68.1000   15.5770   54.8550 C.3    93  ARG93       0.0489
      7  CD       -68.5700   17.0030   54.6350 C.3    93  ARG93       0.2205
      8  NE       -69.8270   17.2680   55.3310 N.pl3  93  ARG93      -0.0865
      9  CZ       -70.2100   18.4630   55.7710 C.cat  93  ARG93       0.5346
     10  NH1      -69.4360   19.5270   55.6060 N.pl3  93  ARG93       0.1354
     11  NH2      -71.3730   18.5940   56.3910 N.pl3  93  ARG93       0.1354
     12  N        -64.4300   13.6230   53.8940 N.am   94  ILE94      -0.1966
     13  CA       -63.1040   13.7360   54.4910 C.3    94  ILE94       0.1727
     14  C        -62.2620   14.7670   53.7430 C.2    94  ILE94       0.2616
     15  O        -62.3270   14.8660   52.5180 O.2    94  ILE94      -0.2715
     16  CB       -62.3770   12.3790   54.4850 C.3    94  ILE94       0.0290
     17  CG1      -63.0210   11.4370   55.5020 C.3    94  ILE94       0.0022
     18  CG2      -60.8980   12.5630   54.7910 C.3    94  ILE94       0.0023
     19  CD1      -62.4500   10.0390   55.4980 C.3    94  ILE94       0.0001
     20  N        -61.4680   15.5290   54.4880 N.am   95  HIS95      -0.1973
     21  CA       -60.6350   16.5710   53.9000 C.3    95  HIS95       0.1656
     22  C        -59.1740   16.4110   54.3150 C.2    95  HIS95       0.2291
     23  O        -58.8100   16.6860   55.4580 O.2    95  HIS95      -0.2864
     24  CB       -61.1470   17.9510   54.3190 C.3    95  HIS95       0.0771
     25  CG       -60.6520   19.0650   53.4600 C.ar   95  HIS95       0.0820
     26  ND1      -59.7200   19.9900   53.8870 N.ar   95  HIS95      -0.2267
     27  CD2      -60.9530   19.4090   52.1780 C.ar   95  HIS95       0.1154
     28  CE1      -59.4750   20.8480   52.9190 C.ar   95  HIS95       0.1986
     29  NE2      -60.2080   20.5230   51.8740 N.ar   95  HIS95      -0.2212
     30  N        -53.2420   14.6030   39.6950 N.3   109  ASN109     -0.1240
     31  CA       -54.2510   14.0020   40.5660 C.3   109  ASN109      0.1653
     32  C        -53.6750   13.2140   41.7390 C.2   109  ASN109      0.2266
     33  O        -53.4240   12.0120   41.6380 O.2   109  ASN109     -0.2867
     34  CB       -55.1920   13.1030   39.7620 C.3   109  ASN109      0.1155
     35  CG       -56.6330   13.2200   40.2200 C.2   109  ASN109      0.2627
     36  OD1      -56.8990   13.4070   41.4070 O.2   109  ASN109     -0.2716
     37  ND2      -57.5700   13.0870   39.2890 N.am  109  ASN109     -0.0877
     38  N        -55.2270   12.5210   44.3430 N.3   111  PHE111     -0.1227
     39  CA       -56.2960   11.7020   44.9110 C.3   111  PHE111      0.1736
     40  C        -56.4980   10.3460   44.2370 C.2   111  PHE111      0.2595
     41  O        -56.8150    9.3630   44.9050 O.2   111  PHE111     -0.2718
     42  CB       -57.6170   12.4760   44.8990 C.3   111  PHE111      0.0547
     43  CG       -58.8220   11.6260   45.1960 C.ar  111  PHE111     -0.0202
     44  CD1      -59.1070   11.2380   46.4930 C.ar  111  PHE111     -0.0042
     45  CD2      -59.6770   11.2290   44.1820 C.ar  111  PHE111     -0.0042
     46  CE1      -60.2130   10.4590   46.7720 C.ar  111  PHE111     -0.0003
     47  CE2      -60.7880   10.4520   44.4570 C.ar  111  PHE111     -0.0003
     48  CZ       -61.0560   10.0670   45.7540 C.ar  111  PHE111     -0.0000
     49  N        -56.3170   10.2870   42.9230 N.am  112  GLU112     -0.1979
     50  CA       -56.5830    9.0490   42.1960 C.3   112  GLU112      0.1602
     51  C        -55.4220    8.0650   42.2730 C.2   112  GLU112      0.2287
     52  O        -55.6240    6.8520   42.2390 O.2   112  GLU112     -0.2864
     53  CB       -56.8830    9.3380   40.7260 C.3   112  GLU112      0.0415
     54  CG       -57.7570    8.2760   40.0720 C.3   112  GLU112      0.1163
     55  CD       -56.9480    7.1920   39.3850 C.2   112  GLU112      0.3649
     56  OE1      -55.7050    7.3080   39.3360 O.co2 112  GLU112     -0.2457
     57  OE2      -57.5580    6.2110   38.9080 O.co2 112  GLU112     -0.2457
     58  N        -56.7150    6.7330   46.3580 N.3   116  LYS116     -0.1245
     59  CA       -57.6240    5.7190   45.8330 C.3   116  LYS116      0.1561
     60  C        -57.2230    4.3120   46.2840 C.2   116  LYS116      0.2260
     61  O        -57.9860    3.6450   46.9820 O.2   116  LYS116     -0.2867
     62  CB       -57.7090    5.8050   44.3080 C.3   116  LYS116      0.0271
     63  CG       -58.6900    4.8290   43.6790 C.3   116  LYS116      0.0035
     64  CD       -60.1020    5.3960   43.6750 C.3   116  LYS116      0.0206
     65  CE       -61.0190    4.6340   42.7310 C.3   116  LYS116      0.1093
     66  NZ       -60.6420    4.8110   41.3000 N.3   116  LYS116     -0.1314
     67  N        -57.0860    3.7090   50.3300 N.3   119  PHE119     -0.1227
     68  CA       -58.3150    3.4790   51.0850 C.3   119  PHE119      0.1736
     69  C        -59.1850    2.3900   50.4620 C.2   119  PHE119      0.2595
     70  O        -60.1090    1.8860   51.1010 O.2   119  PHE119     -0.2718
     71  CB       -59.1220    4.7740   51.1980 C.3   119  PHE119      0.0547
     72  CG       -58.4930    5.8030   52.0920 C.ar  119  PHE119     -0.0202
     73  CD1      -58.3520    5.5680   53.4500 C.ar  119  PHE119     -0.0042
     74  CD2      -58.0510    7.0100   51.5760 C.ar  119  PHE119     -0.0042
     75  CE1      -57.7750    6.5140   54.2760 C.ar  119  PHE119     -0.0003
     76  CE2      -57.4750    7.9620   52.3980 C.ar  119  PHE119     -0.0003
     77  CZ       -57.3370    7.7130   53.7490 C.ar  119  PHE119     -0.0000
     78  N        -58.8940    2.0320   49.2150 N.am  120  LEU120     -0.1966
     79  CA       -59.6910    1.0390   48.4990 C.3   120  LEU120      0.1728
     80  C        -59.7070   -0.2980   49.2310 C.2   120  LEU120      0.2616
     81  O        -58.6590   -0.8900   49.4900 O.2   120  LEU120     -0.2715
     82  CB       -59.1530    0.8520   47.0780 C.3   120  LEU120      0.0311
     83  CG       -59.7430   -0.3090   46.2740 C.3   120  LEU120      0.0022
     84  CD1      -59.9910    0.1160   44.8370 C.3   120  LEU120      0.0001
     85  CD2      -58.8250   -1.5230   46.3160 C.3   120  LEU120      0.0001
     86  N        -60.9060   -0.7690   49.5610 N.am  121  GLU121     -0.1977
     87  CA       -61.0670   -2.0580   50.2210 C.3   121  GLU121      0.1602
     88  C        -60.2760   -2.1170   51.5250 C.2   121  GLU121      0.2287
     89  O        -59.9320   -3.1970   52.0040 O.2   121  GLU121     -0.2864
     90  CB       -60.6240   -3.1750   49.2720 C.3   121  GLU121      0.0415
     91  CG       -61.3620   -4.4920   49.4520 C.3   121  GLU121      0.1163
     92  CD       -60.4700   -5.6970   49.2180 C.2   121  GLU121      0.3649
     93  OE1      -59.3970   -5.5370   48.5950 O.co2 121  GLU121     -0.2457
     94  OE2      -60.8460   -6.8080   49.6450 O.co2 121  GLU121     -0.2457
     95  N        -57.4730   16.8820   57.9450 N.3   146  VAL146     -0.1231
     96  CA       -57.9020   18.1890   58.4210 C.3   146  VAL146      0.1692
     97  C        -59.3070   18.1140   59.0130 C.2   146  VAL146      0.2591
     98  O        -59.6070   18.7970   59.9910 O.2   146  VAL146     -0.2718
     99  CB       -57.8770   19.2330   57.2880 C.3   146  VAL146      0.0266
    100  CG1      -58.4350   20.5640   57.7700 C.3   146  VAL146      0.0020
    101  CG2      -56.4610   19.4070   56.7660 C.3   146  VAL146      0.0020
    102  N        -60.1650   17.2850   58.4240 N.am  147  GLU147     -0.1979
    103  CA       -61.5360   17.1530   58.9140 C.3   147  GLU147      0.1602
    104  C        -62.2710   15.9050   58.4330 C.2   147  GLU147      0.2287
    105  O        -62.0320   15.3970   57.3370 O.2   147  GLU147     -0.2864
    106  CB       -62.3420   18.4040   58.5490 C.3   147  GLU147      0.0415
    107  CG       -63.7000   18.4980   59.2220 C.3   147  GLU147      0.1163
    108  CD       -63.6620   19.3080   60.5020 C.2   147  GLU147      0.3649
    109  OE1      -62.7480   20.1450   60.6590 O.co2 147  GLU147     -0.2457
    110  OE2      -64.5460   19.0970   61.3600 O.co2 147  GLU147     -0.2457
    111  N        -66.4770   14.2320   58.7280 N.3   149  ASP149     -0.1239
    112  CA       -67.8420   14.6190   59.0790 C.3   149  ASP149      0.1674
    113  C        -68.2400   14.0660   60.4520 C.2   149  ASP149      0.2266
    114  O        -68.7570   14.8080   61.2870 O.2   149  ASP149     -0.2867
    115  CB       -68.8440   14.1930   58.0000 C.3   149  ASP149      0.1410
    116  CG       -70.1900   14.8880   58.1460 C.2   149  ASP149      0.3668
    117  OD1      -70.2970   15.8080   58.9840 O.co2 149  ASP149     -0.2456
    118  OD2      -71.1400   14.5180   57.4220 O.co2 149  ASP149     -0.2456
    119  N        -65.0460    4.4560   54.5440 N.3   157  ALA157     -0.1231
    120  CA       -65.7830    3.5070   53.7220 C.3   157  ALA157      0.1679
    121  C        -65.8760    4.0360   52.2950 C.2   157  ALA157      0.2434
    122  O        -65.6250    5.2150   52.0540 O.2   157  ALA157     -0.2733
    123  CB       -67.1700    3.2800   54.3010 C.3   157  ALA157      0.0304
    124  N        -66.2300    3.1630   51.3380 N.am  158  PRO158     -0.2718
    125  CA       -66.3260    3.5750   49.9320 C.3   158  PRO158      0.1535
    126  C        -67.2600    4.7620   49.7220 C.2   158  PRO158      0.2599
    127  O        -67.1170    5.4890   48.7390 O.2   158  PRO158     -0.2715
    128  CB       -66.8840    2.3290   49.2400 C.3   158  PRO158      0.0310
    129  CG       -66.4570    1.2010   50.1000 C.3   158  PRO158      0.0237
    130  CD       -66.4950    1.7240   51.5060 C.3   158  PRO158      0.0939
    131  N        -68.2050    4.9490   50.6380 N.am  159  ASP159     -0.1958
    132  CA       -69.1800    6.0250   50.5230 C.3   159  ASP159      0.1840
    133  C        -68.5850    7.3720   50.9320 C.2   159  ASP159      0.2623
    134  O        -69.0880    8.4240   50.5360 O.2   159  ASP159     -0.2715
    135  CB       -70.4040    5.7190   51.3860 C.3   159  ASP159      0.1450
    136  CG       -71.6400    6.4670   50.9300 C.2   159  ASP159      0.3671
    137  OD1      -71.4930    7.5140   50.2670 O.co2 159  ASP159     -0.2456
    138  OD2      -72.7600    6.0100   51.2390 O.co2 159  ASP159     -0.2456
    139  N        -67.5220    7.3390   51.7300 N.am  160  THR160     -0.1937
    140  CA       -66.8780    8.5680   52.1810 C.3   160  THR160      0.2028
    141  C        -66.3040    9.3260   50.9910 C.2   160  THR160      0.2642
    142  O        -65.6180    8.7450   50.1490 O.2   160  THR160     -0.2714
    143  CB       -65.7290    8.2930   53.1770 C.3   160  THR160      0.1808
    144  OG1      -64.6460    7.6380   52.5050 O.3   160  THR160     -0.2208
    145  CG2      -66.2000    7.4340   54.3360 C.3   160  THR160      0.0379
    146  N        -66.5940   10.6210   50.9220 N.am  161  VAL161     -0.1963
    147  CA       -66.0650   11.4670   49.8620 C.3   161  VAL161      0.1727
    148  C        -64.7970   12.1540   50.3420 C.2   161  VAL161      0.2616
    149  O        -64.6660   12.4800   51.5210 O.2   161  VAL161     -0.2715
    150  CB       -67.0840   12.5310   49.4240 C.3   161  VAL161      0.0290
    151  CG1      -66.7090   13.8970   49.9770 C.3   161  VAL161      0.0023
    152  CG2      -67.1660   12.5810   47.9100 C.3   161  VAL161      0.0023
    153  N        -63.8710   12.3890   49.4210 N.am  162  ILE162     -0.1963
    154  CA       -62.6120   13.0330   49.7590 C.3   162  ILE162      0.1727
    155  C        -62.3680   14.3020   48.9720 C.2   162  ILE162      0.2616
    156  O        -62.6190   14.3720   47.7680 O.2   162  ILE162     -0.2715
    157  CB       -61.4220   12.0990   49.5120 C.3   162  ILE162      0.0290
    158  CG1      -61.4780   10.9100   50.4690 C.3   162  ILE162      0.0022
    159  CG2      -60.1170   12.8390   49.7380 C.3   162  ILE162      0.0023
    160  CD1      -61.2860    9.5750   49.7950 C.3   162  ILE162      0.0001
    161  N        -61.8680   15.3050   49.6790 N.am  163  HIS163     -0.1973
    162  CA       -61.5590   16.5830   49.0830 C.3   163  HIS163      0.1656
    163  C        -60.1310   16.8920   49.5020 C.2   163  HIS163      0.2291
    164  O        -59.8420   17.0250   50.6910 O.2   163  HIS163     -0.2864
    165  CB       -62.5390   17.6520   49.5680 C.3   163  HIS163      0.0771
    166  CG       -63.8630   17.6330   48.8610 C.ar  163  HIS163      0.0820
    167  ND1      -64.3800   18.7260   48.2100 N.ar  163  HIS163     -0.2267
    168  CD2      -64.7720   16.6390   48.7130 C.ar  163  HIS163      0.1154
    169  CE1      -65.5520   18.4170   47.6900 C.ar  163  HIS163      0.1986
    170  NE2      -65.8160   17.1530   47.9790 N.ar  163  HIS163     -0.2212
    171  N        -58.3320   19.4930   48.0380 N.3   165  GLU165     -0.1245
    172  CA       -58.1360   20.7410   47.3270 C.3   165  GLU165      0.1567
    173  C        -57.3550   21.7080   48.2060 C.2   165  GLU165      0.2260
    174  O        -57.7850   22.0090   49.3200 O.2   165  GLU165     -0.2867
    175  CB       -59.4870   21.3650   46.9810 C.3   165  GLU165      0.0388
    176  CG       -60.3580   20.4990   46.0890 C.3   165  GLU165      0.1160
    177  CD       -61.3600   19.6790   46.8830 C.2   165  GLU165      0.3649
    178  OE1      -61.5230   18.4800   46.5780 O.co2 165  GLU165     -0.2457
    179  OE2      -61.9880   20.2360   47.8080 O.co2 165  GLU165     -0.2457
@<TRIPOS>BOND
     1    57    55   ar
     2    37    35   am
     3    56    55   ar
     4    55    54    1
     5    30    31    1
     6    34    35    1
     7    34    31    1
     8    54    53    1
     9    35    36    2
    10    31    32    1
    11    53    50    1
    12    66    65    1
    13    33    32    2
    14    50    51    1
    15    50    49    1
    16    52    51    2
    17    65    64    1
    18    49    40   am
    19    64    63    1
    20    63    62    1
    21    45    47   ar
    22    45    43   ar
    23    40    41    2
    24    40    39    1
    25    62    59    1
    26    38    39    1
    27    47    48   ar
    28    84    83    1
    29    42    39    1
    30    42    43    1
    31    43    44   ar
    32    48    46   ar
    33    59    60    1
    34    59    58    1
    35   176   177    1
    36   176   175    1
    37    83    85    1
    38    83    82    1
    39    60    61    2
    40    44    46   ar
    41   178   177   ar
    42   177   179   ar
    43   175   172    1
    44    82    79    1
    45   172   171    1
    46   172   173    1
    47   169   170   ar
    48   169   167   ar
    49   156   155    2
    50   152   150    1
    51   170   168   ar
    52   173   174    2
    53   167   166   ar
    54    79    78    1
    55    79    80    1
    56    93    92   ar
    57   168   166   ar
    58   127   126    2
    59   166   165    1
    60   155   161   am
    61   155   154    1
    62   162   163    1
    63   162   165    1
    64   162   161    1
    65    78    69   am
    66    92    91    1
    67    92    94   ar
    68    80    81    2
    69    80    86   am
    70   128   125    1
    71   128   129    1
    72    90    91    1
    73    90    87    1
    74   153   154    1
    75   153   148   am
    76   150   147    1
    77   150   151    1
    78   163   164    2
    79   157   159    1
    80   157   154    1
    81   157   158    1
    82    86    87    1
    83   126   125    1
    84   126   131   am
    85   160   158    1
    86   147   148    1
    87   147   146    1
    88   125   124    1
    89   129   130    1
    90   142   141    2
    91    87    88    1
    92   137   136   ar
    93    67    68    1
    94   148   149    2
    95    69    68    1
    96    69    70    2
    97   132   131    1
    98   132   133    1
    99   132   135    1
   100   134   133    2
   101   146   141   am
   102   136   138   ar
   103   136   135    1
   104   133   139   am
   105   141   140    1
   106    68    71    1
   107    71    72    1
   108   124   130    1
   109   124   121   am
   110    88    89    2
   111    74    72   ar
   112    74    76   ar
   113   139   140    1
   114    29    27   ar
   115    29    28   ar
   116   122   121    2
   117    72    73   ar
   118    27    25   ar
   119   140   143    1
   120   121   120    1
   121    76    77   ar
   122   144   143    1
   123    15    14    2
   124    28    26   ar
   125   143   145    1
   126    73    75   ar
   127    25    26   ar
   128    25    24    1
   129     5     2    1
   130     5     6    1
   131   120   123    1
   132   120   119    1
   133    14    20   am
   134    14    13    1
   135    77    75   ar
   136     2     3    1
   137     2     1    1
   138    12    13    1
   139    12     3   am
   140    21    22    1
   141    21    24    1
   142    21    20    1
   143    22    23    2
   144    16    13    1
   145    16    18    1
   146    16    17    1
   147     3     4    2
   148     7     6    1
   149     7     8    1
   150     8     9    2
   151    19    17    1
   152    10     9    1
   153     9    11    1
   154   101    99    1
   155    99   100    1
   156    99    96    1
   157   105   104    2
   158   118   116   ar
   159    95    96    1
   160   115   116    1
   161   115   112    1
   162   116   117   ar
   163    96    97    1
   164   102   103    1
   165   102    97   am
   166   104   103    1
   167   106   103    1
   168   106   107    1
   169   111   112    1
   170    97    98    2
   171   112   113    1
   172   107   108    1
   173   113   114    2
   174   108   109   ar
   175   108   110   ar
