@<TRIPOS>MOLECULE
tmp/5c1mA04.pdb
 114 104 0 0 0
SMALL
GASTEIGER

@<TRIPOS>ATOM
      1  N          0.4840   10.6240  -44.4770 N.3   104  PHE104     -0.1241
      2  CA         0.8810    9.5950  -43.5210 C.3   104  PHE104      0.1605
      3  C          0.7150   10.1150  -42.0820 C.2   104  PHE104      0.2264
      4  O          0.3980    9.3500  -41.1820 O.2   104  PHE104     -0.2867
      5  CB         2.3210    9.1310  -43.7590 C.3   104  PHE104      0.0534
      6  CG         2.5290    8.4200  -45.0800 C.ar  104  PHE104     -0.0203
      7  CD1        1.4470    7.9610  -45.8250 C.ar  104  PHE104     -0.0042
      8  CD2        3.8060    8.2130  -45.5700 C.ar  104  PHE104     -0.0042
      9  CE1        1.6420    7.3110  -47.0220 C.ar  104  PHE104     -0.0003
     10  CE2        4.0090    7.5660  -46.7750 C.ar  104  PHE104     -0.0003
     11  CZ         2.9280    7.1150  -47.4940 C.ar  104  PHE104     -0.0000
     12  N         -3.0040    9.9170  -41.2120 N.3   107  CYS107     -0.1221
     13  CA        -3.3050    8.5080  -40.9050 C.3   107  CYS107      0.1808
     14  C         -2.8120    8.1260  -39.5140 C.2   107  CYS107      0.2601
     15  O         -3.4860    7.3890  -38.8060 O.2   107  CYS107     -0.2717
     16  CB        -2.6720    7.5560  -41.9190 C.3   107  CYS107      0.0970
     17  SG        -3.3610    7.6720  -43.5860 S.3   107  CYS107     -0.0800
     18  N         -1.6110    8.5860  -39.1680 N.am  108  THR108     -0.1953
     19  CA        -1.0070    8.2970  -37.8750 C.3   108  THR108      0.1897
     20  C         -1.8860    8.8190  -36.7400 C.2   108  THR108      0.2313
     21  O         -2.0760    8.1450  -35.7310 O.2   108  THR108     -0.2863
     22  CB         0.4010    8.9030  -37.7620 C.3   108  THR108      0.1794
     23  OG1        1.2580    8.2760  -38.7210 O.3   108  THR108     -0.2208
     24  CG2        0.9810    8.6580  -36.3640 C.3   108  THR108      0.0378
     25  N         -4.7740    6.3700  -36.3980 N.3   111  VAL111     -0.1245
     26  CA        -4.3310    5.1480  -35.7290 C.3   111  VAL111      0.1561
     27  C         -4.0820    5.4100  -34.2220 C.2   111  VAL111      0.2260
     28  O         -4.4000    4.5910  -33.3620 O.2   111  VAL111     -0.2867
     29  CB        -3.0570    4.6200  -36.3690 C.3   111  VAL111      0.0252
     30  CG1       -2.4460    3.5230  -35.5110 C.3   111  VAL111      0.0019
     31  CG2       -3.3540    4.1230  -37.7960 C.3   111  VAL111      0.0019
     32  N         -5.9690    3.4910  -31.2590 N.3   115  ILE115     -0.1245
     33  CA        -5.2220    2.7820  -30.2240 C.3   115  ILE115      0.1561
     34  C         -5.6560    3.2580  -28.8190 C.2   115  ILE115      0.2260
     35  O         -5.8980    2.4320  -27.9280 O.2   115  ILE115     -0.2867
     36  CB        -3.7170    2.9550  -30.4470 C.3   115  ILE115      0.0252
     37  CG1       -3.2780    2.0460  -31.6030 C.3   115  ILE115      0.0019
     38  CG2       -2.8830    2.6460  -29.1710 C.3   115  ILE115      0.0019
     39  CD1       -1.8420    2.2610  -32.0130 C.3   115  ILE115      0.0001
     40  N         -2.0900   -0.8270  -24.4110 N.3   122  LYS122     -0.1245
     41  CA        -1.0050   -0.6000  -25.3630 C.3   122  LYS122      0.1561
     42  C         -0.7990    0.8960  -25.6220 C.2   122  LYS122      0.2260
     43  O          0.3070    1.3300  -25.9180 O.2   122  LYS122     -0.2867
     44  CB        -1.2890   -1.3390  -26.6760 C.3   122  LYS122      0.0271
     45  CG        -1.1560   -2.8660  -26.5490 C.3   122  LYS122      0.0035
     46  CD        -1.7440   -3.6010  -27.7570 C.3   122  LYS122      0.0206
     47  CE        -1.7030   -5.1240  -27.5720 C.3   122  LYS122      0.1093
     48  NZ        -2.3350   -5.8550  -28.7150 N.3   122  LYS122     -0.1314
     49  N          2.0630    2.6180  -23.9190 N.3   125  ASP125     -0.1225
     50  CA         3.3870    2.4900  -24.5360 C.3   125  ASP125      0.1805
     51  C          3.4740    3.2540  -25.8660 C.2   125  ASP125      0.2597
     52  O          4.4930    3.8480  -26.1740 O.2   125  ASP125     -0.2718
     53  CB         3.7420    1.0180  -24.7750 C.3   125  ASP125      0.1424
     54  CG         3.7540    0.1950  -23.4840 C.2   125  ASP125      0.3668
     55  OD1        4.2560    0.6930  -22.4520 O.co2 125  ASP125     -0.2456
     56  OD2        3.2520   -0.9510  -23.5040 O.co2 125  ASP125     -0.2456
     57  N          2.4030    3.2490  -26.6480 N.am  126  PHE126     -0.1976
     58  CA         2.4570    3.8860  -27.9600 C.3   126  PHE126      0.1639
     59  C          2.4740    5.4190  -27.9040 C.2   126  PHE126      0.2290
     60  O          3.1560    6.0550  -28.7060 O.2   126  PHE126     -0.2864
     61  CB         1.2810    3.4220  -28.8320 C.3   126  PHE126      0.0560
     62  CG         1.2360    4.0880  -30.1920 C.ar  126  PHE126     -0.0200
     63  CD1        2.1830    3.7850  -31.1570 C.ar  126  PHE126     -0.0042
     64  CD2        0.2530    5.0220  -30.4970 C.ar  126  PHE126     -0.0042
     65  CE1        2.1540    4.3960  -32.4090 C.ar  126  PHE126     -0.0003
     66  CE2        0.2220    5.6420  -31.7480 C.ar  126  PHE126     -0.0003
     67  CZ         1.1790    5.3210  -32.7030 C.ar  126  PHE126     -0.0000
     68  N          7.8740    7.9190  -29.0780 N.3   131  ASN131     -0.1240
     69  CA         7.3430    7.1170  -30.1640 C.3   131  ASN131      0.1653
     70  C          6.7990    7.9450  -31.3090 C.2   131  ASN131      0.2266
     71  O          6.8640    7.5270  -32.4560 O.2   131  ASN131     -0.2867
     72  CB         6.2590    6.1820  -29.6480 C.3   131  ASN131      0.1155
     73  CG         6.8350    4.8910  -29.1150 C.2   131  ASN131      0.2627
     74  OD1        7.9330    4.4870  -29.5040 O.2   131  ASN131     -0.2716
     75  ND2        6.1010    4.2340  -28.2320 N.am  131  ASN131     -0.0877
     76  N          7.8600    7.5130  -35.0830 N.3   135  VAL135     -0.1245
     77  CA         6.8620    7.2980  -36.1310 C.3   135  VAL135      0.1561
     78  C          7.0210    8.3130  -37.2700 C.2   135  VAL135      0.2260
     79  O          6.9440    7.9530  -38.4520 O.2   135  VAL135     -0.2867
     80  CB         5.4330    7.3680  -35.5630 C.3   135  VAL135      0.0252
     81  CG1        4.4030    7.5470  -36.6790 C.3   135  VAL135      0.0019
     82  CG2        5.1320    6.1130  -34.7480 C.3   135  VAL135      0.0019
     83  N          7.7200    7.2850  -41.0880 N.3   139  ASN139     -0.1240
     84  CA         6.8850    7.8180  -42.1450 C.3   139  ASN139      0.1653
     85  C          7.7230    8.5730  -43.1610 C.2   139  ASN139      0.2266
     86  O          7.4580    8.5380  -44.3550 O.2   139  ASN139     -0.2867
     87  CB         5.8050    8.7270  -41.5630 C.3   139  ASN139      0.1155
     88  CG         4.6770    7.9440  -40.9370 C.2   139  ASN139      0.2627
     89  OD1        4.5260    6.7570  -41.1980 O.2   139  ASN139     -0.2716
     90  ND2        3.8810    8.6020  -40.1140 N.am  139  ASN139     -0.0877
     91  N          9.4730    6.0670  -45.3570 N.3   142  LEU142     -0.1245
     92  CA         8.5160    5.5310  -46.3110 C.3   142  LEU142      0.1561
     93  C          8.2730    6.5300  -47.4450 C.2   142  LEU142      0.2260
     94  O          8.2980    6.1690  -48.6160 O.2   142  LEU142     -0.2867
     95  CB         7.2120    5.1810  -45.6020 C.3   142  LEU142      0.0270
     96  CG         6.1150    4.4980  -46.4170 C.3   142  LEU142      0.0019
     97  CD1        6.5870    3.1270  -46.9210 C.3   142  LEU142      0.0001
     98  CD2        4.8130    4.3920  -45.5920 C.3   142  LEU142      0.0001
     99  N         -4.9410    3.4460  -49.5410 N.3   191  MET191     -0.1196
    100  CA        -4.4930    3.0080  -48.2340 C.3   191  MET191      0.1786
    101  C         -4.9260    3.9990  -47.1410 C.2   191  MET191      0.2306
    102  O         -5.4450    3.5850  -46.1070 O.2   191  MET191     -0.2863
    103  CB        -2.9660    2.8210  -48.2240 C.2   191  MET191      0.0070
    104  CG        -2.3620    2.4380  -46.8560 C.2   191  MET191      0.0282
    105  SD        -0.5550    2.5400  -46.7270 S.3   191  MET191     -0.1125
    106  CE        -0.3200    4.2980  -46.4970 C.3   191  MET191      0.0742
    107  N         -7.3360    3.1780  -44.0240 N.3   195  ILE195     -0.1245
    108  CA        -6.8060    3.2980  -42.6700 C.3   195  ILE195      0.1561
    109  C         -7.6990    4.1570  -41.7650 C.2   195  ILE195      0.2260
    110  O         -8.0790    3.7310  -40.6660 O.2   195  ILE195     -0.2867
    111  CB        -5.3850    3.8670  -42.6770 C.3   195  ILE195      0.0252
    112  CG1       -4.4070    2.7890  -43.1380 C.3   195  ILE195      0.0019
    113  CG2       -4.9730    4.3310  -41.2660 C.3   195  ILE195      0.0019
    114  CD1       -3.0010    3.3030  -43.3340 C.3   195  ILE195      0.0001
@<TRIPOS>BOND
     1    99   100    1
     2    94    93    2
     3   100   103    1
     4   100   101    1
     5   103   104    2
     6    11     9   ar
     7    11    10   ar
     8    93    92    1
     9   101   102    2
    10     9     7   ar
    11    97    96    1
    12   104   105    1
    13    10     8   ar
    14   105   106    1
    15    96    95    1
    16    96    98    1
    17    92    95    1
    18    92    91    1
    19     7     6   ar
    20     8     6   ar
    21     6     5    1
    22     1     2    1
    23    86    85    2
    24   107   108    1
    25     5     2    1
    26    17    16    1
    27     2     3    1
    28   114   112    1
    29    85    84    1
    30   112   111    1
    31   111   108    1
    32   111   113    1
    33   108   109    1
    34    84    87    1
    35    84    83    1
    36     3     4    2
    37    16    13    1
    38   109   110    2
    39    87    88    1
    40    12    13    1
    41    89    88    2
    42    88    90   am
    43    13    14    1
    44    14    18   am
    45    14    15    2
    46    18    19    1
    47    23    22    1
    48    79    78    2
    49    19    22    1
    50    19    20    1
    51    31    29    1
    52    22    24    1
    53    78    77    1
    54    20    21    2
    55    81    80    1
    56    25    26    1
    57    29    26    1
    58    29    30    1
    59    77    80    1
    60    77    76    1
    61    26    27    1
    62    80    82    1
    63    27    28    2
    64    67    65   ar
    65    67    66   ar
    66    71    70    2
    67    65    63   ar
    68    39    37    1
    69    66    64   ar
    70    37    36    1
    71    70    69    1
    72    32    33    1
    73    63    62   ar
    74    64    62   ar
    75    36    33    1
    76    36    38    1
    77    33    34    1
    78    62    61    1
    79    69    72    1
    80    69    68    1
    81    72    73    1
    82    74    73    2
    83    73    75   am
    84    61    58    1
    85    34    35    2
    86    48    47    1
    87    60    59    2
    88    58    59    1
    89    58    57    1
    90    46    47    1
    91    46    45    1
    92    44    45    1
    93    44    41    1
    94    57    51   am
    95    52    51    2
    96    43    42    2
    97    51    50    1
    98    42    41    1
    99    41    40    1
   100    53    50    1
   101    53    54    1
   102    50    49    1
   103    56    54   ar
   104    54    55   ar
