@<TRIPOS>MOLECULE
tmp/5c1mA03.pdb
 112 107 0 0 0
SMALL
GASTEIGER

@<TRIPOS>ATOM
      1  N        -11.6870   12.9770  -48.5050 N.3   238  ILE238     -0.1231
      2  CA       -12.2230   12.3710  -49.7060 C.3   238  ILE238      0.1692
      3  C        -12.5670   13.4270  -50.7430 C.2   238  ILE238      0.2591
      4  O        -12.2650   13.2520  -51.9170 O.2   238  ILE238     -0.2718
      5  CB       -13.4430   11.4990  -49.3830 C.3   238  ILE238      0.0266
      6  CG1      -12.9580   10.1990  -48.7420 C.3   238  ILE238      0.0019
      7  CG2      -14.2330   11.1690  -50.6390 C.3   238  ILE238      0.0020
      8  CD1      -14.0740    9.3280  -48.2330 C.3   238  ILE238      0.0001
      9  N        -13.1790   14.5230  -50.3190 N.am  239  VAL239     -0.1980
     10  CA       -13.5510   15.5770  -51.2600 C.3   239  VAL239      0.1595
     11  C        -12.3200   16.2570  -51.8770 C.2   239  VAL239      0.2287
     12  O        -12.3050   16.5750  -53.0720 O.2   239  VAL239     -0.2864
     13  CB       -14.4330   16.6410  -50.5760 C.3   239  VAL239      0.0276
     14  CG1      -14.5260   17.8840  -51.4350 C.3   239  VAL239      0.0022
     15  CG2      -15.8250   16.0680  -50.2890 C.3   239  VAL239      0.0022
     16  N         -9.8790   12.9230  -53.8130 N.3   242  THR242     -0.1204
     17  CA       -10.4080   12.0010  -54.8210 C.3   242  THR242      0.1979
     18  C        -10.3720   12.5990  -56.2480 C.2   242  THR242      0.2459
     19  O         -9.9900   11.8970  -57.1850 O.2   242  THR242     -0.2732
     20  CB       -11.8690   11.5470  -54.4970 C.3   242  THR242      0.1783
     21  OG1      -11.9250   10.9980  -53.1760 O.3   242  THR242     -0.2211
     22  CG2      -12.3360   10.4950  -55.4770 C.3   242  THR242      0.0376
     23  N        -10.7690   13.8840  -56.4250 N.am  243  PRO243     -0.2728
     24  CA       -10.8220   14.3570  -57.8160 C.3   243  PRO243      0.1401
     25  C         -9.4730   14.3350  -58.5410 C.2   243  PRO243      0.2269
     26  O         -9.4380   13.8560  -59.6740 O.2   243  PRO243     -0.2865
     27  CB       -11.3460   15.7920  -57.6850 C.3   243  PRO243      0.0296
     28  CG       -12.1600   15.7690  -56.3840 C.3   243  PRO243      0.0237
     29  CD       -11.3560   14.8670  -55.4880 C.3   243  PRO243      0.0939
     30  N         -8.4210   10.6490  -59.3760 N.3   246  ILE246     -0.1231
     31  CA        -9.1930    9.9900  -60.4040 C.3   246  ILE246      0.1692
     32  C         -8.8460   10.6090  -61.7510 C.2   246  ILE246      0.2592
     33  O         -8.7450    9.9080  -62.7490 O.2   246  ILE246     -0.2718
     34  CB       -10.7070   10.0790  -60.1330 C.3   246  ILE246      0.0266
     35  CG1      -11.0400    9.3440  -58.8260 C.3   246  ILE246      0.0019
     36  CG2      -11.5090    9.4840  -61.2970 C.3   246  ILE246      0.0020
     37  CD1      -10.5260    7.9160  -58.7750 C.3   246  ILE246      0.0001
     38  N         -8.6410   11.9220  -61.7660 N.am  247  TYR247     -0.1976
     39  CA        -8.3180   12.6190  -62.9990 C.3   247  TYR247      0.1639
     40  C         -7.0140   12.0740  -63.5870 C.2   247  TYR247      0.2290
     41  O         -6.9340   11.7690  -64.7820 O.2   247  TYR247     -0.2864
     42  CB        -8.2170   14.1180  -62.7380 C.3   247  TYR247      0.0560
     43  CG        -8.6100   15.0080  -63.9070 C.ar  247  TYR247     -0.0198
     44  CD1       -8.2800   14.6750  -65.2120 C.ar  247  TYR247     -0.0009
     45  CD2       -9.3020   16.1970  -63.6940 C.ar  247  TYR247     -0.0009
     46  CE1       -8.6330   15.5000  -66.2790 C.ar  247  TYR247      0.0417
     47  CE2       -9.6630   17.0220  -64.7540 C.ar  247  TYR247      0.0417
     48  CZ        -9.3230   16.6750  -66.0380 C.ar  247  TYR247      0.1957
     49  OH        -9.6760   17.5100  -67.0890 O.3   247  TYR247     -0.2866
     50  N         -7.6220    8.6570  -65.1140 N.3   250  ILE250     -0.1245
     51  CA        -8.3540    8.7370  -66.3640 C.3   250  ILE250      0.1561
     52  C         -7.4460    9.2140  -67.4860 C.2   250  ILE250      0.2260
     53  O         -7.5190    8.6990  -68.6010 O.2   250  ILE250     -0.2867
     54  CB        -9.5710    9.6610  -66.2520 C.3   250  ILE250      0.0252
     55  CG1      -10.5130    9.1180  -65.1810 C.3   250  ILE250      0.0019
     56  CG2      -10.3090    9.7350  -67.5750 C.3   250  ILE250      0.0019
     57  CD1      -11.8070    9.8520  -65.0880 C.3   250  ILE250      0.0001
     58  N         -7.3200    7.1590  -71.0970 N.3   254  ILE254     -0.1245
     59  CA        -7.9600    7.6700  -72.2940 C.3   254  ILE254      0.1561
     60  C         -7.4090    9.0400  -72.6650 C.2   254  ILE254      0.2260
     61  O         -6.8540    9.7540  -71.8240 O.2   254  ILE254     -0.2867
     62  CB        -9.4890    7.7590  -72.1180 C.3   254  ILE254      0.0252
     63  CG1       -9.8790    9.0360  -71.3800 C.3   254  ILE254      0.0019
     64  CG2      -10.0100    6.5560  -71.3500 C.3   254  ILE254      0.0019
     65  CD1      -11.3660    9.1540  -71.1440 C.3   254  ILE254      0.0001
     66  N         -8.3980   12.7130  -73.7540 N.3   256  ILE256     -0.1231
     67  CA        -9.5720   13.5560  -73.5590 C.3   256  ILE256      0.1678
     68  C         -9.4390   14.8880  -74.2970 C.2   256  ILE256      0.2434
     69  O         -8.3400   15.4390  -74.3910 O.2   256  ILE256     -0.2733
     70  CB        -9.8220   13.8200  -72.0550 C.3   256  ILE256      0.0265
     71  CG1       -8.5020   14.0500  -71.3200 C.3   256  ILE256      0.0019
     72  CG2      -10.5610   12.6540  -71.4190 C.3   256  ILE256      0.0020
     73  CD1       -8.6840   14.3260  -69.8480 C.3   256  ILE256      0.0001
     74  N        -10.5640   15.4120  -74.8200 N.am  257  PRO257     -0.2729
     75  CA       -10.5570   16.6450  -75.6180 C.3   257  PRO257      0.1401
     76  C        -10.1590   17.8790  -74.8150 C.2   257  PRO257      0.2269
     77  O        -10.7010   18.1150  -73.7370 O.2   257  PRO257     -0.2865
     78  CB       -12.0090   16.7590  -76.0970 C.3   257  PRO257      0.0296
     79  CG       -12.8000   16.0150  -75.0830 C.3   257  PRO257      0.0237
     80  CD       -11.9250   14.8680  -74.6670 C.3   257  PRO257      0.0939
     81  N        -13.3590   23.6770  -70.2460 N.3   261  PHE261     -0.1227
     82  CA       -13.8540   22.9750  -69.0730 C.3   261  PHE261      0.1736
     83  C        -12.8510   21.9290  -68.5840 C.2   261  PHE261      0.2595
     84  O        -12.6900   21.7440  -67.3850 O.2   261  PHE261     -0.2718
     85  CB       -15.2030   22.3150  -69.3630 C.3   261  PHE261      0.0547
     86  CG       -15.8360   21.6950  -68.1510 C.ar  261  PHE261     -0.0202
     87  CD1      -16.5580   22.4730  -67.2570 C.ar  261  PHE261     -0.0042
     88  CD2      -15.6960   20.3390  -67.8970 C.ar  261  PHE261     -0.0042
     89  CE1      -17.1370   21.9070  -66.1330 C.ar  261  PHE261     -0.0003
     90  CE2      -16.2690   19.7660  -66.7770 C.ar  261  PHE261     -0.0003
     91  CZ       -16.9910   20.5520  -65.8910 C.ar  261  PHE261     -0.0000
     92  N        -12.1720   21.2640  -69.5140 N.am  262  GLN262     -0.1979
     93  CA       -11.1640   20.2700  -69.1620 C.3   262  GLN262      0.1601
     94  C         -9.9430   20.9030  -68.4970 C.2   262  GLN262      0.2287
     95  O         -9.4270   20.3930  -67.5010 O.2   262  GLN262     -0.2864
     96  CB       -10.7330   19.4870  -70.3970 C.3   262  GLN262      0.0394
     97  CG        -9.2690   19.1120  -70.4040 C.3   262  GLN262      0.0908
     98  CD        -9.0250   17.8110  -71.1170 C.2   262  GLN262      0.2608
     99  OE1       -9.9120   16.9620  -71.1900 O.2   262  GLN262     -0.2717
    100  NE2       -7.8210   17.6430  -71.6550 N.am  262  GLN262     -0.0878
    101  N        -11.1100   22.4120  -65.0180 N.3   265  SER265     -0.1217
    102  CA       -11.4010   21.3620  -64.0620 C.3   265  SER265      0.1889
    103  C        -10.1110   20.6870  -63.5880 C.2   265  SER265      0.2288
    104  O        -10.0050   20.2870  -62.4310 O.2   265  SER265     -0.2866
    105  CB       -12.3650   20.3440  -64.6650 C.3   265  SER265      0.2089
    106  OG       -11.7520   19.6560  -65.7280 O.3   265  SER265     -0.2183
    107  N         -9.0530   20.5750  -59.6990 N.3   269  CYS269     -0.1235
    108  CA        -8.7700   19.3230  -59.0020 C.3   269  CYS269      0.1677
    109  C         -7.4000   19.3510  -58.3430 C.2   269  CYS269      0.2270
    110  O         -7.2350   18.8790  -57.2130 O.2   269  CYS269     -0.2867
    111  CB        -8.8730   18.1370  -59.9590 C.3   269  CYS269      0.0956
    112  SG       -10.5940   17.8310  -60.4700 S.3   269  CYS269     -0.0801
@<TRIPOS>BOND
     1    78    75    1
     2    78    79    1
     3    75    74    1
     4    75    76    1
     5    79    80    1
     6    74    80    1
     7    74    68   am
     8    76    77    2
     9    69    68    2
    10    68    67    1
    11    66    67    1
    12    67    70    1
    13    60    59    1
    14    60    61    2
    15    59    62    1
    16    59    58    1
    17    62    63    1
    18    62    64    1
    19    70    72    1
    20    70    71    1
    21   100    98   am
    22    63    65    1
    23    71    73    1
    24    99    98    2
    25    98    97    1
    26    97    96    1
    27    96    93    1
    28    81    82    1
    29    92    93    1
    30    92    83   am
    31    85    82    1
    32    85    86    1
    33    93    94    1
    34    82    83    1
    35    53    52    2
    36    83    84    2
    37    94    95    2
    38    86    88   ar
    39    86    87   ar
    40    88    90   ar
    41    56    54    1
    42    52    51    1
    43    87    89   ar
    44    49    48    1
    45    90    91   ar
    46    51    54    1
    47    51    50    1
    48    46    48   ar
    49    46    44   ar
    50    54    55    1
    51    89    91   ar
    52    48    47   ar
    53   106   105    1
    54    44    43   ar
    55    55    57    1
    56   101   102    1
    57    41    40    2
    58    47    45   ar
    59   105   102    1
    60   102   103    1
    61    43    45   ar
    62    43    42    1
    63   103   104    2
    64    40    39    1
    65    39    42    1
    66    39    38    1
    67    33    32    2
    68    38    32   am
    69    32    31    1
    70    36    34    1
    71   112   111    1
    72    31    34    1
    73    31    30    1
    74    34    35    1
    75   111   108    1
    76   107   108    1
    77    26    25    2
    78   108   109    1
    79    35    37    1
    80    25    24    1
    81   109   110    2
    82    24    27    1
    83    24    23    1
    84    27    28    1
    85    19    18    2
    86    23    18   am
    87    23    29    1
    88    28    29    1
    89    18    17    1
    90    22    20    1
    91    17    20    1
    92    17    16    1
    93    20    21    1
    94    12    11    2
    95     4     3    2
    96    11    10    1
    97    14    13    1
    98    10    13    1
    99    10     9    1
   100     3     9   am
   101     3     2    1
   102     7     5    1
   103    13    15    1
   104     2     5    1
   105     2     1    1
   106     5     6    1
   107     6     8    1
