@<TRIPOS>MOLECULE
tmp/5c1mA00.pdb
 205 197 0 0 0
SMALL
GASTEIGER

@<TRIPOS>ATOM
      1  N          3.2010   13.7470  -70.5660 N.3     2  SER2       -0.1202
      2  CA         2.9410   15.0790  -70.0380 C.3     2  SER2        0.2020
      3  C          2.8770   15.0350  -68.5150 C.2     2  SER2        0.2619
      4  O          2.5240   14.0090  -67.9340 O.2     2  SER2       -0.2717
      5  CB         1.6370   15.6420  -70.6110 C.3     2  SER2        0.2103
      6  OG         1.3650   16.9360  -70.1010 O.3     2  SER2       -0.2182
      7  N          3.2270   16.1460  -67.8740 N.am    3  HIS3       -0.1961
      8  CA         3.1470   16.2490  -66.4180 C.3     3  HIS3        0.1787
      9  C          2.6060   17.6150  -66.0010 C.2     3  HIS3        0.2620
     10  O          1.3950   17.8160  -65.9410 O.2     3  HIS3       -0.2715
     11  CB         4.5190   16.0030  -65.7800 C.3     3  HIS3        0.0785
     12  CG         4.4510   15.5790  -64.3430 C.ar    3  HIS3        0.0821
     13  ND1        3.9710   14.3490  -63.9550 N.ar    3  HIS3       -0.2267
     14  CD2        4.7870   16.2240  -63.2010 C.ar    3  HIS3        0.1154
     15  CE1        4.0220   14.2450  -62.6410 C.ar    3  HIS3        0.1986
     16  NE2        4.5310   15.3650  -62.1600 N.ar    3  HIS3       -0.2212
     17  N          3.5090   18.5480  -65.7160 N.am    4  SER4       -0.1950
     18  CA         3.1200   19.8900  -65.2940 C.3     4  SER4        0.1924
     19  C          2.6210   20.6940  -66.4880 C.2     4  SER4        0.2314
     20  O          1.6330   21.4290  -66.3940 O.2     4  SER4       -0.2863
     21  CB         4.2950   20.6110  -64.6240 C.3     4  SER4        0.2116
     22  OG         5.3140   20.9300  -65.5600 O.3     4  SER4       -0.2180
     23  N          3.9710   21.7820  -48.8020 N.3    65  ALA65      -0.1245
     24  CA         3.1370   21.4180  -49.9450 C.3    65  ALA65       0.1562
     25  C          2.6360   22.6610  -50.6700 C.2    65  ALA65       0.2260
     26  O          2.7780   22.7900  -51.9040 O.2    65  ALA65      -0.2867
     27  CB         1.9480   20.5380  -49.5000 C.3    65  ALA65       0.0290
     28  N          3.8570   26.5350  -59.4620 N.3    72  GLN72      -0.1245
     29  CA         2.8380   25.9660  -60.3240 C.3    72  GLN72       0.1566
     30  C          1.9760   27.0460  -61.0040 C.2    72  GLN72       0.2260
     31  O          1.5530   26.8880  -62.1580 O.2    72  GLN72      -0.2867
     32  CB         1.9760   24.9880  -59.5170 C.3    72  GLN72       0.0367
     33  CG         2.7390   23.7310  -59.0960 C.3    72  GLN72       0.0905
     34  CD         1.8420   22.6390  -58.5280 C.2    72  GLN72       0.2608
     35  OE1        0.8450   22.2520  -59.1410 O.2    72  GLN72      -0.2717
     36  NE2        2.1900   22.1450  -57.3340 N.am   72  GLN72      -0.0878
     37  N          4.1580   28.4830  -63.7920 N.3    75  ASN75      -0.1240
     38  CA         4.2020   27.4400  -64.8160 C.3    75  ASN75       0.1653
     39  C          2.9340   27.4450  -65.6690 C.2    75  ASN75       0.2266
     40  O          2.9890   27.3600  -66.9020 O.2    75  ASN75      -0.2867
     41  CB         4.4110   26.0730  -64.1650 C.3    75  ASN75       0.1155
     42  CG         4.5530   24.9510  -65.1780 C.2    75  ASN75       0.2627
     43  OD1        5.5830   24.8160  -65.8320 O.2    75  ASN75      -0.2716
     44  ND2        3.5190   24.1250  -65.2930 N.am   75  ASN75      -0.0877
     45  N          7.7660   25.8740  -67.8380 N.3    81  TRP81      -0.1241
     46  CA         8.6000   25.8870  -66.6420 C.3    81  TRP81       0.1605
     47  C          9.8470   26.7360  -66.8520 C.2    81  TRP81       0.2264
     48  O         10.7390   26.3490  -67.6020 O.2    81  TRP81      -0.2867
     49  CB         9.0060   24.4620  -66.2490 C.3    81  TRP81       0.0550
     50  CG         9.8040   24.4090  -64.9800 C.ar   81  TRP81       0.0003
     51  CD1       11.1650   24.4320  -64.8610 C.ar   81  TRP81       0.0946
     52  CD2        9.2830   24.3440  -63.6480 C.ar   81  TRP81       0.0152
     53  NE1       11.5240   24.3760  -63.5300 N.ar   81  TRP81      -0.2442
     54  CE2       10.3860   24.3240  -62.7670 C.ar   81  TRP81       0.0810
     55  CE3        7.9900   24.3000  -63.1120 C.ar   81  TRP81       0.0012
     56  CZ2       10.2360   24.2590  -61.3860 C.ar   81  TRP81       0.0191
     57  CZ3        7.8450   24.2340  -61.7400 C.ar   81  TRP81       0.0001
     58  CH2        8.9600   24.2140  -60.8930 C.ar   81  TRP81       0.0015
     59  N         11.4660   21.2250  -56.4550 N.3    91  VAL91      -0.1231
     60  CA        10.0420   21.4400  -56.2320 C.3    91  VAL91       0.1692
     61  C          9.2490   20.1430  -56.3940 C.2    91  VAL91       0.2591
     62  O          8.3600   19.8470  -55.5950 O.2    91  VAL91      -0.2718
     63  CB         9.4900   22.5170  -57.1770 C.3    91  VAL91       0.0266
     64  CG1        7.9720   22.6280  -57.0340 C.3    91  VAL91       0.0020
     65  CG2       10.1610   23.8560  -56.8720 C.3    91  VAL91       0.0020
     66  N          9.5780   19.3510  -57.4130 N.am   92  ILE92      -0.1980
     67  CA         8.9010   18.0700  -57.5730 C.3    92  ILE92       0.1595
     68  C          9.1280   17.1620  -56.3450 C.2    92  ILE92       0.2287
     69  O          8.1950   16.5530  -55.8160 O.2    92  ILE92      -0.2864
     70  CB         9.3590   17.3600  -58.8550 C.3    92  ILE92       0.0276
     71  CG1        8.6590   17.9870  -60.0600 C.3    92  ILE92       0.0022
     72  CG2        9.0470   15.8820  -58.7960 C.3    92  ILE92       0.0022
     73  CD1        8.8830   17.2280  -61.3370 C.3    92  ILE92       0.0001
     74  N          7.2820   18.4260  -53.3990 N.3    95  ASP95      -0.1225
     75  CA         5.8730   18.1750  -53.6260 C.3    95  ASP95       0.1805
     76  C          5.4620   16.7220  -53.3360 C.2    95  ASP95       0.2597
     77  O          4.4690   16.4990  -52.6340 O.2    95  ASP95      -0.2718
     78  CB         5.4930   18.5340  -55.0530 C.3    95  ASP95       0.1424
     79  CG         4.0140   18.7250  -55.2050 C.2    95  ASP95       0.3668
     80  OD1        3.4110   19.4650  -54.3910 O.co2  95  ASP95      -0.2456
     81  OD2        3.4390   18.1150  -56.1150 O.co2  95  ASP95      -0.2456
     82  N          6.1920   15.7350  -53.8630 N.am   96  TYR96      -0.1976
     83  CA         5.8670   14.3460  -53.5050 C.3    96  TYR96       0.1639
     84  C          6.1700   14.0500  -52.0260 C.2    96  TYR96       0.2290
     85  O          5.3790   13.3680  -51.3660 O.2    96  TYR96      -0.2864
     86  CB         6.5990   13.3280  -54.3890 C.3    96  TYR96       0.0560
     87  CG         5.9710   13.1320  -55.7670 C.ar   96  TYR96      -0.0198
     88  CD1        6.3440   13.9310  -56.8380 C.ar   96  TYR96      -0.0009
     89  CD2        5.0230   12.1320  -55.9920 C.ar   96  TYR96      -0.0009
     90  CE1        5.7830   13.7530  -58.1130 C.ar   96  TYR96       0.0417
     91  CE2        4.4580   11.9490  -57.2470 C.ar   96  TYR96       0.0417
     92  CZ         4.8360   12.7710  -58.3050 C.ar   96  TYR96       0.1957
     93  OH         4.2720   12.5860  -59.5510 O.3    96  TYR96      -0.2866
     94  N          3.2900   15.6660  -49.8810 N.3    99  MET99      -0.1245
     95  CA         2.0250   14.9800  -50.0560 C.3    99  MET99       0.1570
     96  C          1.9940   13.7380  -49.1520 C.2    99  MET99       0.2261
     97  O          1.0230   13.4790  -48.4530 O.2    99  MET99      -0.2867
     98  CB         1.8180   14.5710  -51.5210 C.3    99  MET99       0.0387
     99  CG         0.6390   13.6370  -51.7280 C.3    99  MET99       0.0595
    100  SD         0.3880   13.2170  -53.4970 S.3    99  MET99      -0.1393
    101  CE        -1.2680   12.5870  -53.4780 C.3    99  MET99       0.0692
    102  N          8.4180   20.5300  -66.9370 N.3   165  CYS165     -0.1235
    103  CA         9.1090   19.9620  -65.7870 C.3   165  CYS165      0.1677
    104  C          8.4600   18.6020  -65.5740 C.2   165  CYS165      0.2270
    105  O          7.2930   18.5180  -65.2010 O.2   165  CYS165     -0.2867
    106  CB         8.9940   20.8570  -64.5500 C.3   165  CYS165      0.0956
    107  SG         9.7100   20.1280  -63.0170 S.3   165  CYS165     -0.0801
    108  N          2.2910    5.9250  -61.1070 N.3   181  LYS181     -0.1245
    109  CA         0.9460    6.4720  -60.9530 C.3   181  LYS181      0.1561
    110  C          0.0870    5.6010  -60.0510 C.2   181  LYS181      0.2260
    111  O         -0.6540    6.1040  -59.2000 O.2   181  LYS181     -0.2867
    112  CB         0.2740    6.6320  -62.3090 C.3   181  LYS181      0.0271
    113  CG         0.7820    7.8550  -63.0430 C.3   181  LYS181      0.0035
    114  CD         0.1690    7.9690  -64.4130 C.3   181  LYS181      0.0206
    115  CE         0.8090    9.1470  -65.1580 C.3   181  LYS181      0.1093
    116  NZ         0.3250    9.1890  -66.5770 N.3   181  LYS181     -0.1314
    117  N          1.2810    5.7820  -56.3770 N.3   184  VAL184     -0.1245
    118  CA         0.8660    7.0550  -55.8040 C.3   184  VAL184      0.1561
    119  C         -0.5920    6.9850  -55.4350 C.2   184  VAL184      0.2260
    120  O         -0.9830    7.3630  -54.3290 O.2   184  VAL184     -0.2867
    121  CB         1.0850    8.2260  -56.7570 C.3   184  VAL184      0.0252
    122  CG1        0.3350    9.4630  -56.2460 C.3   184  VAL184      0.0019
    123  CG2        2.5530    8.5060  -56.8800 C.3   184  VAL184      0.0019
    124  N         -9.0660   15.0510  -52.1200 N.3   241  TRP241     -0.1241
    125  CA        -8.0670   14.2110  -52.7650 C.3   241  TRP241      0.1605
    126  C         -8.5980   13.2750  -53.8580 C.2   241  TRP241      0.2264
    127  O         -7.8350   12.8530  -54.7370 O.2   241  TRP241     -0.2867
    128  CB        -7.3410   13.3790  -51.7030 C.3   241  TRP241      0.0550
    129  CG        -6.1680   14.0710  -51.0780 C.ar  241  TRP241      0.0003
    130  CD1       -5.9780   14.3540  -49.7470 C.ar  241  TRP241      0.0946
    131  CD2       -5.0040   14.5560  -51.7630 C.ar  241  TRP241      0.0152
    132  NE1       -4.7670   14.9900  -49.5730 N.ar  241  TRP241     -0.2442
    133  CE2       -4.1520   15.1200  -50.7940 C.ar  241  TRP241      0.0810
    134  CE3       -4.6060   14.5680  -53.1080 C.ar  241  TRP241      0.0012
    135  CZ2       -2.9230   15.6880  -51.1230 C.ar  241  TRP241      0.0191
    136  CZ3       -3.3870   15.1390  -53.4350 C.ar  241  TRP241      0.0001
    137  CH2       -2.5540   15.6800  -52.4450 C.ar  241  TRP241      0.0015
    138  N         -8.3930   14.8170  -57.9300 N.3   244  ILE244     -0.1231
    139  CA        -7.1240   14.8180  -58.6580 C.3   244  ILE244      0.1692
    140  C         -6.6480   13.3810  -58.8920 C.2   244  ILE244      0.2592
    141  O         -6.1600   13.0620  -59.9870 O.2   244  ILE244     -0.2718
    142  CB        -6.0140   15.6640  -57.9660 C.3   244  ILE244      0.0266
    143  CG1       -4.7760   15.7830  -58.8750 C.3   244  ILE244      0.0019
    144  CG2       -5.6310   15.1080  -56.5610 C.3   244  ILE244      0.0020
    145  CD1       -5.0890   16.2060  -60.3310 C.3   244  ILE244      0.0001
    146  N         -6.8420   12.4950  -57.9150 N.am  245  HIS245     -0.1976
    147  CA        -6.3970   11.1120  -58.1160 C.3   245  HIS245      0.1656
    148  C         -7.1220   10.4100  -59.2500 C.2   245  HIS245      0.2291
    149  O         -6.5030    9.6710  -60.0050 O.2   245  HIS245     -0.2864
    150  CB        -6.5240   10.3030  -56.8310 C.3   245  HIS245      0.0771
    151  CG        -5.3510   10.4850  -55.9250 C.ar  245  HIS245      0.0820
    152  ND1       -4.0930   10.0190  -56.2440 N.ar  245  HIS245     -0.2267
    153  CD2       -5.2230   11.1370  -54.7450 C.ar  245  HIS245      0.1154
    154  CE1       -3.2450   10.3590  -55.2910 C.ar  245  HIS245      0.1986
    155  NE2       -3.9090   11.0290  -54.3650 N.ar  245  HIS245     -0.2212
    156  N         -6.0100   11.9260  -62.7330 N.3   248  VAL248     -0.1245
    157  CA        -4.7120   11.4060  -63.1430 C.3   248  VAL248      0.1561
    158  C         -4.8560    9.9950  -63.7450 C.2   248  VAL248      0.2260
    159  O         -4.3110    9.7090  -64.8130 O.2   248  VAL248     -0.2867
    160  CB        -3.7160   11.4080  -61.9440 C.3   248  VAL248      0.0252
    161  CG1       -2.4970   10.5510  -62.2250 C.3   248  VAL248      0.0019
    162  CG2       -3.2790   12.8270  -61.6310 C.3   248  VAL248      0.0019
    163  N         -6.5590   10.1630  -67.1980 N.3   251  LYS251     -0.1245
    164  CA        -5.6870   10.6640  -68.2610 C.3   251  LYS251      0.1561
    165  C         -4.6480    9.6170  -68.6230 C.2   251  LYS251      0.2260
    166  O         -4.1010    9.6400  -69.7210 O.2   251  LYS251     -0.2867
    167  CB        -5.0040   11.9810  -67.8750 C.3   251  LYS251      0.0271
    168  CG        -5.9490   13.1730  -67.8940 C.3   251  LYS251      0.0035
    169  CD        -5.2740   14.4600  -68.3640 C.3   251  LYS251      0.0206
    170  CE        -4.2100   14.9490  -67.4020 C.3   251  LYS251      0.1093
    171  NZ        -2.9670   14.1290  -67.4790 N.3   251  LYS251     -0.1314
    172  N         -9.1210   20.5810  -64.4700 N.3   266  TRP266     -0.1241
    173  CA        -7.8350   19.9980  -64.0830 C.3   266  TRP266      0.1605
    174  C         -7.1490   20.8100  -62.9840 C.2   266  TRP266      0.2264
    175  O         -6.6820   20.2680  -61.9760 O.2   266  TRP266     -0.2867
    176  CB        -6.9220   19.9030  -65.2950 C.3   266  TRP266      0.0550
    177  CG        -5.4980   19.5270  -65.0100 C.ar  266  TRP266      0.0003
    178  CD1       -4.4060   20.3340  -65.1130 C.ar  266  TRP266      0.0946
    179  CD2       -5.0060   18.2380  -64.6170 C.ar  266  TRP266      0.0152
    180  NE1       -3.2700   19.6320  -64.8200 N.ar  266  TRP266     -0.2442
    181  CE2       -3.6110   18.3430  -64.5050 C.ar  266  TRP266      0.0810
    182  CE3       -5.6140   17.0020  -64.3610 C.ar  266  TRP266      0.0012
    183  CZ2       -2.8060   17.2630  -64.1280 C.ar  266  TRP266      0.0191
    184  CZ3       -4.8190   15.9340  -63.9930 C.ar  266  TRP266      0.0001
    185  CH2       -3.4290   16.0690  -63.8850 C.ar  266  TRP266      0.0015
    186  N         -6.4150   19.9020  -59.0490 N.3   270  ILE270     -0.1245
    187  CA        -5.1000   20.1050  -58.4550 C.3   270  ILE270      0.1561
    188  C         -5.2280   20.9570  -57.1830 C.2   270  ILE270      0.2260
    189  O         -4.6740   20.6330  -56.1250 O.2   270  ILE270     -0.2867
    190  CB        -4.1350   20.7920  -59.4450 C.3   270  ILE270      0.0252
    191  CG1       -3.7400   19.8270  -60.5630 C.3   270  ILE270      0.0019
    192  CG2       -2.8870   21.2870  -58.7290 C.3   270  ILE270      0.0019
    193  CD1       -2.9260   20.4840  -61.6490 C.3   270  ILE270      0.0001
    194  N         -4.4790   20.6010  -52.6980 N.3   274  TYR274     -0.1241
    195  CA        -3.7050   21.4480  -51.8050 C.3   274  TYR274      0.1605
    196  C         -4.5870   22.0800  -50.7330 C.2   274  TYR274      0.2264
    197  O         -4.0770   22.5390  -49.7100 O.2   274  TYR274     -0.2867
    198  CB        -2.9400   22.5230  -52.6040 C.3   274  TYR274      0.0534
    199  CG        -1.8270   21.8830  -53.4040 C.ar  274  TYR274     -0.0201
    200  CD1       -0.5910   21.6020  -52.8230 C.ar  274  TYR274     -0.0009
    201  CD2       -2.0290   21.5060  -54.7180 C.ar  274  TYR274     -0.0009
    202  CE1        0.4130   20.9770  -53.5550 C.ar  274  TYR274      0.0417
    203  CE2       -1.0370   20.8990  -55.4540 C.ar  274  TYR274      0.0417
    204  CZ         0.1740   20.6280  -54.8810 C.ar  274  TYR274      0.1957
    205  OH         1.1450   20.0030  -55.6400 O.3   274  TYR274     -0.2866
@<TRIPOS>BOND
     1     5     6    1
     2     5     2    1
     3     1     2    1
     4     2     3    1
     5   166   165    2
     6   165   164    1
     7     3     4    2
     8     3     7   am
     9   169   168    1
    10   169   170    1
    11   164   167    1
    12   164   163    1
    13   168   167    1
    14     7     8    1
    15    45    46    1
    16    48    47    2
    17   171   170    1
    18   102   103    1
    19    40    39    2
    20    47    46    1
    21    46    49    1
    22   116   115    1
    23    19    20    2
    24    19    18    1
    25     8     9    1
    26     8    11    1
    27    49    50    1
    28     9    10    2
    29     9    17   am
    30    43    42    2
    31   103   104    1
    32   103   106    1
    33    11    12    1
    34    17    18    1
    35    39    38    1
    36   104   105    2
    37    22    21    1
    38   176   177    1
    39   176   173    1
    40    18    21    1
    41    44    42   am
    42    42    41    1
    43   115   114    1
    44   178   177   ar
    45   178   180   ar
    46   177   179   ar
    47    50    51   ar
    48    50    52   ar
    49    51    53   ar
    50   180   181   ar
    51    38    41    1
    52    38    37    1
    53   159   158    2
    54   179   181   ar
    55   179   182   ar
    56   106   107    1
    57   181   183   ar
    58   172   173    1
    59   114   113    1
    60   182   184   ar
    61    12    13   ar
    62    12    14   ar
    63   183   185   ar
    64   173   174    1
    65   184   185   ar
    66    13    15   ar
    67   158   157    1
    68    52    55   ar
    69    52    54   ar
    70    53    54   ar
    71    14    16   ar
    72   157   156    1
    73   157   160    1
    74    55    57   ar
    75   113   112    1
    76   174   175    2
    77    54    56   ar
    78    15    16   ar
    79   112   109    1
    80   161   160    1
    81    31    30    2
    82   160   162    1
    83    57    58   ar
    84   193   191    1
    85    56    58   ar
    86    73    71    1
    87   108   109    1
    88    30    29    1
    89   109   110    1
    90   191   190    1
    91   145   143    1
    92    29    32    1
    93    29    28    1
    94    71    70    1
    95   110   111    2
    96   149   148    2
    97   141   140    2
    98    93    92    1
    99    32    33    1
   100   190   192    1
   101   190   187    1
   102   148   147    1
   103    35    34    2
   104    33    34    1
   105   186   187    1
   106   140   139    1
   107   140   146   am
   108   143   142    1
   109    70    72    1
   110    70    67    1
   111   139   142    1
   112   139   138    1
   113    34    36   am
   114   187   188    1
   115    92    90   ar
   116    92    91   ar
   117   147   146    1
   118   147   150    1
   119    90    88   ar
   120   142   144    1
   121    67    66    1
   122    67    68    1
   123    66    61   am
   124    91    89   ar
   125   188   189    2
   126    63    64    1
   127    63    65    1
   128    63    60    1
   129   123   121    1
   130    88    87   ar
   131   150   151    1
   132   121   122    1
   133   121   118    1
   134    59    60    1
   135    61    60    1
   136    61    62    2
   137   117   118    1
   138    68    69    2
   139   152   151   ar
   140   152   154   ar
   141    81    79   ar
   142    89    87   ar
   143   151   153   ar
   144   118   119    1
   145    87    86    1
   146   205   204    1
   147   203   204   ar
   148   203   201   ar
   149   119   120    2
   150   154   155   ar
   151    79    78    1
   152    79    80   ar
   153    78    75    1
   154   204   202   ar
   155   153   155   ar
   156   127   126    2
   157   201   199   ar
   158    86    83    1
   159    82    83    1
   160    82    76   am
   161   126   125    1
   162    75    74    1
   163    75    76    1
   164   202   200   ar
   165    83    84    1
   166   100   101    1
   167   100    99    1
   168   136   134   ar
   169   136   137   ar
   170   199   200   ar
   171   199   198    1
   172    76    77    2
   173   134   131   ar
   174   125   124    1
   175   125   128    1
   176   194   195    1
   177   198   195    1
   178   137   135   ar
   179    84    85    2
   180    26    25    2
   181   195   196    1
   182   131   129   ar
   183   131   133   ar
   184    99    98    1
   185   128   129    1
   186    98    95    1
   187   135   133   ar
   188   129   130   ar
   189   133   132   ar
   190   196   197    2
   191    25    24    1
   192    95    94    1
   193    95    96    1
   194    24    27    1
   195    24    23    1
   196   130   132   ar
   197    96    97    2
