@<TRIPOS>MOLECULE
tmp/5c1oB00.pdb
 158 149 0 0 0
SMALL
GASTEIGER

@<TRIPOS>ATOM
      1  N         -1.9890   -6.5830   27.6920 N.3    97  LYS97      -0.1245
      2  CA        -2.5610   -7.7820   28.2560 C.3    97  LYS97       0.1561
      3  C         -1.7840   -9.0080   27.8450 C.2    97  LYS97       0.2260
      4  O         -1.6260   -9.9090   28.6320 O.2    97  LYS97      -0.2867
      5  CB        -4.0290   -7.9450   27.8930 C.3    97  LYS97       0.0271
      6  CG        -4.9030   -6.8560   28.4530 C.3    97  LYS97       0.0035
      7  CD        -6.3190   -7.0150   27.9100 C.3    97  LYS97       0.0206
      8  CE        -7.1120   -5.7390   28.0680 C.3    97  LYS97       0.1093
      9  NZ        -7.2840   -5.4920   29.5340 N.3    97  LYS97      -0.1314
     10  N         -6.4110  -17.6150   32.4560 N.3   112  SER112     -0.1217
     11  CA        -7.3700  -18.3330   31.6840 C.3   112  SER112      0.1889
     12  C         -6.6740  -18.8910   30.4370 C.2   112  SER112      0.2288
     13  O         -5.7430  -18.2840   29.9500 O.2   112  SER112     -0.2866
     14  CB        -8.5370  -17.3760   31.3470 C.3   112  SER112      0.2089
     15  OG        -9.5550  -18.0320   30.6080 O.3   112  SER112     -0.2183
     16  N        -14.0570  -15.0210   24.8250 N.3   142  ILE142     -0.1245
     17  CA       -13.9170  -13.5780   24.9480 C.3   142  ILE142      0.1561
     18  C        -12.8360  -13.1300   24.0110 C.2   142  ILE142      0.2260
     19  O        -11.7760  -13.7190   23.9610 O.2   142  ILE142     -0.2867
     20  CB       -13.5430  -13.1410   26.3380 C.3   142  ILE142      0.0252
     21  CG1      -14.6630  -13.4800   27.3280 C.3   142  ILE142      0.0019
     22  CG2      -13.3240  -11.6430   26.3650 C.3   142  ILE142      0.0019
     23  CD1      -15.9310  -12.6330   27.2590 C.3   142  ILE142      0.0001
     24  N        -10.6400   -9.7960   22.8170 N.3   144  LYS144     -0.1231
     25  CA       -10.1860   -8.4480   23.1900 C.3   144  LYS144      0.1678
     26  C         -8.9600   -8.0480   22.4180 C.2   144  LYS144      0.2434
     27  O         -8.0750   -8.8770   22.1310 O.2   144  LYS144     -0.2733
     28  CB        -9.9110   -8.3380   24.6870 C.3   144  LYS144      0.0284
     29  CG        -9.4960   -9.6430   25.2900 C.3   144  LYS144      0.0035
     30  CD        -9.1690   -9.5300   26.7510 C.3   144  LYS144      0.0206
     31  CE       -10.3610   -9.7110   27.6490 C.3   144  LYS144      0.1093
     32  NZ        -9.9870  -10.4450   28.9010 N.3   144  LYS144     -0.1314
     33  N         -8.8960   -6.7700   22.0430 N.am  145  PRO145     -0.2729
     34  CA        -7.5770   -6.2730   21.6210 C.3   145  PRO145      0.1401
     35  C         -6.5770   -6.4370   22.7780 C.2   145  PRO145      0.2269
     36  O         -6.9780   -6.4390   23.9400 O.2   145  PRO145     -0.2865
     37  CB        -7.8280   -4.7900   21.3490 C.3   145  PRO145      0.0296
     38  CG        -9.0080   -4.4490   22.1950 C.3   145  PRO145      0.0237
     39  CD        -9.8670   -5.6830   22.2540 C.3   145  PRO145      0.0939
     40  N         -5.0640   -2.3510   26.4750 N.3   148  GLU148     -0.1245
     41  CA        -5.9060   -1.5180   27.3340 C.3   148  GLU148      0.1567
     42  C         -5.7300   -0.0640   26.9060 C.2   148  GLU148      0.2260
     43  O         -6.5320    0.4440   26.1320 O.2   148  GLU148     -0.2867
     44  CB        -5.5190   -1.7270   28.8260 C.3   148  GLU148      0.0388
     45  CG        -6.4010   -1.0520   29.9020 C.3   148  GLU148      0.1160
     46  CD        -7.3060   -2.0140   30.7080 C.2   148  GLU148      0.3649
     47  OE1       -7.3760   -3.2200   30.4050 O.co2 148  GLU148     -0.2457
     48  OE2       -7.9930   -1.6030   31.6720 O.co2 148  GLU148     -0.2457
     49  N        -13.6110   -1.5180   27.4050 N.3   149  SER149     -0.1202
     50  CA       -14.0750   -2.7450   26.7390 C.3   149  SER149      0.2020
     51  C        -14.2570   -2.4980   25.2400 C.2   149  SER149      0.2618
     52  O        -15.0500   -3.1660   24.5660 O.2   149  SER149     -0.2717
     53  CB       -15.3720   -3.2750   27.3870 C.3   149  SER149      0.2103
     54  OG       -15.0980   -3.9590   28.6080 O.3   149  SER149     -0.2182
     55  N        -13.4800   -1.5410   24.7390 N.am  150  VAL150     -0.1979
     56  CA       -13.4930   -1.1430   23.3350 C.3   150  VAL150      0.1595
     57  C        -12.9740   -2.3210   22.5100 C.2   150  VAL150      0.2287
     58  O        -11.8620   -2.8250   22.7800 O.2   150  VAL150     -0.2864
     59  CB       -12.5690    0.0900   23.1010 C.3   150  VAL150      0.0276
     60  CG1      -12.6150    0.5670   21.6460 C.3   150  VAL150      0.0022
     61  CG2      -12.9180    1.2270   24.0640 C.3   150  VAL150      0.0022
     62  N        -14.1710   -5.3540   22.4580 N.3   152  MET152     -0.1245
     63  CA       -14.3020   -6.6020   23.1950 C.3   152  MET152      0.1570
     64  C        -15.6450   -7.2880   22.8600 C.2   152  MET152      0.2261
     65  O        -16.6890   -6.6310   22.8540 O.2   152  MET152     -0.2867
     66  CB       -14.2070   -6.3290   24.7000 C.3   152  MET152      0.0387
     67  CG       -13.5490   -7.4540   25.4700 C.3   152  MET152      0.0595
     68  SD       -13.6120   -7.3180   27.2740 S.3   152  MET152     -0.1393
     69  CE       -15.3620   -7.6790   27.5590 C.3   152  MET152      0.0692
     70  N         -9.8230  -15.6080   24.5980 N.3   178  GLU178     -0.1231
     71  CA        -9.7570  -16.3330   25.8510 C.3   178  GLU178      0.1699
     72  C        -10.9740  -17.2230   26.1800 C.2   178  GLU178      0.2592
     73  O        -12.1000  -16.9000   25.8620 O.2   178  GLU178     -0.2718
     74  CB        -9.6860  -15.3190   26.9800 C.3   178  GLU178      0.0402
     75  CG        -8.4300  -14.5030   27.0890 C.3   178  GLU178      0.1161
     76  CD        -8.5630  -13.4540   28.1940 C.2   178  GLU178      0.3649
     77  OE1       -8.0050  -12.3500   28.0320 O.co2 178  GLU178     -0.2457
     78  OE2       -9.2520  -13.7140   29.2230 O.co2 178  GLU178     -0.2457
     79  N        -10.7360  -18.2720   26.9500 N.am  179  LYS179     -0.1966
     80  CA       -11.8310  -19.0270   27.5650 C.3   179  LYS179      0.1728
     81  C        -12.6420  -18.1840   28.5140 C.2   179  LYS179      0.2616
     82  O        -12.0740  -17.5800   29.4300 O.2   179  LYS179     -0.2715
     83  CB       -11.2890  -20.2220   28.3130 C.3   179  LYS179      0.0311
     84  CG       -12.2920  -20.9230   29.1890 C.3   179  LYS179      0.0038
     85  CD       -11.7530  -22.2360   29.7740 C.3   179  LYS179      0.0206
     86  CE       -12.7190  -22.7120   30.8660 C.3   179  LYS179      0.1093
     87  NZ       -12.2740  -23.8130   31.7710 N.3   179  LYS179     -0.1314
     88  N        -13.9570  -18.1390   28.2880 N.am  180  TRP180     -0.1960
     89  CA       -14.9010  -17.4790   29.2060 C.3   180  TRP180      0.1771
     90  C        -14.9790  -18.1580   30.5590 C.2   180  TRP180      0.2619
     91  O        -14.9410  -19.3640   30.6360 O.2   180  TRP180     -0.2715
     92  CB       -16.2920  -17.4880   28.5900 C.3   180  TRP180      0.0590
     93  CG       -17.3070  -16.7420   29.3520 C.ar  180  TRP180      0.0006
     94  CD1      -17.5050  -15.4170   29.3300 C.ar  180  TRP180      0.0946
     95  CD2      -18.2790  -17.2810   30.2560 C.ar  180  TRP180      0.0152
     96  NE1      -18.5380  -15.0660   30.1720 N.ar  180  TRP180     -0.2442
     97  CE2      -19.0380  -16.1940   30.7480 C.ar  180  TRP180      0.0810
     98  CE3      -18.5670  -18.5640   30.7050 C.ar  180  TRP180      0.0012
     99  CZ2      -20.0840  -16.3470   31.6520 C.ar  180  TRP180      0.0191
    100  CZ3      -19.6210  -18.7270   31.6070 C.ar  180  TRP180      0.0001
    101  CH2      -20.3510  -17.6210   32.0880 C.ar  180  TRP180      0.0015
    102  N        -15.1300  -17.3730   31.6220 N.am  181  LEU181     -0.1977
    103  CA       -15.1860  -17.8770   32.9920 C.3   181  LEU181      0.1596
    104  C        -16.4870  -17.4320   33.6410 C.2   181  LEU181      0.2287
    105  O        -16.9780  -16.3280   33.3890 O.2   181  LEU181     -0.2864
    106  CB       -14.0290  -17.3340   33.8650 C.3   181  LEU181      0.0297
    107  CG       -12.5830  -17.6120   33.4830 C.3   181  LEU181      0.0022
    108  CD1      -11.6630  -16.8570   34.4260 C.3   181  LEU181      0.0001
    109  CD2      -12.2580  -19.0790   33.5000 C.3   181  LEU181      0.0001
    110  N        -16.4320  -12.2530   40.1150 N.3   185  GLU185     -0.1245
    111  CA       -15.2920  -11.4260   39.8890 C.3   185  GLU185      0.1567
    112  C        -14.8430  -10.8070   41.2070 C.2   185  GLU185      0.2260
    113  O        -15.6540  -10.5290   42.0820 O.2   185  GLU185     -0.2867
    114  CB       -15.7130  -10.3610   38.9190 C.3   185  GLU185      0.0388
    115  CG       -14.6020   -9.7580   38.1450 C.3   185  GLU185      0.1160
    116  CD       -15.1010   -8.8790   37.0220 C.2   185  GLU185      0.3649
    117  OE1      -16.3020   -9.0140   36.6270 O.co2 185  GLU185     -0.2457
    118  OE2      -14.2760   -8.0500   36.5450 O.co2 185  GLU185     -0.2457
    119  N        -21.7950   -8.2040   38.2820 N.3   203  PRO203     -0.2116
    120  CA       -22.3730   -7.2710   37.3110 C.3   203  PRO203      0.1372
    121  C        -23.7510   -7.7820   36.7820 C.2   203  PRO203      0.2244
    122  O        -24.2110   -8.8530   37.2070 O.2   203  PRO203     -0.2868
    123  CB       -21.2810   -7.1910   36.2080 C.3   203  PRO203      0.0268
    124  CG       -20.2380   -8.2340   36.5470 C.3   203  PRO203      0.0207
    125  CD       -20.8010   -9.0950   37.6460 C.3   203  PRO203      0.0892
    126  N         -7.2770   -7.4700   39.6480 N.3   241  ASP241     -0.1239
    127  CA        -8.5780   -8.0800   39.2620 C.3   241  ASP241      0.1674
    128  C         -8.5110   -9.5360   38.9690 C.2   241  ASP241      0.2266
    129  O         -7.6310   -9.9820   38.2290 O.2   241  ASP241     -0.2867
    130  CB        -9.1680   -7.3670   38.0680 C.3   241  ASP241      0.1410
    131  CG        -9.4920   -5.9000   38.3940 C.2   241  ASP241      0.3668
    132  OD1       -9.5250   -5.5830   39.6320 O.co2 241  ASP241     -0.2456
    133  OD2       -9.6470   -5.0610   37.4430 O.co2 241  ASP241     -0.2456
    134  N        -10.9200  -13.4800   38.6370 N.3   243  MET243     -0.1245
    135  CA       -12.1640  -14.1620   38.3540 C.3   243  MET243      0.1570
    136  C        -12.0720  -15.5550   38.8910 C.2   243  MET243      0.2261
    137  O        -10.9820  -16.0980   38.9370 O.2   243  MET243     -0.2867
    138  CB       -12.3650  -14.3050   36.8620 C.3   243  MET243      0.0387
    139  CG       -12.8570  -13.0610   36.2130 C.3   243  MET243      0.0595
    140  SD       -13.8760  -13.3480   34.7610 S.3   243  MET243     -0.1393
    141  CE       -15.4820  -13.4220   35.5640 C.3   243  MET243      0.0692
    142  N         -6.8330  -11.5020   35.9590 N.3   253  LEU253     -0.1231
    143  CA        -7.2040  -10.6910   34.7830 C.3   253  LEU253      0.1693
    144  C         -6.2540   -9.5130   34.4470 C.2   253  LEU253      0.2591
    145  O         -5.7410   -9.4300   33.3500 O.2   253  LEU253     -0.2718
    146  CB        -8.6000  -10.0810   35.0210 C.3   253  LEU253      0.0284
    147  CG        -9.8140  -11.0140   35.1450 C.3   253  LEU253      0.0019
    148  CD1      -11.1460  -10.2570   35.2200 C.3   253  LEU253      0.0001
    149  CD2       -9.8280  -11.9360   33.9370 C.3   253  LEU253      0.0001
    150  N         -6.0730   -8.5740   35.3710 N.am  254  GLU254     -0.1979
    151  CA        -5.2590   -7.3890   35.1290 C.3   254  GLU254      0.1602
    152  C         -4.8720   -6.7100   36.4120 C.2   254  GLU254      0.2287
    153  O         -5.4480   -6.9790   37.4560 O.2   254  GLU254     -0.2864
    154  CB        -5.9670   -6.3680   34.2240 C.3   254  GLU254      0.0415
    155  CG        -7.2630   -5.7230   34.7690 C.3   254  GLU254      0.1163
    156  CD        -7.8940   -4.7130   33.7750 C.2   254  GLU254      0.3649
    157  OE1       -7.2270   -4.3680   32.7730 O.co2 254  GLU254     -0.2457
    158  OE2       -9.0490   -4.2510   33.9440 O.co2 254  GLU254     -0.2457
@<TRIPOS>BOND
     1    37    34    1
     2    37    38    1
     3    34    33    1
     4    34    35    1
     5    60    59    1
     6    33    39    1
     7    33    26   am
     8    27    26    2
     9    38    39    1
    10    26    25    1
    11    62    63    1
    12    57    58    2
    13    57    56    1
    14    35    36    2
    15    24    25    1
    16    65    64    2
    17    64    63    1
    18    59    56    1
    19    59    61    1
    20    25    28    1
    21    63    66    1
    22    56    55    1
    23    19    18    2
    24    18    17    1
    25    52    51    2
    26    70    71    1
    27    28    29    1
    28    66    67    1
    29    55    51   am
    30    16    17    1
    31    17    20    1
    32    51    50    1
    33    29    30    1
    34    67    68    1
    35    71    72    1
    36    71    74    1
    37    73    72    2
    38    43    42    2
    39    72    79   am
    40    20    22    1
    41    20    21    1
    42    40    41    1
    43    50    53    1
    44    50    49    1
    45    30    31    1
    46    42    41    1
    47    79    80    1
    48    74    75    1
    49    75    76    1
    50    23    21    1
    51    68    69    1
    52    41    44    1
    53    53    54    1
    54    80    83    1
    55    80    81    1
    56    31    32    1
    57     1     2    1
    58     3     2    1
    59     3     4    2
    60     5     2    1
    61     5     6    1
    62     7     8    1
    63     7     6    1
    64    77    76   ar
    65     8     9    1
    66    76    78   ar
    67    88    81   am
    68    88    89    1
    69    83    84    1
    70    81    82    2
    71    92    89    1
    72    92    93    1
    73    44    45    1
    74    84    85    1
    75    89    90    1
    76    94    93   ar
    77    94    96   ar
    78    93    95   ar
    79    85    86    1
    80    45    46    1
    81    13    12    2
    82    96    97   ar
    83    95    98   ar
    84    95    97   ar
    85    47    46   ar
    86    12    11    1
    87    90    91    2
    88    90   102   am
    89    15    14    1
    90    98   100   ar
    91    46    48   ar
    92    97    99   ar
    93    86    87    1
    94    14    11    1
    95   100   101   ar
    96   102   103    1
    97    99   101   ar
    98    11    10    1
    99   157   156   ar
   100   103   104    1
   101   103   106    1
   102   145   144    2
   103   105   104    2
   104   107   109    1
   105   107   106    1
   106   107   108    1
   107   156   158   ar
   108   156   155    1
   109   149   147    1
   110   154   155    1
   111   154   151    1
   112   144   143    1
   113   144   150   am
   114   140   141    1
   115   140   139    1
   116   143   146    1
   117   143   142    1
   118   146   147    1
   119   151   150    1
   120   151   152    1
   121   147   148    1
   122   123   124    1
   123   123   120    1
   124   139   138    1
   125   152   153    2
   126   118   116   ar
   127   124   125    1
   128   117   116   ar
   129   121   122    2
   130   121   120    1
   131   138   135    1
   132   116   115    1
   133   120   119    1
   134   133   131   ar
   135   125   119    1
   136   130   131    1
   137   130   127    1
   138   115   114    1
   139   129   128    2
   140   135   134    1
   141   135   136    1
   142   131   132   ar
   143   136   137    2
   144   114   111    1
   145   128   127    1
   146   127   126    1
   147   111   110    1
   148   111   112    1
   149   112   113    2
