@<TRIPOS>MOLECULE
tmp/5c1qA00.pdb
 141 131 0 0 0
SMALL
GASTEIGER

@<TRIPOS>ATOM
      1  N        -17.3130  -39.0450   -1.3100 N.3    12  LEU12      -0.1231
      2  CA       -18.6570  -38.6220   -1.7600 C.3    12  LEU12       0.1696
      3  C        -18.7850  -37.2050   -2.3020 C.2    12  LEU12       0.2632
      4  O        -19.8030  -36.8860   -2.8950 O.2    12  LEU12      -0.2714
      5  CB       -19.6430  -38.6830   -0.6030 C.3    12  LEU12       0.0284
      6  CG       -19.6490  -39.9290    0.2420 C.3    12  LEU12       0.0019
      7  CD1      -20.8260  -39.8730    1.2220 C.3    12  LEU12       0.0001
      8  CD2      -19.6920  -41.1440   -0.6780 C.3    12  LEU12       0.0001
      9  N        -17.8250  -36.3280   -2.0320 N.am   13  GLY13      -0.1718
     10  CA       -18.0180  -34.9190   -2.3510 C.2    13  GLY13       0.1480
     11  C        -16.8700  -34.0020   -1.9800 C.2    13  GLY13       0.2821
     12  O        -16.1010  -34.2830   -1.0620 O.2    13  GLY13      -0.2669
     13  N        -16.8080  -32.8880   -2.6970 N.am   14  SER14      -0.1915
     14  CA       -15.7000  -31.9610   -2.6710 C.3    14  SER14       0.1927
     15  C        -16.2640  -30.5880   -3.0210 C.2    14  SER14       0.2314
     16  O        -17.2740  -30.5050   -3.7260 O.2    14  SER14      -0.2863
     17  CB       -14.6590  -32.3850   -3.7120 C.3    14  SER14       0.2116
     18  OG       -13.5760  -31.4690   -3.7580 O.3    14  SER14      -0.2180
     19  N        -16.8530  -25.8820    0.5410 N.3    17  PHE17      -0.1241
     20  CA       -16.9590  -26.4160    1.9170 C.3    17  PHE17       0.1605
     21  C        -15.7560  -27.2720    2.3770 C.2    17  PHE17       0.2264
     22  O        -15.1580  -27.0020    3.4210 O.2    17  PHE17      -0.2867
     23  CB       -18.2970  -27.1760    2.1360 C.3    17  PHE17       0.0534
     24  CG       -18.5900  -28.2590    1.1090 C.ar   17  PHE17      -0.0203
     25  CD1      -18.1730  -29.5800    1.3180 C.ar   17  PHE17      -0.0042
     26  CD2      -19.3190  -27.9670   -0.0570 C.ar   17  PHE17      -0.0042
     27  CE1      -18.4460  -30.5710    0.3770 C.ar   17  PHE17      -0.0003
     28  CE2      -19.5940  -28.9560   -0.9940 C.ar   17  PHE17      -0.0003
     29  CZ       -19.1570  -30.2590   -0.7760 C.ar   17  PHE17      -0.0000
     30  N        -15.7400  -34.8650    1.5610 N.3    20  VAL20      -0.1245
     31  CA       -16.5680  -35.7170    2.3930 C.3    20  VAL20       0.1561
     32  C        -16.4380  -37.1700    1.9310 C.2    20  VAL20       0.2260
     33  O        -16.7100  -37.4560    0.7620 O.2    20  VAL20      -0.2867
     34  CB       -18.0460  -35.2460    2.3420 C.3    20  VAL20       0.0252
     35  CG1      -18.9270  -36.0760    3.2810 C.3    20  VAL20       0.0019
     36  CG2      -18.1410  -33.7560    2.6810 C.3    20  VAL20       0.0019
     37  N        -20.2650  -40.4610    7.7180 N.3    33  ALA33      -0.1245
     38  CA       -19.6770  -39.6090    6.7090 C.3    33  ALA33       0.1562
     39  C        -18.5700  -38.8200    7.3730 C.2    33  ALA33       0.2260
     40  O        -18.7300  -38.4010    8.5110 O.2    33  ALA33      -0.2867
     41  CB       -20.7470  -38.6860    6.1390 C.3    33  ALA33       0.0290
     42  N        -16.3130  -35.5360    7.0780 N.3    35  LYS35      -0.1245
     43  CA       -16.1250  -34.2490    6.4270 C.3    35  LYS35       0.1561
     44  C        -14.8620  -33.5760    6.9360 C.2    35  LYS35       0.2260
     45  O        -14.6920  -33.3710    8.1380 O.2    35  LYS35      -0.2867
     46  CB       -17.3360  -33.3450    6.6680 C.3    35  LYS35       0.0271
     47  CG       -17.0850  -31.8770    6.3650 C.3    35  LYS35       0.0035
     48  CD       -18.1280  -30.9900    7.0250 C.3    35  LYS35       0.0206
     49  CE       -19.0940  -30.4170    6.0010 C.3    35  LYS35       0.1093
     50  NZ       -20.5000  -30.4370    6.4920 N.3    35  LYS35      -0.1314
     51  N        -29.1960  -34.4450   10.0000 N.3    72  ILE72      -0.1245
     52  CA       -28.0320  -35.3250   10.0460 C.3    72  ILE72       0.1561
     53  C        -27.2560  -34.9240   11.2780 C.2    72  ILE72       0.2260
     54  O        -26.8390  -33.7680   11.3980 O.2    72  ILE72      -0.2867
     55  CB       -27.1180  -35.2420    8.7890 C.3    72  ILE72       0.0252
     56  CG1      -27.7540  -35.9460    7.5870 C.3    72  ILE72       0.0019
     57  CG2      -25.7550  -35.8890    9.0310 C.3    72  ILE72       0.0019
     58  CD1      -28.1100  -37.3990    7.7910 C.3    72  ILE72       0.0001
     59  N        -20.3490  -37.6970   10.8230 N.3    88  LEU88      -0.1231
     60  CA       -21.7940  -37.4730   10.7320 C.3    88  LEU88       0.1693
     61  C        -22.5420  -38.7960   10.5380 C.2    88  LEU88       0.2592
     62  O        -21.9180  -39.8200   10.2960 O.2    88  LEU88      -0.2718
     63  CB       -22.0510  -36.5260    9.5590 C.3    88  LEU88       0.0284
     64  CG       -21.3150  -35.1850    9.7110 C.3    88  LEU88       0.0019
     65  CD1      -21.1900  -34.4800    8.3860 C.3    88  LEU88       0.0001
     66  CD2      -22.0600  -34.3000   10.6840 C.3    88  LEU88       0.0001
     67  N        -23.8680  -38.7840   10.6580 N.am   89  GLU89      -0.1966
     68  CA       -24.6810  -39.9410   10.2360 C.3    89  GLU89       0.1733
     69  C        -24.5270  -40.1190    8.7410 C.2    89  GLU89       0.2616
     70  O        -24.5450  -39.1180    8.0010 O.2    89  GLU89      -0.2715
     71  CB       -26.1780  -39.7490   10.5020 C.3    89  GLU89       0.0429
     72  CG       -26.5910  -39.7410   11.9580 C.3    89  GLU89       0.1163
     73  CD       -28.1020  -39.8420   12.1580 C.2    89  GLU89       0.3649
     74  OE1      -28.8900  -39.1460   11.4910 O.co2  89  GLU89      -0.2457
     75  OE2      -28.5130  -40.6220   13.0320 O.co2  89  GLU89      -0.2457
     76  N        -24.3510  -41.3760    8.3180 N.am   90  ARG90      -0.1964
     77  CA       -24.6210  -41.7650    6.9310 C.3    90  ARG90       0.1714
     78  C        -25.7520  -42.7760    6.8640 C.2    90  ARG90       0.2458
     79  O        -25.6350  -43.9080    7.3740 O.2    90  ARG90      -0.2730
     80  CB       -23.4130  -42.3050    6.1940 C.3    90  ARG90       0.0347
     81  CG       -23.7510  -42.6920    4.7500 C.3    90  ARG90       0.0492
     82  CD       -22.4920  -42.8620    3.9230 C.3    90  ARG90       0.2205
     83  NE       -21.5920  -43.7980    4.5950 N.pl3  90  ARG90      -0.0865
     84  CZ       -21.7050  -45.1260    4.5940 C.cat  90  ARG90       0.5346
     85  NH1      -22.6770  -45.7480    3.9250 N.pl3  90  ARG90       0.1354
     86  NH2      -20.8230  -45.8430    5.2810 N.pl3  90  ARG90       0.1354
     87  N        -26.8710  -42.3550    6.2560 N.am   91  PRO91      -0.2727
     88  CA       -27.9180  -43.3160    5.9360 C.3    91  PRO91       0.1402
     89  C        -27.6150  -44.0810    4.6360 C.2    91  PRO91       0.2269
     90  O        -26.8020  -43.6470    3.7810 O.2    91  PRO91      -0.2865
     91  CB       -29.1780  -42.4440    5.8120 C.3    91  PRO91       0.0296
     92  CG       -28.8110  -41.1090    6.3700 C.3    91  PRO91       0.0237
     93  CD       -27.3500  -40.9660    6.1170 C.3    91  PRO91       0.0939
     94  N        -29.1260  -43.7390    0.2680 N.3    94  VAL94      -0.1245
     95  CA       -29.4140  -42.3210    0.3820 C.3    94  VAL94       0.1561
     96  C        -29.0990  -41.5790   -0.9100 C.2    94  VAL94       0.2260
     97  O        -28.1010  -41.8330   -1.5330 O.2    94  VAL94      -0.2867
     98  CB       -28.6040  -41.7260    1.5650 C.3    94  VAL94       0.0252
     99  CG1      -27.1180  -41.6210    1.2560 C.3    94  VAL94       0.0019
    100  CG2      -29.1510  -40.3780    1.9900 C.3    94  VAL94       0.0019
    101  N        -29.4810  -37.2960   -2.5280 N.3    96  ASP96      -0.1239
    102  CA       -29.8860  -35.9520   -2.1680 C.3    96  ASP96       0.1674
    103  C        -30.9280  -35.5250   -3.1370 C.2    96  ASP96       0.2266
    104  O        -30.9920  -36.0500   -4.2420 O.2    96  ASP96      -0.2867
    105  CB       -28.7160  -34.9490   -2.0470 C.3    96  ASP96       0.1410
    106  CG       -28.1620  -34.4940   -3.3710 C.2    96  ASP96       0.3668
    107  OD1      -26.9270  -34.5600   -3.4780 O.co2  96  ASP96      -0.2456
    108  OD2      -28.9190  -34.0510   -4.2790 O.co2  96  ASP96      -0.2456
    109  N        -29.9630  -29.4440   -2.6890 N.3   139  GLU139     -0.1245
    110  CA       -28.5990  -29.9610   -2.4690 C.3   139  GLU139      0.1567
    111  C        -28.3210  -30.2750   -1.0040 C.2   139  GLU139      0.2260
    112  O        -27.5460  -31.1740   -0.7130 O.2   139  GLU139     -0.2867
    113  CB       -27.5310  -28.9600   -2.9510 C.3   139  GLU139      0.0388
    114  CG       -27.6020  -28.5690   -4.4320 C.3   139  GLU139      0.1160
    115  CD       -26.4780  -27.6370   -4.8380 C.2   139  GLU139      0.3649
    116  OE1      -25.3850  -28.1450   -5.1590 O.co2 139  GLU139     -0.2457
    117  OE2      -26.6850  -26.4000   -4.8380 O.co2 139  GLU139     -0.2457
    118  N        -30.9840  -34.7030    2.0490 N.3   142  LEU142     -0.1245
    119  CA       -30.8380  -36.0970    1.7750 C.3   142  LEU142      0.1561
    120  C        -32.1400  -36.8190    2.0820 C.2   142  LEU142      0.2260
    121  O        -32.8330  -36.5140    3.0640 O.2   142  LEU142     -0.2867
    122  CB       -29.7740  -36.6860    2.6750 C.3   142  LEU142      0.0270
    123  CG       -28.4400  -35.9690    2.6850 C.3   142  LEU142      0.0019
    124  CD1      -27.5230  -36.6620    3.6720 C.3   142  LEU142      0.0001
    125  CD2      -27.8050  -35.9010    1.3030 C.3   142  LEU142      0.0001
    126  N        -28.7780  -31.1130    5.8980 N.3   153  ILE153     -0.1231
    127  CA       -27.3170  -31.0610    5.9320 C.3   153  ILE153      0.1692
    128  C        -26.7160  -29.6820    5.6640 C.2   153  ILE153      0.2592
    129  O        -27.3410  -28.8260    5.0510 O.2   153  ILE153     -0.2718
    130  CB       -26.6730  -32.1170    4.9850 C.3   153  ILE153      0.0266
    131  CG1      -26.8250  -31.7280    3.5010 C.3   153  ILE153      0.0019
    132  CG2      -27.2170  -33.5090    5.2910 C.3   153  ILE153      0.0020
    133  CD1      -26.3830  -32.7810    2.5010 C.3   153  ILE153      0.0001
    134  N        -25.4930  -29.5210    6.1670 N.am  154  ASP154     -0.1974
    135  CA       -24.5590  -28.4010    5.9030 C.3   154  ASP154      0.1709
    136  C        -24.9790  -27.0930    6.5640 C.2   154  ASP154      0.2293
    137  O        -25.8910  -26.3950    6.1350 O.2   154  ASP154     -0.2864
    138  CB       -24.1810  -28.2030    4.4120 C.3   154  ASP154      0.1436
    139  CG       -22.9440  -27.2930    4.2150 C.2   154  ASP154      0.3671
    140  OD1      -22.0010  -27.3180    5.0200 O.co2 154  ASP154     -0.2456
    141  OD2      -22.8910  -26.5310    3.2350 O.co2 154  ASP154     -0.2456
@<TRIPOS>BOND
     1   116   115   ar
     2   117   115   ar
     3   115   114    1
     4   114   113    1
     5   108   106   ar
     6   104   103    2
     7    18    17    1
     8    16    15    2
     9    17    14    1
    10   107   106   ar
    11   106   105    1
    12   103   102    1
    13    15    14    1
    14   113   110    1
    15     4     3    2
    16    13    14    1
    17    13    11   am
    18   109   110    1
    19   101   102    1
    20   110   111    1
    21    10     9    2
    22    10    11    1
    23     3     9    1
    24     3     2    1
    25   102   105    1
    26    11    12    2
    27     2     1    1
    28     2     5    1
    29    97    96    2
    30   111   112    2
    31    28    29   ar
    32    28    26   ar
    33    96    95    1
    34    29    27   ar
    35     8     6    1
    36     5     6    1
    37    26    24   ar
    38     6     7    1
    39    94    95    1
    40    27    25   ar
    41    95    98    1
    42    19    20    1
    43    33    32    2
    44    24    25   ar
    45    24    23    1
    46    99    98    1
    47   125   123    1
    48    30    31    1
    49    98   100    1
    50   119   118    1
    51   119   120    1
    52   119   122    1
    53    20    23    1
    54    20    21    1
    55    32    31    1
    56   120   121    2
    57    34    31    1
    58    34    36    1
    59    34    35    1
    60    21    22    2
    61   133   131    1
    62   122   123    1
    63   123   124    1
    64   141   139   ar
    65   131   130    1
    66    90    89    2
    67    82    83    1
    68    82    81    1
    69    85    84    1
    70   139   138    1
    71   139   140   ar
    72   138   135    1
    73    84    83    2
    74    84    86    1
    75    89    88    1
    76    81    80    1
    77   130   132    1
    78   130   127    1
    79   129   128    2
    80   128   127    1
    81   128   134   am
    82    91    88    1
    83    91    92    1
    84   126   127    1
    85   135   134    1
    86   135   136    1
    87    88    87    1
    88    49    50    1
    89    49    48    1
    90    93    87    1
    91    93    92    1
    92   137   136    2
    93    41    38    1
    94    80    77    1
    95    87    78   am
    96    47    46    1
    97    47    48    1
    98    43    46    1
    99    43    44    1
   100    43    42    1
   101    38    39    1
   102    38    37    1
   103    78    77    1
   104    78    79    2
   105    77    76    1
   106    44    45    2
   107    39    40    2
   108    56    58    1
   109    56    55    1
   110    70    69    2
   111    76    69   am
   112    65    64    1
   113    69    68    1
   114    55    57    1
   115    55    52    1
   116    63    64    1
   117    63    60    1
   118    64    66    1
   119    51    52    1
   120    52    53    1
   121    68    71    1
   122    68    67    1
   123    62    61    2
   124    71    72    1
   125    61    67   am
   126    61    60    1
   127    60    59    1
   128    53    54    2
   129    74    73   ar
   130    72    73    1
   131    73    75   ar
