@<TRIPOS>MOLECULE
tmp/5c1rB00.pdb
 166 161 0 0 0
SMALL
GASTEIGER

@<TRIPOS>ATOM
      1  N        -19.7040   29.7320    7.6860 N.3    83  VAL83      -0.1231
      2  CA       -19.6930   29.1320    9.0180 C.3    83  VAL83       0.1692
      3  C        -18.3550   28.5040    9.3700 C.2    83  VAL83       0.2593
      4  O        -17.6940   27.9310    8.5130 O.2    83  VAL83      -0.2718
      5  CB       -20.8030   28.0660    9.1520 C.3    83  VAL83       0.0266
      6  CG1      -20.5900   26.9140    8.1700 C.3    83  VAL83       0.0020
      7  CG2      -20.9070   27.5710   10.6060 C.3    83  VAL83       0.0020
      8  N        -17.9780   28.5910   10.6480 N.am   84  GLY84      -0.1942
      9  CA       -16.7210   28.0230   11.1110 C.3    84  GLY84       0.2014
     10  C        -16.8910   26.9990   12.2160 C.2    84  GLY84       0.2640
     11  O        -17.9890   26.8000   12.7340 O.2    84  GLY84      -0.2714
     12  N        -15.7870   26.3610   12.5770 N.am   85  THR85      -0.1936
     13  CA       -15.7630   25.4450   13.7070 C.3    85  THR85       0.2028
     14  C        -16.0010   26.1550   15.0220 C.2    85  THR85       0.2643
     15  O        -16.4640   25.5440   15.9870 O.2    85  THR85      -0.2714
     16  CB       -14.4130   24.7000   13.8010 C.3    85  THR85       0.1808
     17  OG1      -13.3360   25.6510   13.8700 O.3    85  THR85      -0.2208
     18  CG2      -14.2190   23.8050   12.5980 C.3    85  THR85       0.0379
     19  N        -15.6600   27.4380   15.0630 N.am   86  GLY86      -0.1939
     20  CA       -15.5420   28.1370   16.3250 C.3    86  GLY86       0.2014
     21  C        -14.3410   27.5960   17.0790 C.2    86  GLY86       0.2639
     22  O        -13.5420   26.8230   16.5250 O.2    86  GLY86      -0.2714
     23  N        -14.2110   28.0060   18.3390 N.am   87  GLY87      -0.1939
     24  CA       -13.1700   27.5010   19.2110 C.3    87  GLY87       0.2014
     25  C        -11.7830   28.0080   18.8830 C.2    87  GLY87       0.2638
     26  O        -10.8060   27.3100   19.1370 O.2    87  GLY87      -0.2714
     27  N        -11.6680   29.2320   18.3670 N.am   88  ASP88      -0.1971
     28  CA       -10.3500   29.7450   18.0060 C.3    88  ASP88       0.1709
     29  C         -9.6380   30.3700   19.2180 C.2    88  ASP88       0.2293
     30  O         -8.4840   30.7570   19.1200 O.2    88  ASP88      -0.2864
     31  CB       -10.4380   30.7720   16.8620 C.3    88  ASP88       0.1436
     32  CG       -11.3000   31.9820   17.2020 C.2    88  ASP88       0.3671
     33  OD1      -11.8010   32.0930   18.3440 O.co2  88  ASP88      -0.2456
     34  OD2      -11.4770   32.8400   16.3030 O.co2  88  ASP88      -0.2456
     35  N        -10.3560   33.0770   20.6590 N.3    90  VAL90      -0.1245
     36  CA       -10.4430   34.5270   20.5450 C.3    90  VAL90       0.1561
     37  C        -11.9140   34.9230   20.5250 C.2    90  VAL90       0.2260
     38  O        -12.7060   34.3830   19.7360 O.2    90  VAL90      -0.2867
     39  CB        -9.7690   35.0580   19.2650 C.3    90  VAL90       0.0252
     40  CG1       -9.5690   36.5730   19.3580 C.3    90  VAL90       0.0019
     41  CG2       -8.4560   34.3440   19.0070 C.3    90  VAL90       0.0019
     42  N        -16.0400   39.7130   17.4650 N.3    93  VAL93      -0.1231
     43  CA       -17.3590   39.9680   16.9320 C.3    93  VAL93       0.1692
     44  C        -17.7240   38.8010   15.9950 C.2    93  VAL93       0.2592
     45  O        -16.8600   38.0010   15.6060 O.2    93  VAL93      -0.2718
     46  CB       -17.4140   41.3210   16.1800 C.3    93  VAL93       0.0266
     47  CG1      -17.3000   42.4830   17.1580 C.3    93  VAL93       0.0020
     48  CG2      -16.3220   41.3950   15.1090 C.3    93  VAL93       0.0020
     49  N        -19.0030   38.6850   15.6570 N.am   94  ASN94      -0.1960
     50  CA       -19.4810   37.5310   14.9080 C.3    94  ASN94       0.1819
     51  C        -19.3000   37.7310   13.4070 C.2    94  ASN94       0.2621
     52  O        -20.2280   38.1180   12.6830 O.2    94  ASN94      -0.2715
     53  CB       -20.9310   37.2570   15.2670 C.3    94  ASN94       0.1195
     54  CG       -21.1070   36.9760   16.7600 C.2    94  ASN94       0.2630
     55  OD1      -21.5280   37.8530   17.5270 O.2    94  ASN94      -0.2716
     56  ND2      -20.7400   35.7630   17.1840 N.am   94  ASN94      -0.0877
     57  N        -18.0880   37.4530   12.9450 N.am   95  LEU95      -0.1963
     58  CA       -17.7030   37.8100   11.5920 C.3    95  LEU95       0.1728
     59  C        -18.4660   37.0250   10.5040 C.2    95  LEU95       0.2617
     60  O        -18.8290   37.6020    9.4840 O.2    95  LEU95      -0.2715
     61  CB       -16.1990   37.6160   11.4160 C.3    95  LEU95       0.0311
     62  CG       -15.3430   38.5990   12.2250 C.3    95  LEU95       0.0022
     63  CD1      -13.8780   38.2260   12.1370 C.3    95  LEU95       0.0001
     64  CD2      -15.5270   40.0210   11.7810 C.3    95  LEU95       0.0001
     65  N        -18.6880   35.7290   10.7060 N.am   96  SER96      -0.1936
     66  CA       -19.3500   34.9300    9.6830 C.3    96  SER96       0.2055
     67  C        -20.7810   35.4110    9.5250 C.2    96  SER96       0.2643
     68  O        -21.3200   35.4650    8.4290 O.2    96  SER96      -0.2714
     69  CB       -19.3430   33.4410   10.0400 C.3    96  SER96       0.2130
     70  OG       -18.0240   32.9350   10.1100 O.3    96  SER96      -0.2179
     71  N        -21.4040   35.7140   10.6520 N.am   97  THR97      -0.1950
     72  CA       -22.7900   36.1680   10.6590 C.3    97  THR97       0.1897
     73  C        -22.9230   37.5160    9.9380 C.2    97  THR97       0.2313
     74  O        -23.8040   37.6990    9.1060 O.2    97  THR97      -0.2863
     75  CB       -23.3050   36.2760   12.1030 C.3    97  THR97       0.1794
     76  OG1      -23.2340   34.9760   12.7140 O.3    97  THR97      -0.2208
     77  CG2      -24.7570   36.7530   12.1410 C.3    97  THR97       0.0378
     78  N        -27.4780   29.8370    6.2910 N.3   112  LYS112     -0.1231
     79  CA       -26.3940   29.7590    7.2600 C.3   112  LYS112      0.1693
     80  C        -26.7230   28.7580    8.3450 C.2   112  LYS112      0.2592
     81  O        -27.8180   28.7570    8.8860 O.2   112  LYS112     -0.2718
     82  CB       -26.1030   31.1150    7.8810 C.3   112  LYS112      0.0285
     83  CG       -25.1500   30.9860    9.0370 C.3   112  LYS112      0.0035
     84  CD       -24.3640   32.2090    9.3120 C.3   112  LYS112      0.0206
     85  CE       -23.5810   32.0320   10.6140 C.3   112  LYS112      0.1093
     86  NZ       -22.8360   30.7400   10.6150 N.3   112  LYS112     -0.1314
     87  N        -25.7520   27.8980    8.6320 N.am  113  HIS113     -0.1962
     88  CA       -25.8050   26.9950    9.7600 C.3   113  HIS113      0.1787
     89  C        -25.2190   27.7160   10.9560 C.2   113  HIS113      0.2621
     90  O        -24.1440   28.3110   10.8670 O.2   113  HIS113     -0.2715
     91  CB       -25.0180   25.7100    9.4530 C.3   113  HIS113      0.0785
     92  CG       -25.4670   24.5280   10.2390 C.ar  113  HIS113      0.0821
     93  ND1      -24.6330   23.4770   10.5330 N.ar  113  HIS113     -0.2267
     94  CD2      -26.6770   24.2130   10.7540 C.ar  113  HIS113      0.1154
     95  CE1      -25.3030   22.5710   11.2210 C.ar  113  HIS113      0.1986
     96  NE2      -26.5460   22.9870   11.3610 N.ar  113  HIS113     -0.2212
     97  N        -25.9140   27.6810   12.0820 N.am  114  GLY114     -0.1940
     98  CA       -25.4630   28.4520   13.2220 C.3   114  GLY114      0.2014
     99  C        -25.8110   27.8530   14.5610 C.2   114  GLY114      0.2639
    100  O        -26.5740   26.9000   14.6490 O.2   114  GLY114     -0.2714
    101  N        -25.2720   28.4690   15.6080 N.am  115  ASN115     -0.1958
    102  CA       -25.4030   27.9420   16.9610 C.3   115  ASN115      0.1819
    103  C        -25.0530   29.0090   17.9790 C.2   115  ASN115      0.2621
    104  O        -24.4760   30.0500   17.6430 O.2   115  ASN115     -0.2715
    105  CB       -24.5100   26.7100   17.1610 C.3   115  ASN115      0.1195
    106  CG       -25.0820   25.7420   18.1850 C.2   115  ASN115      0.2630
    107  OD1      -25.8370   26.1400   19.0850 O.2   115  ASN115     -0.2716
    108  ND2      -24.7360   24.4660   18.0520 N.am  115  ASN115     -0.0877
    109  N        -25.4180   28.7400   19.2250 N.am  116  ARG116     -0.1963
    110  CA       -25.0690   29.6050   20.3280 C.3   116  ARG116      0.1729
    111  C        -23.6060   29.4220   20.7020 C.2   116  ARG116      0.2616
    112  O        -22.9310   28.5190   20.2060 O.2   116  ARG116     -0.2715
    113  CB       -25.9760   29.3250   21.5270 C.3   116  ARG116      0.0348
    114  CG       -27.4390   29.7010   21.2810 C.3   116  ARG116      0.0492
    115  CD       -28.2580   29.6490   22.5690 C.3   116  ARG116      0.2205
    116  NE       -29.7030   29.7300   22.3250 N.pl3 116  ARG116     -0.0865
    117  CZ       -30.3850   30.8630   22.1890 C.cat 116  ARG116      0.5346
    118  NH1      -29.7660   32.0310   22.2430 N.pl3 116  ARG116      0.1354
    119  NH2      -31.6960   30.8210   21.9950 N.pl3 116  ARG116      0.1354
    120  N        -23.1110   30.2880   21.5730 N.am  117  ALA117     -0.1963
    121  CA       -21.7260   30.1860   22.0400 C.3   117  ALA117      0.1728
    122  C        -21.4550   28.8270   22.6740 C.2   117  ALA117      0.2616
    123  O        -22.3430   28.2390   23.2860 O.2   117  ALA117     -0.2715
    124  CB       -21.4210   31.2830   23.0330 C.3   117  ALA117      0.0334
    125  N        -20.2260   28.3450   22.5150 N.am  118  ALA118     -0.1963
    126  CA       -19.7490   27.1590   23.2200 C.3   118  ALA118      0.1728
    127  C        -18.6570   27.5770   24.2020 C.2   118  ALA118      0.2617
    128  O        -18.7290   27.2640   25.3900 O.2   118  ALA118     -0.2715
    129  CB       -19.2260   26.1240   22.2420 C.3   118  ALA118      0.0334
    130  N        -17.6550   28.2890   23.6950 N.am  119  SER119     -0.1936
    131  CA       -16.5640   28.8220   24.5180 C.3   119  SER119      0.2055
    132  C        -16.4810   30.3570   24.5000 C.2   119  SER119      0.2643
    133  O        -15.7180   30.9460   25.2750 O.2   119  SER119     -0.2714
    134  CB       -15.2320   28.2310   24.0520 C.3   119  SER119      0.2130
    135  OG       -14.8890   28.7090   22.7620 O.3   119  SER119     -0.2179
    136  N        -17.2570   31.0090   23.6360 N.am  120  SER120     -0.1949
    137  CA       -17.1910   32.4700   23.5220 C.3   120  SER120      0.1924
    138  C        -18.2840   33.1550   24.3450 C.2   120  SER120      0.2314
    139  O        -19.1510   32.4940   24.9180 O.2   120  SER120     -0.2863
    140  CB       -17.2970   32.9120   22.0460 C.3   120  SER120      0.2116
    141  OG       -18.5320   32.5030   21.4660 O.3   120  SER120     -0.2180
    142  N        -22.4290   33.7020   20.6390 N.3   123  GLY123     -0.1210
    143  CA       -22.4030   32.9660   19.3870 C.3   123  GLY123      0.1956
    144  C        -23.1840   33.7370   18.3470 C.2   123  GLY123      0.2612
    145  O        -23.9360   34.6590   18.6820 O.2   123  GLY123     -0.2717
    146  N        -23.0200   33.3590   17.0860 N.am  124  GLY124     -0.1956
    147  CA       -23.7950   33.9690   16.0250 C.3   124  GLY124      0.1869
    148  C        -25.2910   33.9280   16.3020 C.2   124  GLY124      0.2309
    149  O        -25.9800   34.9100   16.0940 O.2   124  GLY124     -0.2863
    150  N        -10.8000   31.4270   12.9000 N.3   228  ASP228     -0.1225
    151  CA       -11.5120   30.5390   11.9800 C.3   228  ASP228      0.1805
    152  C        -12.3360   31.3950   11.0080 C.2   228  ASP228      0.2597
    153  O        -13.5220   31.1680   10.7920 O.2   228  ASP228     -0.2718
    154  CB       -12.3960   29.5180   12.7170 C.3   228  ASP228      0.1424
    155  CG       -13.5490   30.1400   13.4910 C.2   228  ASP228      0.3668
    156  OD1      -13.3610   31.2110   14.1090 O.co2 228  ASP228     -0.2456
    157  OD2      -14.6510   29.5340   13.4890 O.co2 228  ASP228     -0.2456
    158  N        -11.6590   32.3930   10.4470 N.am  229  GLU229     -0.1979
    159  CA       -12.1740   33.2750    9.4140 C.3   229  GLU229      0.1602
    160  C        -10.9790   33.7070    8.5650 C.2   229  GLU229      0.2287
    161  O         -9.8280   33.4400    8.9280 O.2   229  GLU229     -0.2864
    162  CB       -12.8520   34.5270   10.0040 C.3   229  GLU229      0.0415
    163  CG       -13.7340   34.3370   11.2430 C.3   229  GLU229      0.1163
    164  CD       -15.1670   33.9290   10.9360 C.2   229  GLU229      0.3649
    165  OE1      -15.6290   34.0500    9.7640 O.co2 229  GLU229     -0.2457
    166  OE2      -15.8420   33.4950   11.8980 O.co2 229  GLU229     -0.2457
@<TRIPOS>BOND
     1    78    79    1
     2    79    82    1
     3    79    80    1
     4     1     2    1
     5    82    83    1
     6     6     5    1
     7    80    87   am
     8    80    81    2
     9    68    67    2
    10     4     3    2
    11   160   161    2
    12   160   159    1
    13    87    88    1
    14     2     5    1
    15     2     3    1
    16    83    84    1
    17    74    73    2
    18     5     7    1
    19    84    85    1
    20     3     8   am
    21   159   162    1
    22   159   158    1
    23    91    88    1
    24    91    92    1
    25    60    59    2
    26    67    66    1
    27    67    71   am
    28    66    69    1
    29    66    65    1
    30    88    89    1
    31   165   164   ar
    32    73    72    1
    33   162   163    1
    34    69    70    1
    35    92    93   ar
    36    92    94   ar
    37   158   152   am
    38    59    65   am
    39    59    58    1
    40    93    95   ar
    41    85    86    1
    42     8     9    1
    43    71    72    1
    44    72    75    1
    45    94    96   ar
    46   153   152    2
    47    90    89    2
    48   164   163    1
    49   164   166   ar
    50    89    97   am
    51   152   151    1
    52     9    10    1
    53    95    96   ar
    54    61    58    1
    55    61    62    1
    56    58    57    1
    57    64    62    1
    58   151   154    1
    59   151   150    1
    60    97    98    1
    61    75    77    1
    62    75    76    1
    63    63    62    1
    64    10    12   am
    65    10    11    2
    66    12    13    1
    67    18    16    1
    68    52    51    2
    69   154   155    1
    70    57    51   am
    71    98    99    1
    72    51    50    1
    73   157   155   ar
    74   155   156   ar
    75    13    16    1
    76    13    14    1
    77    16    17    1
    78    99   100    2
    79    99   101   am
    80    50    53    1
    81    50    49    1
    82    14    19   am
    83    14    15    2
    84    19    20    1
    85    48    46    1
    86    53    54    1
    87    45    44    2
    88   101   102    1
    89    49    44   am
    90    44    43    1
    91   147   148    1
    92   147   146    1
    93   149   148    2
    94    46    43    1
    95    46    47    1
    96    34    32   ar
    97    20    21    1
    98    22    21    2
    99    54    56   am
   100    54    55    2
   101    31    32    1
   102    31    28    1
   103    43    42    1
   104   102   105    1
   105   102   103    1
   106    21    23   am
   107   146   144   am
   108   105   106    1
   109    32    33   ar
   110   104   103    2
   111   103   109   am
   112    28    27    1
   113    28    29    1
   114   108   106   am
   115   106   107    2
   116    23    24    1
   117   144   145    2
   118   144   143    1
   119    27    25   am
   120    25    26    2
   121    25    24    1
   122    41    39    1
   123    30    29    2
   124   109   110    1
   125    39    40    1
   126    39    36    1
   127   143   142    1
   128    38    37    2
   129   112   111    2
   130   110   111    1
   131   110   113    1
   132    37    36    1
   133    36    35    1
   134   111   120   am
   135   114   113    1
   136   114   115    1
   137   141   140    1
   138   120   121    1
   139   119   117    1
   140   121   122    1
   141   121   124    1
   142   140   137    1
   143   117   118    1
   144   117   116    2
   145   129   126    1
   146   116   115    1
   147   125   122   am
   148   125   126    1
   149   122   123    2
   150   135   134    1
   151   126   127    1
   152   137   136    1
   153   137   138    1
   154   136   132   am
   155   130   127   am
   156   130   131    1
   157   134   131    1
   158   127   128    2
   159   138   139    2
   160   132   131    1
   161   132   133    2
