@<TRIPOS>MOLECULE
tmp/5c1sA00.pdb
 93 87 0 0 0
SMALL
GASTEIGER

@<TRIPOS>ATOM
      1  N        -50.1410   52.5640   39.3660 N.3    11  SER11      -0.1202
      2  CA       -49.1500   53.0520   40.3220 C.3    11  SER11       0.2020
      3  C        -48.6500   51.9310   41.2350 C.2    11  SER11       0.2619
      4  O        -47.6520   52.0980   41.9350 O.2    11  SER11      -0.2717
      5  CB       -49.7210   54.1920   41.1650 C.3    11  SER11       0.2103
      6  OG       -50.5710   53.6960   42.1780 O.3    11  SER11      -0.2182
      7  N        -49.3610   50.8050   41.2450 N.am   12  GLY12      -0.1942
      8  CA       -48.9180   49.6240   41.9650 C.3    12  GLY12       0.2014
      9  C        -47.5720   49.1690   41.4380 C.2    12  GLY12       0.2639
     10  O        -46.6150   49.0280   42.1990 O.2    12  GLY12      -0.2714
     11  N        -47.5100   48.9130   40.1340 N.am   13  VAL13      -0.1963
     12  CA       -46.2380   48.8700   39.4210 C.3    13  VAL13       0.1727
     13  C        -46.3480   49.6750   38.1250 C.2    13  VAL13       0.2616
     14  O        -47.0580   49.2970   37.1890 O.2    13  VAL13      -0.2715
     15  CB       -45.7930   47.4210   39.1130 C.3    13  VAL13       0.0290
     16  CG1      -46.9790   46.5700   38.6970 C.3    13  VAL13       0.0023
     17  CG2      -44.7060   47.4000   38.0380 C.3    13  VAL13       0.0023
     18  N        -45.6360   50.7950   38.0840 N.am   14  GLY14      -0.1955
     19  CA       -45.5580   51.6290   36.9010 C.3    14  GLY14       0.1869
     20  C        -44.3020   51.1930   36.1850 C.2    14  GLY14       0.2309
     21  O        -43.9680   50.0090   36.1990 O.2    14  GLY14      -0.2863
     22  N        -40.6700   51.3920   36.8140 N.3    16  THR16      -0.1203
     23  CA       -39.5430   51.6980   37.6940 C.3    16  THR16       0.1994
     24  C        -38.4280   50.6610   37.6730 C.2    16  THR16       0.2618
     25  O        -37.3360   50.9270   37.1760 O.2    16  THR16      -0.2717
     26  CB       -39.9940   51.8810   39.1600 C.3    16  THR16       0.1784
     27  OG1      -40.3960   50.6200   39.7130 O.3    16  THR16      -0.2211
     28  CG2      -41.0890   52.9220   39.2830 C.3    16  THR16       0.0376
     29  N        -38.7220   49.4770   38.2080 N.am   17  THR17      -0.1952
     30  CA       -37.7040   48.4700   38.5160 C.3    17  THR17       0.1897
     31  C        -36.8610   48.0840   37.3120 C.2    17  THR17       0.2313
     32  O        -35.7560   47.5650   37.4610 O.2    17  THR17      -0.2863
     33  CB       -38.3400   47.1960   39.0940 C.3    17  THR17       0.1794
     34  OG1      -38.9890   46.4590   38.0500 O.3    17  THR17      -0.2208
     35  CG2      -39.3500   47.5640   40.1490 C.3    17  THR17       0.0378
     36  N        -48.4100   43.7250   38.5670 N.3    54  ASP54      -0.1239
     37  CA       -47.9680   42.7870   39.5830 C.3    54  ASP54       0.1674
     38  C        -49.0540   41.7360   39.7330 C.2    54  ASP54       0.2266
     39  O        -50.2090   42.0640   40.0050 O.2    54  ASP54      -0.2867
     40  CB       -47.6950   43.4960   40.9090 C.3    54  ASP54       0.1410
     41  CG       -46.8610   42.6550   41.8560 C.2    54  ASP54       0.3668
     42  OD1      -45.6180   42.7090   41.7600 O.co2  54  ASP54      -0.2456
     43  OD2      -47.4490   41.9450   42.6960 O.co2  54  ASP54      -0.2456
     44  N        -45.7600   40.9140   36.2910 N.3    86  ASN86      -0.1225
     45  CA       -44.5160   41.0230   37.0480 C.3    86  ASN86       0.1785
     46  C        -44.4470   39.9360   38.1150 C.2    86  ASN86       0.2597
     47  O        -45.2700   39.0190   38.1170 O.2    86  ASN86      -0.2718
     48  CB       -44.3760   42.4110   37.6780 C.3    86  ASN86       0.1169
     49  CG       -42.9250   42.7950   37.9250 C.2    86  ASN86       0.2627
     50  OD1      -42.0830   41.9390   38.2060 O.2    86  ASN86      -0.2716
     51  ND2      -42.6250   44.0860   37.8150 N.am   86  ASN86      -0.0877
     52  N        -43.4610   40.0390   39.0050 N.am   87  LYS87      -0.1980
     53  CA       -43.2100   39.0150   40.0140 C.3    87  LYS87       0.1596
     54  C        -43.0080   37.6690   39.3280 C.2    87  LYS87       0.2287
     55  O        -42.0190   37.4760   38.6230 O.2    87  LYS87      -0.2864
     56  CB       -44.3440   38.9500   41.0290 C.3    87  LYS87       0.0298
     57  CG       -44.1630   39.8320   42.2380 C.3    87  LYS87       0.0038
     58  CD       -42.9690   39.3910   43.0620 C.3    87  LYS87       0.0206
     59  CE       -41.7300   40.2500   42.7700 C.3    87  LYS87       0.1093
     60  NZ       -40.4540   39.5280   43.0830 N.3    87  LYS87      -0.1314
     61  N        -41.7510   35.0850   39.7490 N.3    89  ASP89      -0.1225
     62  CA       -40.6610   34.2630   40.2500 C.3    89  ASP89       0.1805
     63  C        -41.1310   33.6220   41.5450 C.2    89  ASP89       0.2597
     64  O        -40.8200   32.4660   41.8350 O.2    89  ASP89      -0.2718
     65  CB       -39.3850   35.0830   40.4710 C.3    89  ASP89       0.1424
     66  CG       -39.6210   36.3390   41.2970 C.2    89  ASP89       0.3668
     67  OD1      -38.6920   37.1720   41.3800 O.co2  89  ASP89      -0.2456
     68  OD2      -40.7250   36.5020   41.8570 O.co2  89  ASP89      -0.2456
     69  N        -41.8910   34.3940   42.3180 N.am   90  GLN90      -0.1979
     70  CA       -42.5500   33.8710   43.5020 C.3    90  GLN90       0.1601
     71  C        -43.5120   32.7810   43.0750 C.2    90  GLN90       0.2287
     72  O        -43.3750   31.6360   43.4990 O.2    90  GLN90      -0.2864
     73  CB       -43.2920   34.9770   44.2560 C.3    90  GLN90       0.0394
     74  CG       -42.9980   35.0170   45.7400 C.3    90  GLN90       0.0908
     75  CD       -41.5830   35.4680   46.0320 C.2    90  GLN90       0.2608
     76  OE1      -41.1510   36.5290   45.5790 O.2    90  GLN90      -0.2717
     77  NE2      -40.8430   34.6520   46.7760 N.am   90  GLN90      -0.0878
     78  N        -38.1890   39.1750   36.8360 N.3   117  THR117     -0.1203
     79  CA       -37.1850   40.2180   36.6490 C.3   117  THR117      0.1994
     80  C        -36.0710   40.1170   37.6850 C.2   117  THR117      0.2617
     81  O        -35.1560   40.9400   37.7040 O.2   117  THR117     -0.2717
     82  CB       -37.8100   41.6300   36.6960 C.3   117  THR117      0.1784
     83  OG1      -36.7820   42.6180   36.5420 O.3   117  THR117     -0.2211
     84  CG2      -38.5160   41.8560   38.0100 C.3   117  THR117      0.0376
     85  N        -36.1530   39.1020   38.5400 N.am  118  LYS118     -0.1979
     86  CA       -35.0840   38.8180   39.4870 C.3   118  LYS118      0.1596
     87  C        -33.8810   38.2520   38.7390 C.2   118  LYS118      0.2287
     88  O        -32.7400   38.6420   38.9860 O.2   118  LYS118     -0.2864
     89  CB       -35.5570   37.8500   40.5590 C.3   118  LYS118      0.0298
     90  CG       -34.3280   37.7720   41.5740 C.3   118  LYS118      0.0038
     91  CD       -34.7260   36.9980   42.8180 C.3   118  LYS118      0.0206
     92  CE       -34.5850   35.5210   42.7400 C.3   118  LYS118      0.1093
     93  NZ       -33.1940   35.0360   42.5010 N.3   118  LYS118     -0.1314
@<TRIPOS>BOND
     1    20    21    2
     2    20    19    1
     3    44    45    1
     4    83    82    1
     5    79    82    1
     6    79    78    1
     7    79    80    1
     8    82    84    1
     9    22    23    1
    10    19    18    1
    11    45    48    1
    12    45    46    1
    13    25    24    2
    14    14    13    2
    15    31    32    2
    16    31    30    1
    17    24    23    1
    18    24    29   am
    19    48    49    1
    20    80    81    2
    21    80    85   am
    22    23    26    1
    23    51    49   am
    24    49    50    2
    25    17    15    1
    26    34    33    1
    27    18    13   am
    28    46    47    2
    29    46    52   am
    30    13    12    1
    31    29    30    1
    32    30    33    1
    33    85    86    1
    34    36    37    1
    35    55    54    2
    36    16    15    1
    37    87    88    2
    38    87    86    1
    39    52    53    1
    40    33    35    1
    41    15    12    1
    42    26    28    1
    43    26    27    1
    44    54    53    1
    45     1     2    1
    46    12    11    1
    47    86    89    1
    48    37    38    1
    49    37    40    1
    50    38    39    2
    51    61    62    1
    52    53    56    1
    53    11     9   am
    54    62    65    1
    55    62    63    1
    56     2     5    1
    57     2     3    1
    58    65    66    1
    59    89    90    1
    60    40    41    1
    61    56    57    1
    62     5     6    1
    63     3     7   am
    64     3     4    2
    65     7     8    1
    66    66    67   ar
    67    66    68   ar
    68     9     8    1
    69     9    10    2
    70    63    64    2
    71    63    69   am
    72    90    91    1
    73    42    41   ar
    74    41    43   ar
    75    57    58    1
    76    69    70    1
    77    93    92    1
    78    92    91    1
    79    59    58    1
    80    59    60    1
    81    71    72    2
    82    71    70    1
    83    70    73    1
    84    73    74    1
    85    76    75    2
    86    74    75    1
    87    75    77   am
