@<TRIPOS>MOLECULE
tmp/5c1tB00.pdb
 110 104 0 0 0
SMALL
GASTEIGER

@<TRIPOS>ATOM
      1  N       -107.4030   72.5760   17.5240 N.3     9  SER9       -0.1202
      2  CA      -106.6660   72.0230   18.6480 C.3     9  SER9        0.2020
      3  C       -105.7530   70.9330   18.1090 C.2     9  SER9        0.2619
      4  O       -104.8950   70.4170   18.8230 O.2     9  SER9       -0.2717
      5  CB      -107.6190   71.4760   19.7170 C.3     9  SER9        0.2103
      6  OG      -106.9170   70.8140   20.7560 O.3     9  SER9       -0.2182
      7  N       -105.9340   70.6110   16.8290 N.am   10  GLY10      -0.1942
      8  CA      -105.2130   69.5260   16.1860 C.3    10  GLY10       0.2014
      9  C       -105.4410   68.2150   16.9090 C.2    10  GLY10       0.2639
     10  O       -104.5140   67.4240   17.0790 O.2    10  GLY10      -0.2714
     11  N       -106.6840   67.9840   17.3240 N.am   11  VAL11      -0.1963
     12  CA      -107.0140   66.8840   18.2320 C.3    11  VAL11       0.1727
     13  C       -106.6680   65.4990   17.6980 C.2    11  VAL11       0.2617
     14  O       -106.4890   64.5630   18.4740 O.2    11  VAL11      -0.2715
     15  CB      -108.5130   66.8890   18.5930 C.3    11  VAL11       0.0290
     16  CG1     -108.8630   68.1280   19.3920 C.3    11  VAL11       0.0023
     17  CG2     -109.3610   66.7980   17.3390 C.3    11  VAL11       0.0023
     18  N       -106.6030   65.3530   16.3810 N.am   12  GLY12      -0.1940
     19  CA      -106.1110   64.1140   15.8140 C.3    12  GLY12       0.2014
     20  C       -104.6740   64.2450   15.3510 C.2    12  GLY12       0.2639
     21  O       -103.9770   63.2450   15.2130 O.2    12  GLY12      -0.2714
     22  N       -104.2130   65.4840   15.1940 N.am   13  LYS13      -0.1963
     23  CA      -102.9970   65.7870   14.4330 C.3    13  LYS13       0.1728
     24  C       -101.8050   64.8660   14.7130 C.2    13  LYS13       0.2617
     25  O       -101.4140   64.0880   13.8430 O.2    13  LYS13      -0.2715
     26  CB      -102.5930   67.2360   14.6770 C.3    13  LYS13       0.0311
     27  CG      -102.9350   68.1770   13.5330 C.3    13  LYS13       0.0038
     28  CD      -102.9110   69.6390   13.9710 C.3    13  LYS13       0.0206
     29  CE      -101.4890   70.1380   14.2070 C.3    13  LYS13       0.1093
     30  NZ      -101.4760   71.5670   14.6450 N.3    13  LYS13      -0.1314
     31  N       -101.2440   64.9340   15.9170 N.am   14  THR14      -0.1937
     32  CA      -100.0760   64.1160   16.2490 C.3    14  THR14       0.2028
     33  C       -100.3660   62.6060   16.2460 C.2    14  THR14       0.2642
     34  O        -99.5930   61.8280   15.6760 O.2    14  THR14      -0.2714
     35  CB       -99.4850   64.5040   17.6280 C.3    14  THR14       0.1808
     36  OG1     -100.5430   64.8820   18.5210 O.3    14  THR14      -0.2208
     37  CG2      -98.5090   65.6690   17.4850 C.3    14  THR14       0.0379
     38  N       -101.4730   62.1880   16.8640 N.am   15  THR15      -0.1950
     39  CA      -101.7930   60.7580   16.9570 C.3    15  THR15       0.1897
     40  C       -102.3200   60.1740   15.6410 C.2    15  THR15       0.2313
     41  O       -102.0760   58.9990   15.3480 O.2    15  THR15      -0.2863
     42  CB      -102.8250   60.4650   18.0770 C.3    15  THR15       0.1794
     43  OG1     -104.0010   61.2650   17.8860 O.3    15  THR15      -0.2208
     44  CG2     -102.2310   60.7570   19.4490 C.3    15  THR15       0.0378
     45  N        -97.7590   66.4980   10.6230 N.3    29  VAL29      -0.1245
     46  CA       -98.5330   67.2680   11.5940 C.3    29  VAL29       0.1561
     47  C        -98.5080   68.7340   11.1750 C.2    29  VAL29       0.2260
     48  O        -97.6710   69.1340   10.3650 O.2    29  VAL29      -0.2867
     49  CB       -97.9780   67.0970   13.0320 C.3    29  VAL29       0.0252
     50  CG1      -96.7430   67.9540   13.2300 C.3    29  VAL29       0.0019
     51  CG2      -99.0340   67.4420   14.0750 C.3    29  VAL29       0.0019
     52  N        -98.5150   73.0800   11.7000 N.3    31  LYS31      -0.1245
     53  CA       -97.4190   74.0170   11.9310 C.3    31  LYS31       0.1561
     54  C        -96.2950   73.7560   10.9320 C.2    31  LYS31       0.2260
     55  O        -95.2020   73.3270   11.3030 O.2    31  LYS31      -0.2867
     56  CB       -96.8970   73.9100   13.3690 C.3    31  LYS31       0.0271
     57  CG       -97.9660   74.0900   14.4330 C.3    31  LYS31       0.0035
     58  CD       -97.3680   74.0860   15.8290 C.3    31  LYS31       0.0206
     59  CE       -98.4030   74.4840   16.8660 C.3    31  LYS31       0.1093
     60  NZ       -99.7850   74.1340   16.4310 N.3    31  LYS31      -0.1314
     61  N       -113.2780   64.3670   13.7560 N.3    82  ASN82      -0.1225
     62  CA      -112.7780   63.2620   14.5630 C.3    82  ASN82       0.1785
     63  C       -113.5480   63.1010   15.8660 C.2    82  ASN82       0.2597
     64  O       -114.6060   63.7030   16.0410 O.2    82  ASN82      -0.2718
     65  CB      -111.2890   63.4570   14.8520 C.3    82  ASN82       0.1169
     66  CG      -110.5330   62.1460   14.9420 C.2    82  ASN82       0.2627
     67  OD1     -111.0610   61.1390   15.4160 O.2    82  ASN82      -0.2716
     68  ND2     -109.2910   62.1500   14.4800 N.am   82  ASN82      -0.0877
     69  N       -113.0120   62.2720   16.7620 N.am   83  LYS83      -0.1980
     70  CA      -113.6910   61.8720   17.9910 C.3    83  LYS83       0.1596
     71  C       -114.9950   61.1630   17.6580 C.2    83  LYS83       0.2287
     72  O       -116.0460   61.4830   18.2090 O.2    83  LYS83      -0.2864
     73  CB      -113.9440   63.0730   18.9030 C.3    83  LYS83       0.0298
     74  CG      -113.4940   62.8920   20.3320 C.3    83  LYS83       0.0038
     75  CD      -111.9900   63.1350   20.4620 C.3    83  LYS83       0.0206
     76  CE      -111.5670   63.2470   21.9290 C.3    83  LYS83       0.1093
     77  NZ      -110.1930   63.8270   22.0520 N.3    83  LYS83      -0.1314
     78  N       -115.1390   58.1010   18.2760 N.3    85  ASP85      -0.1225
     79  CA      -115.1120   57.0740   19.3130 C.3    85  ASP85       0.1805
     80  C       -116.3470   57.1840   20.1880 C.2    85  ASP85       0.2597
     81  O       -116.9430   56.1870   20.5910 O.2    85  ASP85      -0.2718
     82  CB      -113.8740   57.2220   20.1930 C.3    85  ASP85       0.1424
     83  CG      -112.7260   57.8860   19.4820 C.2    85  ASP85       0.3668
     84  OD1     -112.4710   57.5700   18.3090 O.co2  85  ASP85      -0.2456
     85  OD2     -112.0900   58.7540   20.1060 O.co2  85  ASP85      -0.2456
     86  N       -116.7150   58.4250   20.4730 N.am   86  GLN86      -0.1979
     87  CA      -117.7940   58.7330   21.3940 C.3    86  GLN86       0.1601
     88  C       -119.1570   58.3110   20.8440 C.2    86  GLN86       0.2287
     89  O       -120.0320   57.8920   21.5950 O.2    86  GLN86      -0.2864
     90  CB      -117.8070   60.2390   21.6870 C.3    86  GLN86       0.0394
     91  CG      -116.4360   60.8690   21.9740 C.3    86  GLN86       0.0908
     92  CD      -115.5920   60.0970   22.9710 C.2    86  GLN86       0.2608
     93  OE1     -116.1090   59.4930   23.9100 O.2    86  GLN86      -0.2717
     94  NE2     -114.2800   60.1080   22.7630 N.am   86  GLN86      -0.0878
     95  N       -110.1230   58.0350   16.6640 N.3   113  THR113     -0.1203
     96  CA      -108.8450   57.7270   17.3010 C.3   113  THR113      0.1994
     97  C       -108.7930   56.2770   17.7830 C.2   113  THR113      0.2617
     98  O       -107.7590   55.6130   17.6820 O.2   113  THR113     -0.2717
     99  CB      -108.5740   58.6730   18.4970 C.3   113  THR113      0.1784
    100  OG1     -108.7020   60.0360   18.0710 O.3   113  THR113     -0.2211
    101  CG2     -107.1790   58.4540   19.0590 C.3   113  THR113      0.0376
    102  N       -109.9140   55.7800   18.2940 N.am  114  LYS114     -0.1979
    103  CA      -109.9690   54.4250   18.8360 C.3   114  LYS114      0.1596
    104  C       -109.8900   53.3400   17.7570 C.2   114  LYS114      0.2287
    105  O       -109.2030   52.3370   17.9410 O.2   114  LYS114     -0.2864
    106  CB      -111.2320   54.2470   19.6600 C.3   114  LYS114      0.0298
    107  CG      -111.3380   52.9270   20.4190 C.3   114  LYS114      0.0038
    108  CD      -112.4850   52.9430   21.4420 C.3   114  LYS114      0.0206
    109  CE      -113.8360   53.0710   20.7830 C.3   114  LYS114      0.1093
    110  NZ      -114.1700   51.8250   20.0480 N.3   114  LYS114     -0.1314
@<TRIPOS>BOND
     1    48    47    2
     2    45    46    1
     3    54    55    2
     4    54    53    1
     5    47    46    1
     6    46    49    1
     7    52    53    1
     8    53    56    1
     9    49    50    1
    10    49    51    1
    11    56    57    1
    12    27    28    1
    13    27    26    1
    14    61    62    1
    15    25    24    2
    16    28    29    1
    17    29    30    1
    18    57    58    1
    19    23    26    1
    20    23    24    1
    21    23    22    1
    22    68    66   am
    23    62    65    1
    24    62    63    1
    25    24    31   am
    26    65    66    1
    27    66    67    2
    28    22    20   am
    29    21    20    2
    30    41    40    2
    31    20    19    1
    32    40    39    1
    33    34    33    2
    34    19    18    1
    35    58    59    1
    36    63    64    2
    37    63    69   am
    38    31    32    1
    39     8     7    1
    40     8     9    1
    41    33    32    1
    42    33    38   am
    43    32    35    1
    44    18    13   am
    45    60    59    1
    46    95    96    1
    47    69    70    1
    48     7     3   am
    49    38    39    1
    50     9    10    2
    51     9    11   am
    52    39    42    1
    53    96    97    1
    54    96    99    1
    55    11    12    1
    56    17    15    1
    57    37    35    1
    58     1     2    1
    59    35    36    1
    60    71    70    1
    61    71    72    2
    62    98    97    2
    63    13    12    1
    64    13    14    2
    65   104   105    2
    66   104   103    1
    67    97   102   am
    68    43    42    1
    69    70    73    1
    70   100    99    1
    71    42    44    1
    72     3     2    1
    73     3     4    2
    74    12    15    1
    75    78    79    1
    76   102   103    1
    77    84    83   ar
    78    99   101    1
    79    15    16    1
    80     2     5    1
    81   103   106    1
    82    73    74    1
    83    79    80    1
    84    79    82    1
    85    83    85   ar
    86    83    82    1
    87   106   107    1
    88     5     6    1
    89   110   109    1
    90    80    86   am
    91    80    81    2
    92    74    75    1
    93   107   108    1
    94    75    76    1
    95    86    87    1
    96   109   108    1
    97    88    87    1
    98    88    89    2
    99    87    90    1
   100    90    91    1
   101    76    77    1
   102    91    92    1
   103    94    92   am
   104    92    93    2
