@<TRIPOS>MOLECULE
tmp/5c1wA00.pdb
 146 141 0 0 0
SMALL
GASTEIGER

@<TRIPOS>ATOM
      1  N         14.3940   14.9120   46.7840 N.3    78  TYR78      -0.1227
      2  CA        13.1610   14.3190   47.3050 C.3    78  TYR78       0.1736
      3  C         13.2900   12.8940   47.8130 C.2    78  TYR78       0.2595
      4  O         12.8000   12.6140   48.9070 O.2    78  TYR78      -0.2718
      5  CB        12.0450   14.4050   46.2230 C.3    78  TYR78       0.0548
      6  CG        10.7390   13.7930   46.6720 C.ar   78  TYR78      -0.0200
      7  CD1       10.0680   14.2810   47.7930 C.ar   78  TYR78      -0.0009
      8  CD2       10.2140   12.6780   46.0300 C.ar   78  TYR78      -0.0009
      9  CE1        8.8890   13.6950   48.2430 C.ar   78  TYR78       0.0417
     10  CE2        9.0400   12.0670   46.4840 C.ar   78  TYR78       0.0417
     11  CZ         8.3820   12.5850   47.5890 C.ar   78  TYR78       0.1957
     12  OH         7.1890   12.0150   48.0000 O.3    78  TYR78      -0.2866
     13  N         13.8800   11.9920   47.0330 N.am   79  HIS79      -0.1975
     14  CA        13.9250   10.5820   47.4470 C.3    79  HIS79       0.1656
     15  C         15.0870   10.3480   48.3820 C.2    79  HIS79       0.2291
     16  O         16.0180    9.5880   48.0880 O.2    79  HIS79      -0.2864
     17  CB        13.9130    9.6550   46.2400 C.3    79  HIS79       0.0771
     18  CG        12.6290    9.6490   45.4810 C.ar   79  HIS79       0.0820
     19  ND1       12.5340   10.2150   44.2280 N.ar   79  HIS79      -0.2267
     20  CD2       11.4130    9.1770   45.8390 C.ar   79  HIS79       0.1154
     21  CE1       11.2830   10.0390   43.8400 C.ar   79  HIS79       0.1986
     22  NE2       10.5640    9.4300   44.7860 N.ar   79  HIS79      -0.2212
     23  N          4.4220    3.1380   41.2670 N.3   189  LEU189     -0.1245
     24  CA         3.0840    3.6570   40.9170 C.3   189  LEU189      0.1561
     25  C          2.4490    3.0020   39.7030 C.2   189  LEU189      0.2260
     26  O          1.2380    2.9500   39.6100 O.2   189  LEU189     -0.2867
     27  CB         3.0910    5.1770   40.7580 C.3   189  LEU189      0.0270
     28  CG         3.1190    5.9980   42.0400 C.3   189  LEU189      0.0019
     29  CD1        3.3800    7.4420   41.7160 C.3   189  LEU189      0.0001
     30  CD2        1.8120    5.8710   42.8360 C.3   189  LEU189      0.0001
     31  N          3.5600    6.3720   50.7020 N.3   228  ASP228     -0.1225
     32  CA         4.5150    6.9590   49.7690 C.3   228  ASP228      0.1805
     33  C          4.0560    8.3440   49.2980 C.2   228  ASP228      0.2597
     34  O          4.8720    9.2370   49.1240 O.2   228  ASP228     -0.2718
     35  CB         4.6800    6.0200   48.5670 C.3   228  ASP228      0.1424
     36  CG         5.9810    6.1730   47.8090 C.2   228  ASP228      0.3668
     37  OD1        6.8850    6.8720   48.3110 O.co2 228  ASP228     -0.2456
     38  OD2        6.0940    5.5920   46.7200 O.co2 228  ASP228     -0.2456
     39  N          2.7460    8.5210   49.0980 N.am  229  LEU229     -0.1979
     40  CA         2.1920    9.7890   48.6170 C.3   229  LEU229      0.1596
     41  C          1.7490   10.7180   49.7530 C.2   229  LEU229      0.2287
     42  O          1.1660   11.7530   49.4410 O.2   229  LEU229     -0.2864
     43  CB         0.9430    9.4920   47.7340 C.3   229  LEU229      0.0297
     44  CG         1.1160    8.5620   46.5430 C.3   229  LEU229      0.0022
     45  CD1       -0.1680    8.4480   45.7500 C.3   229  LEU229      0.0001
     46  CD2        2.2230    8.9940   45.6680 C.3   229  LEU229      0.0001
     47  N          2.7450   13.1330   51.4440 N.3   231  SER231     -0.1202
     48  CA         2.9910   14.5680   51.5080 C.3   231  SER231      0.2020
     49  C          1.7060   15.2930   51.0700 C.2   231  SER231      0.2618
     50  O          1.4940   16.4180   51.4930 O.2   231  SER231     -0.2717
     51  CB         4.1320   14.9800   50.5880 C.3   231  SER231      0.2103
     52  OG         3.7860   14.7500   49.2310 O.3   231  SER231     -0.2182
     53  N          0.8310   14.6460   50.2770 N.am  232  VAL232     -0.1979
     54  CA        -0.4520   15.2250   49.8300 C.3   232  VAL232      0.1595
     55  C         -1.5220   15.2270   50.9600 C.2   232  VAL232      0.2287
     56  O         -2.6050   15.7950   50.7620 O.2   232  VAL232     -0.2864
     57  CB        -0.9820   14.5870   48.5310 C.3   232  VAL232      0.0276
     58  CG1        0.1060   14.5280   47.4540 C.3   232  VAL232      0.0022
     59  CG2       -1.5950   13.2200   48.8170 C.3   232  VAL232      0.0022
     60  N          2.5860   20.4480   52.4400 N.3   239  THR239     -0.1218
     61  CA         2.3450   19.8170   51.1340 C.3   239  THR239      0.1862
     62  C          3.0160   20.6380   49.9840 C.2   239  THR239      0.2287
     63  O          3.6970   20.0550   49.1250 O.2   239  THR239     -0.2866
     64  CB         0.8340   19.6780   50.9160 C.3   239  THR239      0.1770
     65  OG1        0.3270   18.7920   51.9160 O.3   239  THR239     -0.2211
     66  CG2        0.4960   19.2100   49.5010 C.3   239  THR239      0.0375
     67  N          6.1800   19.5480   47.5210 N.3   243  ALA243     -0.1245
     68  CA         5.9910   19.5650   46.0630 C.3   243  ALA243      0.1562
     69  C          7.1910   20.2580   45.4230 C.2   243  ALA243      0.2260
     70  O          7.6500   19.8150   44.3660 O.2   243  ALA243     -0.2867
     71  CB         4.6970   20.3090   45.7190 C.3   243  ALA243      0.0290
     72  N          9.8350   17.6130   45.1800 N.3   246  ILE246     -0.1231
     73  CA         9.4340   16.6520   44.1410 C.3   246  ILE246      0.1692
     74  C          9.8450   17.1870   42.7820 C.2   246  ILE246      0.2592
     75  O         10.5200   16.4980   42.0170 O.2   246  ILE246     -0.2718
     76  CB         7.9080   16.3090   44.2300 C.3   246  ILE246      0.0266
     77  CG1        7.6400   15.5440   45.5610 C.3   246  ILE246      0.0019
     78  CG2        7.4080   15.5010   43.0230 C.3   246  ILE246      0.0020
     79  CD1        6.1630   15.5100   46.0930 C.3   246  ILE246      0.0001
     80  N          9.4280   18.4330   42.4860 N.am  247  TYR247     -0.1976
     81  CA         9.7570   19.0410   41.2040 C.3   247  TYR247      0.1639
     82  C         11.2580   19.3410   41.0500 C.2   247  TYR247      0.2290
     83  O         11.7640   19.1000   39.9490 O.2   247  TYR247     -0.2864
     84  CB         8.8660   20.2480   40.9190 C.3   247  TYR247      0.0560
     85  CG         7.4730   19.8250   40.5210 C.ar  247  TYR247     -0.0198
     86  CD1        6.4540   19.7500   41.4580 C.ar  247  TYR247     -0.0009
     87  CD2        7.1790   19.4660   39.2100 C.ar  247  TYR247     -0.0009
     88  CE1        5.1600   19.3730   41.0960 C.ar  247  TYR247      0.0417
     89  CE2        5.8960   19.0660   38.8390 C.ar  247  TYR247      0.0417
     90  CZ         4.8760   19.0740   39.7770 C.ar  247  TYR247      0.1957
     91  OH         3.6090   18.6850   39.4450 O.3   247  TYR247     -0.2866
     92  N         12.6710   16.0320   39.8030 N.3   250  PHE250     -0.1241
     93  CA        12.2940   15.7880   38.4160 C.3   250  PHE250      0.1605
     94  C         12.9860   16.7340   37.4490 C.2   250  PHE250      0.2264
     95  O         13.3620   16.2990   36.3640 O.2   250  PHE250     -0.2867
     96  CB        10.7810   15.8470   38.2370 C.3   250  PHE250      0.0534
     97  CG        10.0900   14.5840   38.6950 C.ar  250  PHE250     -0.0203
     98  CD1       10.4520   13.3440   38.1760 C.ar  250  PHE250     -0.0042
     99  CD2        9.0570   14.6360   39.6190 C.ar  250  PHE250     -0.0042
    100  CE1        9.7880   12.1850   38.5730 C.ar  250  PHE250     -0.0003
    101  CE2        8.3910   13.4700   40.0150 C.ar  250  PHE250     -0.0003
    102  CZ         8.7710   12.2590   39.4990 C.ar  250  PHE250     -0.0000
    103  N          6.4130   17.8280   32.8030 N.3   267  MET267     -0.1245
    104  CA         6.5960   17.7930   34.2540 C.3   267  MET267      0.1570
    105  C          8.0820   17.8050   34.6750 C.2   267  MET267      0.2261
    106  O          8.3980   18.3190   35.7400 O.2   267  MET267     -0.2867
    107  CB         5.8340   16.5930   34.8380 C.3   267  MET267      0.0387
    108  CG         6.0390   16.3830   36.3240 C.3   267  MET267      0.0595
    109  SD         5.8500   14.6350   36.7740 S.3   267  MET267     -0.1393
    110  CE         7.3910   14.0460   36.3280 C.3   267  MET267      0.0692
    111  N         -0.6980   20.2220   36.5470 N.3   279  GLY279     -0.1210
    112  CA        -0.0990   18.8960   36.7090 C.3   279  GLY279      0.1956
    113  C         -0.4680   18.2700   38.0430 C.2   279  GLY279      0.2611
    114  O         -0.7990   17.0820   38.0970 O.2   279  GLY279     -0.2717
    115  N         -0.4670   19.0720   39.1100 N.am  280  GLN280     -0.1979
    116  CA        -0.8640   18.6370   40.4440 C.3   280  GLN280      0.1601
    117  C         -2.3520   18.2760   40.4640 C.2   280  GLN280      0.2287
    118  O         -2.7040   17.2150   40.9450 O.2   280  GLN280     -0.2864
    119  CB        -0.4730   19.6750   41.4880 C.3   280  GLN280      0.0394
    120  CG         1.0300   19.7140   41.7290 C.3   280  GLN280      0.0908
    121  CD         1.4610   18.4420   42.4350 C.2   280  GLN280      0.2608
    122  OE1        1.0360   18.1490   43.5610 O.2   280  GLN280     -0.2717
    123  NE2        2.2830   17.6400   41.7730 N.am  280  GLN280     -0.0878
    124  N         -2.5840   14.9010   38.9210 N.3   283  PHE283     -0.1227
    125  CA        -2.0330   13.9050   39.8430 C.3   283  PHE283      0.1736
    126  C         -3.0200   13.5880   40.9580 C.2   283  PHE283      0.2595
    127  O         -3.2330   12.4070   41.2720 O.2   283  PHE283     -0.2718
    128  CB        -0.6810   14.3780   40.4090 C.3   283  PHE283      0.0547
    129  CG        -0.0450   13.2870   41.2510 C.ar  283  PHE283     -0.0202
    130  CD1        0.7300   12.2920   40.6600 C.ar  283  PHE283     -0.0042
    131  CD2       -0.2430   13.2380   42.6360 C.ar  283  PHE283     -0.0042
    132  CE1        1.2960   11.2720   41.4380 C.ar  283  PHE283     -0.0003
    133  CE2        0.3060   12.1980   43.4090 C.ar  283  PHE283     -0.0003
    134  CZ         1.0590   11.2160   42.7960 C.ar  283  PHE283     -0.0000
    135  N         -3.6470   14.6240   41.5600 N.am  284  TYR284     -0.1976
    136  CA        -4.6080   14.3600   42.6270 C.3   284  TYR284      0.1639
    137  C         -5.8370   13.6410   42.1000 C.2   284  TYR284      0.2290
    138  O         -6.2940   12.6790   42.7190 O.2   284  TYR284     -0.2864
    139  CB        -5.0170   15.6490   43.3440 C.3   284  TYR284      0.0560
    140  CG        -4.0520   16.1330   44.4160 C.ar  284  TYR284     -0.0198
    141  CD1       -2.7560   16.5160   44.0910 C.ar  284  TYR284     -0.0009
    142  CD2       -4.4510   16.2380   45.7660 C.ar  284  TYR284     -0.0009
    143  CE1       -1.8620   16.9450   45.0770 C.ar  284  TYR284      0.0417
    144  CE2       -3.5900   16.7560   46.7400 C.ar  284  TYR284      0.0417
    145  CZ        -2.2950   17.1100   46.3890 C.ar  284  TYR284      0.1957
    146  OH        -1.4260   17.6510   47.3070 O.3   284  TYR284     -0.2866
@<TRIPOS>BOND
     1   103   104    1
     2   104   105    1
     3   104   107    1
     4   105   106    2
     5   107   108    1
     6   108   109    1
     7   110   109    1
     8    95    94    2
     9   111   112    1
    10   112   113    1
    11    94    93    1
    12   113   114    2
    13   113   115   am
    14    98   100   ar
    15    98    97   ar
    16    96    93    1
    17    96    97    1
    18    93    92    1
    19   100   102   ar
    20    97    99   ar
    21    89    87   ar
    22    89    90   ar
    23   124   125    1
    24   115   116    1
    25    87    85   ar
    26    91    90    1
    27   102   101   ar
    28    26    25    2
    29    99   101   ar
    30    25    24    1
    31    90    88   ar
    32   125   128    1
    33   125   126    1
    34    83    82    2
    35   128   129    1
    36   116   117    1
    37   116   119    1
    38   117   118    2
    39    85    84    1
    40    85    86   ar
    41   130   129   ar
    42   130   132   ar
    43    27    24    1
    44    27    28    1
    45    24    23    1
    46    84    81    1
    47   126   127    2
    48   126   135   am
    49    82    81    1
    50    88    86   ar
    51    81    80    1
    52   129   131   ar
    53   132   134   ar
    54   119   120    1
    55   135   136    1
    56    29    28    1
    57   120   121    1
    58   123   121   am
    59    75    74    2
    60    28    30    1
    61   137   136    1
    62   137   138    2
    63   121   122    2
    64    80    74   am
    65   136   139    1
    66   131   133   ar
    67    74    73    1
    68   134   133   ar
    69    78    76    1
    70   139   140    1
    71    21    19   ar
    72    21    22   ar
    73   141   140   ar
    74   141   143   ar
    75    73    76    1
    76    73    72    1
    77    19    18   ar
    78    76    77    1
    79    70    69    2
    80   140   142   ar
    81    22    20   ar
    82   143   145   ar
    83    69    68    1
    84    18    20   ar
    85    18    17    1
    86    77    79    1
    87    46    44    1
    88    71    68    1
    89    45    44    1
    90   142   144   ar
    91     8    10   ar
    92     8     6   ar
    93    68    67    1
    94     5     6    1
    95     5     2    1
    96    17    14    1
    97   145   144   ar
    98   145   146    1
    99    10    11   ar
   100    44    43    1
   101     6     7   ar
   102    38    36   ar
   103     1     2    1
   104    13    14    1
   105    13     3   am
   106     2     3    1
   107    14    15    1
   108    58    57    1
   109    11    12    1
   110    11     9   ar
   111    43    40    1
   112     7     9   ar
   113    36    37   ar
   114    36    35    1
   115     3     4    2
   116    16    15    2
   117    57    59    1
   118    57    54    1
   119    35    32    1
   120    40    39    1
   121    40    41    1
   122    39    33   am
   123    34    33    2
   124    63    62    2
   125    52    51    1
   126    33    32    1
   127    42    41    2
   128    66    64    1
   129    32    31    1
   130    54    53    1
   131    54    55    1
   132    62    61    1
   133    53    49   am
   134    51    48    1
   135    56    55    2
   136    64    61    1
   137    64    65    1
   138    49    50    2
   139    49    48    1
   140    61    60    1
   141    47    48    1
