@<TRIPOS>MOLECULE
tmp/5c25A00.pdb
 172 171 0 0 0
SMALL
GASTEIGER

@<TRIPOS>ATOM
      1  N        187.7640  -21.2600  144.8450 N.3    97  PRO97      -0.2116
      2  CA       188.2150  -21.7470  143.5370 C.3    97  PRO97       0.1372
      3  C        187.1520  -22.5720  142.8200 C.2    97  PRO97       0.2244
      4  O        186.4030  -23.3060  143.4640 O.2    97  PRO97      -0.2868
      5  CB       189.4300  -22.6130  143.8850 C.3    97  PRO97       0.0268
      6  CG       189.9020  -22.0900  145.1970 C.3    97  PRO97       0.0207
      7  CD       188.6570  -21.7000  145.9300 C.3    97  PRO97       0.0892
      8  N        190.9030  -25.9880  137.8580 N.3   102  LEU102     -0.1231
      9  CA       191.9140  -26.8270  138.4890 C.3   102  LEU102      0.1693
     10  C        192.6940  -27.6340  137.4560 C.2   102  LEU102      0.2591
     11  O        192.2800  -27.7540  136.3030 O.2   102  LEU102     -0.2718
     12  CB       191.2650  -27.7710  139.5040 C.3   102  LEU102      0.0284
     13  CG       190.4930  -27.1220  140.6530 C.3   102  LEU102      0.0019
     14  CD1      189.9220  -28.1830  141.5830 C.3   102  LEU102      0.0001
     15  CD2      191.3830  -26.1560  141.4160 C.3   102  LEU102      0.0001
     16  N        193.8290  -28.1800  137.8790 N.am  103  LYS103     -0.1980
     17  CA       194.6280  -29.0580  137.0310 C.3   103  LYS103      0.1596
     18  C        194.5950  -30.4740  137.5950 C.2   103  LYS103      0.2287
     19  O        194.6900  -30.6610  138.8070 O.2   103  LYS103     -0.2864
     20  CB       196.0710  -28.5550  136.9250 C.3   103  LYS103      0.0298
     21  CG       196.3050  -27.4930  135.8530 C.3   103  LYS103      0.0038
     22  CD       195.6110  -26.1760  136.1790 C.3   103  LYS103      0.0206
     23  CE       196.0650  -25.6210  137.5200 C.3   103  LYS103      0.1093
     24  NZ       195.3560  -24.3580  137.8650 N.3   103  LYS103     -0.1314
     25  N        195.3470  -34.0650  138.9960 N.3   105  LYS105     -0.1245
     26  CA       196.4340  -34.5510  139.8350 C.3   105  LYS105      0.1561
     27  C        196.4110  -36.0720  139.9520 C.2   105  LYS105      0.2260
     28  O        195.3480  -36.6760  140.0900 O.2   105  LYS105     -0.2867
     29  CB       196.3600  -33.9170  141.2270 C.3   105  LYS105      0.0271
     30  CG       196.4320  -32.4000  141.2190 C.3   105  LYS105      0.0035
     31  CD       197.6690  -31.9190  140.4820 C.3   105  LYS105      0.0206
     32  CE       197.6700  -30.4100  140.3250 C.3   105  LYS105      0.1093
     33  NZ       198.8150  -29.9530  139.4930 N.3   105  LYS105     -0.1314
     34  N        196.3070  -36.9880  145.5020 N.3   108  VAL108     -0.1245
     35  CA       195.8740  -35.9250  146.4020 C.3   108  VAL108      0.1561
     36  C        195.6990  -36.4590  147.8200 C.2   108  VAL108      0.2260
     37  O        194.7220  -37.1450  148.1220 O.2   108  VAL108     -0.2867
     38  CB       194.5520  -35.2810  145.9360 C.3   108  VAL108      0.0252
     39  CG1      194.1080  -34.2100  146.9230 C.3   108  VAL108      0.0019
     40  CG2      194.7070  -34.6930  144.5420 C.3   108  VAL108      0.0019
     41  N        200.8720  -28.8250  144.8970 N.3   181  VAL181     -0.1231
     42  CA       199.9310  -27.7500  145.1830 C.3   181  VAL181      0.1692
     43  C        199.3000  -27.9610  146.5580 C.2   181  VAL181      0.2592
     44  O        198.9140  -29.0770  146.9120 O.2   181  VAL181     -0.2718
     45  CB       198.8280  -27.6510  144.1050 C.3   181  VAL181      0.0266
     46  CG1      199.3990  -27.0760  142.8180 C.3   181  VAL181      0.0020
     47  CG2      198.1940  -29.0110  143.8510 C.3   181  VAL181      0.0020
     48  N        199.2130  -26.8870  147.3360 N.am  182  ILE182     -0.1966
     49  CA       198.6760  -26.9670  148.6890 C.3   182  ILE182      0.1727
     50  C        197.4800  -26.0380  148.8600 C.2   182  ILE182      0.2616
     51  O        197.5670  -24.8450  148.5710 O.2   182  ILE182     -0.2715
     52  CB       199.7410  -26.6090  149.7450 C.3   182  ILE182      0.0290
     53  CG1      201.0360  -27.3850  149.4920 C.3   182  ILE182      0.0022
     54  CG2      199.2130  -26.8740  151.1500 C.3   182  ILE182      0.0023
     55  CD1      202.1470  -27.0500  150.4620 C.3   182  ILE182      0.0001
     56  N        196.3660  -26.5880  149.3290 N.am  183  TYR183     -0.1974
     57  CA       195.1640  -25.7950  149.5700 C.3   183  TYR183      0.1639
     58  C        194.6120  -26.0730  150.9620 C.2   183  TYR183      0.2290
     59  O        194.5240  -27.2230  151.3770 O.2   183  TYR183     -0.2864
     60  CB       194.1010  -26.0890  148.5100 C.3   183  TYR183      0.0560
     61  CG       192.7790  -25.3950  148.7540 C.ar  183  TYR183     -0.0198
     62  CD1      192.5700  -24.0880  148.3320 C.ar  183  TYR183     -0.0009
     63  CD2      191.7370  -26.0470  149.4030 C.ar  183  TYR183     -0.0009
     64  CE1      191.3640  -23.4500  148.5510 C.ar  183  TYR183      0.0417
     65  CE2      190.5280  -25.4170  149.6270 C.ar  183  TYR183      0.0417
     66  CZ       190.3470  -24.1180  149.1990 C.ar  183  TYR183      0.1957
     67  OH       189.1450  -23.4860  149.4200 O.3   183  TYR183     -0.2866
     68  N        191.5770  -25.9790  153.8100 N.3   185  TYR185     -0.1241
     69  CA       190.1410  -25.8980  154.0570 C.3   185  TYR185      0.1605
     70  C        189.7980  -26.4550  155.4320 C.2   185  TYR185      0.2264
     71  O        190.0790  -27.6190  155.7280 O.2   185  TYR185     -0.2867
     72  CB       189.3590  -26.6420  152.9730 C.3   185  TYR185      0.0534
     73  CG       187.8630  -26.6610  153.1980 C.ar  185  TYR185     -0.0201
     74  CD1      187.1020  -25.5100  153.0360 C.ar  185  TYR185     -0.0009
     75  CD2      187.2100  -27.8320  153.5620 C.ar  185  TYR185     -0.0009
     76  CE1      185.7340  -25.5240  153.2380 C.ar  185  TYR185      0.0417
     77  CE2      185.8430  -27.8560  153.7640 C.ar  185  TYR185      0.0417
     78  CZ       185.1110  -26.7000  153.6020 C.ar  185  TYR185      0.1957
     79  OH       183.7500  -26.7240  153.8040 O.3   185  TYR185     -0.2866
     80  N        195.2330  -29.9060  152.1050 N.3   190  TYR190     -0.1241
     81  CA       195.1800  -30.7770  150.9390 C.3   190  TYR190      0.1605
     82  C        196.4150  -30.5860  150.0660 C.2   190  TYR190      0.2264
     83  O        196.7340  -29.4630  149.6650 O.2   190  TYR190     -0.2867
     84  CB       193.9160  -30.5080  150.1220 C.3   190  TYR190      0.0534
     85  CG       192.6190  -30.6950  150.8820 C.ar  190  TYR190     -0.0201
     86  CD1      191.9770  -29.6150  151.4750 C.ar  190  TYR190     -0.0009
     87  CD2      192.0310  -31.9480  150.9960 C.ar  190  TYR190     -0.0009
     88  CE1      190.7870  -29.7810  152.1670 C.ar  190  TYR190      0.0417
     89  CE2      190.8430  -32.1230  151.6850 C.ar  190  TYR190      0.0417
     90  CZ       190.2250  -31.0370  152.2680 C.ar  190  TYR190      0.1957
     91  OH       189.0430  -31.2060  152.9550 O.3   190  TYR190     -0.2866
     92  N        198.3190  -31.9030  146.5330 N.3   192  GLY192     -0.1225
     93  CA       198.1810  -32.6360  145.2860 C.3   192  GLY192      0.1811
     94  C        199.4210  -32.5720  144.4140 C.2   192  GLY192      0.2280
     95  O        200.1520  -31.5840  144.4430 O.2   192  GLY192     -0.2866
     96  N        189.9850  -39.5710  147.6010 N.3   227  PRO227     -0.2116
     97  CA       189.1510  -39.2230  146.4430 C.3   227  PRO227      0.1372
     98  C        188.0110  -40.2160  146.2220 C.2   227  PRO227      0.2244
     99  O        188.2110  -41.4160  146.4100 O.2   227  PRO227     -0.2868
    100  CB       190.1420  -39.2620  145.2780 C.3   227  PRO227      0.0268
    101  CG       191.4470  -38.9180  145.8990 C.3   227  PRO227      0.0207
    102  CD       191.4220  -39.5390  147.2690 C.3   227  PRO227      0.0892
    103  N        186.3860  -36.1590  146.6620 N.3   229  PHE229     -0.1227
    104  CA       186.1470  -35.2560  147.7840 C.3   229  PHE229      0.1736
    105  C        184.8520  -34.4720  147.6060 C.2   229  PHE229      0.2595
    106  O        184.6050  -33.8950  146.5490 O.2   229  PHE229     -0.2718
    107  CB       187.3160  -34.2800  147.9550 C.3   229  PHE229      0.0547
    108  CG       188.6530  -34.9470  148.0900 C.ar  229  PHE229     -0.0202
    109  CD1      189.5420  -34.9630  147.0290 C.ar  229  PHE229     -0.0042
    110  CD2      189.0210  -35.5600  149.2760 C.ar  229  PHE229     -0.0042
    111  CE1      190.7740  -35.5770  147.1470 C.ar  229  PHE229     -0.0003
    112  CE2      190.2510  -36.1770  149.4000 C.ar  229  PHE229     -0.0003
    113  CZ       191.1290  -36.1850  148.3340 C.ar  229  PHE229     -0.0000
    114  N        184.0280  -34.4560  148.6480 N.am  230  LEU230     -0.1966
    115  CA       182.8280  -33.6280  148.6620 C.3   230  LEU230      0.1728
    116  C        183.1840  -32.2350  149.1710 C.2   230  LEU230      0.2616
    117  O        183.5360  -32.0670  150.3390 O.2   230  LEU230     -0.2715
    118  CB       181.7410  -34.2590  149.5330 C.3   230  LEU230      0.0311
    119  CG       181.3800  -35.7140  149.2250 C.3   230  LEU230      0.0022
    120  CD1      180.2130  -36.1720  150.0890 C.3   230  LEU230      0.0001
    121  CD2      181.0630  -35.8900  147.7480 C.3   230  LEU230      0.0001
    122  N        183.0920  -31.2380  148.2970 N.am  231  TRP231     -0.1974
    123  CA       183.6110  -29.9140  148.6200 C.3   231  TRP231      0.1640
    124  C        182.7920  -28.7740  148.0320 C.2   231  TRP231      0.2290
    125  O        182.7820  -28.5730  146.8180 O.2   231  TRP231     -0.2864
    126  CB       185.0560  -29.8040  148.1360 C.3   231  TRP231      0.0576
    127  CG       185.6820  -28.4720  148.3780 C.ar  231  TRP231      0.0006
    128  CD1      186.1510  -27.9900  149.5650 C.ar  231  TRP231      0.0946
    129  CD2      185.9300  -27.4520  147.4040 C.ar  231  TRP231      0.0152
    130  NE1      186.6670  -26.7290  149.3920 N.ar  231  TRP231     -0.2442
    131  CE2      186.5440  -26.3760  148.0740 C.ar  231  TRP231      0.0810
    132  CE3      185.6870  -27.3430  146.0320 C.ar  231  TRP231      0.0012
    133  CZ2      186.9190  -25.2060  147.4190 C.ar  231  TRP231      0.0191
    134  CZ3      186.0610  -26.1810  145.3830 C.ar  231  TRP231      0.0001
    135  CH2      186.6700  -25.1280  146.0770 C.ar  231  TRP231      0.0015
    136  N        184.9410  -33.8090  143.6890 N.3   236  LEU236     -0.1231
    137  CA       186.2770  -33.6710  143.1270 C.3   236  LEU236      0.1693
    138  C        186.9510  -35.0280  142.9500 C.2   236  LEU236      0.2592
    139  O        187.3070  -35.6890  143.9270 O.2   236  LEU236     -0.2718
    140  CB       187.1440  -32.7740  144.0140 C.3   236  LEU236      0.0284
    141  CG       186.6940  -31.3250  144.2070 C.3   236  LEU236      0.0019
    142  CD1      187.7060  -30.5590  145.0480 C.3   236  LEU236      0.0001
    143  CD2      186.4850  -30.6460  142.8650 C.3   236  LEU236      0.0001
    144  N        187.1150  -35.4330  141.6950 N.am  237  HIS237     -0.1962
    145  CA       187.8360  -36.6530  141.3550 C.3   237  HIS237      0.1772
    146  C        189.2110  -36.2730  140.8020 C.2   237  HIS237      0.2462
    147  O        189.3970  -35.1470  140.3410 O.2   237  HIS237     -0.2730
    148  CB       187.0420  -37.4860  140.3410 C.3   237  HIS237      0.0785
    149  CG       185.6520  -37.8220  140.7870 C.ar  237  HIS237      0.0821
    150  ND1      185.3070  -39.0590  141.2870 N.ar  237  HIS237     -0.2267
    151  CD2      184.5180  -37.0810  140.8040 C.ar  237  HIS237      0.1154
    152  CE1      184.0220  -39.0660  141.5930 C.ar  237  HIS237      0.1986
    153  NE2      183.5200  -37.8770  141.3110 N.ar  237  HIS237     -0.2212
    154  N        190.1830  -37.2010  140.8580 N.am  238  PRO238     -0.2727
    155  CA       191.5430  -36.9230  140.3750 C.3   238  PRO238      0.1402
    156  C        191.6190  -36.4090  138.9330 C.2   238  PRO238      0.2269
    157  O        192.4560  -35.5530  138.6440 O.2   238  PRO238     -0.2865
    158  CB       192.2310  -38.2850  140.4890 C.3   238  PRO238      0.0296
    159  CG       191.5320  -38.9540  141.6130 C.3   238  PRO238      0.0237
    160  CD       190.0960  -38.5190  141.5150 C.3   238  PRO238      0.0939
    161  N        189.3320  -31.1070  133.7460 N.3   320  TYR320     -0.1241
    162  CA       190.1250  -30.0520  134.3660 C.3   320  TYR320      0.1605
    163  C        190.8110  -29.1960  133.3060 C.2   320  TYR320      0.2264
    164  O        190.6800  -29.4490  132.1080 O.2   320  TYR320     -0.2867
    165  CB       191.1550  -30.6490  135.3280 C.3   320  TYR320      0.0534
    166  CG       190.5500  -31.1650  136.6160 C.ar  320  TYR320     -0.0201
    167  CD1      190.8620  -32.4310  137.0950 C.ar  320  TYR320     -0.0009
    168  CD2      189.6720  -30.3840  137.3560 C.ar  320  TYR320     -0.0009
    169  CE1      190.3120  -32.9060  138.2710 C.ar  320  TYR320      0.0417
    170  CE2      189.1180  -30.8500  138.5340 C.ar  320  TYR320      0.0417
    171  CZ       189.4410  -32.1120  138.9860 C.ar  320  TYR320      0.1957
    172  OH       188.8930  -32.5830  140.1570 O.3   320  TYR320     -0.2866
@<TRIPOS>BOND
     1   164   163    2
     2   163   162    1
     3   161   162    1
     4   162   165    1
     5   165   166    1
     6    21    22    1
     7    21    20    1
     8    22    23    1
     9    11    10    2
    10   166   167   ar
    11   166   168   ar
    12    20    17    1
    13    17    18    1
    14    17    16    1
    15   167   169   ar
    16   168   170   ar
    17    10    16   am
    18    10     9    1
    19    23    24    1
    20    18    19    2
    21     8     9    1
    22   169   171   ar
    23     9    12    1
    24   170   171   ar
    25   157   156    2
    26   156   155    1
    27   171   172    1
    28    25    26    1
    29    33    32    1
    30    12    13    1
    31    26    27    1
    32    26    29    1
    33    27    28    2
    34    32    31    1
    35   147   146    2
    36   148   149    1
    37   148   145    1
    38   155   158    1
    39   155   154    1
    40    31    30    1
    41   158   159    1
    42    13    15    1
    43    13    14    1
    44   149   151   ar
    45   149   150   ar
    46   146   154   am
    47   146   145    1
    48   151   153   ar
    49   154   160    1
    50    30    29    1
    51   150   152   ar
    52   153   152   ar
    53   145   144    1
    54   160   159    1
    55   144   138   am
    56    46    45    1
    57     3     4    2
    58     3     2    1
    59   143   141    1
    60   138   137    1
    61   138   139    2
    62   137   136    1
    63   137   140    1
    64     2     5    1
    65     2     1    1
    66    47    45    1
    67     5     6    1
    68   140   141    1
    69    45    42    1
    70   141   142    1
    71    94    95    2
    72    94    93    1
    73    40    38    1
    74     1     7    1
    75    41    42    1
    76    42    43    1
    77     6     7    1
    78   100   101    1
    79   100    97    1
    80    93    92    1
    81   134   132   ar
    82   134   135   ar
    83    34    35    1
    84   101   102    1
    85    38    35    1
    86    38    39    1
    87   132   129   ar
    88   135   133   ar
    89    98    99    2
    90    98    97    1
    91    35    36    1
    92    97    96    1
    93   106   105    2
    94    43    44    2
    95    43    48   am
    96   103   104    1
    97   125   124    2
    98   109   111   ar
    99   109   108   ar
   100   111   113   ar
   101   102    96    1
   102    48    49    1
   103   129   131   ar
   104   129   127   ar
   105   133   131   ar
   106   105   104    1
   107   105   114   am
   108   121   119    1
   109   104   107    1
   110    36    37    2
   111   107   108    1
   112   124   123    1
   113   131   130   ar
   114   108   110   ar
   115   126   127    1
   116   126   123    1
   117   122   123    1
   118   122   116   am
   119    62    64   ar
   120    62    61   ar
   121   113   112   ar
   122   127   128   ar
   123    60    61    1
   124    60    57    1
   125    64    66   ar
   126    51    50    2
   127   114   115    1
   128   115   116    1
   129   115   118    1
   130    49    50    1
   131    49    52    1
   132    61    63   ar
   133    50    56   am
   134   116   117    2
   135    66    67    1
   136    66    65   ar
   137   119   118    1
   138   119   120    1
   139   110   112   ar
   140    56    57    1
   141   130   128   ar
   142    63    65   ar
   143    53    52    1
   144    53    55    1
   145    57    58    1
   146    83    82    2
   147    52    54    1
   148    82    81    1
   149    84    85    1
   150    84    81    1
   151    85    87   ar
   152    85    86   ar
   153    81    80    1
   154    58    59    2
   155    87    89   ar
   156    86    88   ar
   157    89    90   ar
   158    88    90   ar
   159    90    91    1
   160    72    73    1
   161    72    69    1
   162    74    73   ar
   163    74    76   ar
   164    73    75   ar
   165    76    78   ar
   166    75    77   ar
   167    78    77   ar
   168    78    79    1
   169    68    69    1
   170    69    70    1
   171    70    71    2
