@<TRIPOS>MOLECULE
tmp/5c26A00.pdb
 164 163 0 0 0
SMALL
GASTEIGER

@<TRIPOS>ATOM
      1  N         -5.3190   15.8650  -15.5590 N.3   132  ASP132     -0.1239
      2  CA        -4.0730   15.1630  -15.1820 C.3   132  ASP132      0.1674
      3  C         -3.5040   14.4200  -16.3990 C.2   132  ASP132      0.2266
      4  O         -3.1030   13.2620  -16.3100 O.2   132  ASP132     -0.2867
      5  CB        -4.3000   14.2090  -13.9890 C.3   132  ASP132      0.1410
      6  CG        -3.0450   13.8760  -13.2070 C.2   132  ASP132      0.3668
      7  OD1       -1.9860   14.4780  -13.4940 O.co2 132  ASP132     -0.2456
      8  OD2       -3.1130   12.9860  -12.3380 O.co2 132  ASP132     -0.2456
      9  N          2.5960    9.5090  -17.7860 N.3   136  ARG136     -0.1231
     10  CA         2.3880    8.5260  -16.7120 C.3   136  ARG136      0.1694
     11  C          0.9460    7.9960  -16.6900 C.2   136  ARG136      0.2592
     12  O          0.7070    6.9010  -16.1550 O.2   136  ARG136     -0.2718
     13  CB         2.7370    9.1240  -15.3070 C.3   136  ARG136      0.0321
     14  CG         1.7810   10.2500  -14.8640 C.3   136  ARG136      0.0489
     15  CD         2.1000   10.8280  -13.4780 C.3   136  ARG136      0.2205
     16  NE         1.3650   12.0820  -13.2540 N.pl3 136  ARG136     -0.0865
     17  CZ         1.7500   13.2680  -13.7240 C.cat 136  ARG136      0.5346
     18  NH1        2.8970   13.3900  -14.3790 N.pl3 136  ARG136      0.1354
     19  NH2        1.0140   14.3470  -13.5030 N.pl3 136  ARG136      0.1354
     20  N         -0.0080    8.7900  -17.2320 N.am  137  ASN137     -0.1974
     21  CA        -1.4440    8.4660  -17.2840 C.3   137  ASN137      0.1688
     22  C         -1.9340    7.9370  -18.6130 C.2   137  ASN137      0.2292
     23  O         -3.1310    7.7960  -18.8150 O.2   137  ASN137     -0.2864
     24  CB        -2.3060    9.6000  -16.7310 C.3   137  ASN137      0.1181
     25  CG        -2.0380    9.8510  -15.2740 C.2   137  ASN137      0.2629
     26  OD1       -1.7150    8.9220  -14.5220 O.2   137  ASN137     -0.2716
     27  ND2       -2.2080   11.0960  -14.8380 N.am  137  ASN137     -0.0877
     28  N         -6.6630    7.3940  -15.3280 N.3   150  ASP150     -0.1239
     29  CA        -6.5810    8.2500  -14.1510 C.3   150  ASP150      0.1674
     30  C         -7.4490    9.4990  -14.2260 C.2   150  ASP150      0.2266
     31  O         -6.9640   10.6170  -14.4550 O.2   150  ASP150     -0.2867
     32  CB        -5.1160    8.5810  -13.7910 C.3   150  ASP150      0.1410
     33  CG        -4.9390    9.1250  -12.3820 C.2   150  ASP150      0.3668
     34  OD1       -5.9680    9.4000  -11.7110 O.co2 150  ASP150     -0.2456
     35  OD2       -3.7850    9.2920  -11.9570 O.co2 150  ASP150     -0.2456
     36  N         -8.7470   13.6460  -11.0370 N.3   153  LEU153     -0.1245
     37  CA        -8.9640   15.1050  -10.9790 C.3   153  LEU153      0.1561
     38  C         -9.9950   15.5680  -12.0450 C.2   153  LEU153      0.2260
     39  O        -10.2100   16.7690  -12.2030 O.2   153  LEU153     -0.2867
     40  CB        -7.6280   15.8790  -11.1680 C.3   153  LEU153      0.0270
     41  CG        -6.5580   15.7330  -10.0640 C.3   153  LEU153      0.0019
     42  CD1       -5.1980   16.2920  -10.5450 C.3   153  LEU153      0.0001
     43  CD2       -6.9810   16.4590   -8.7860 C.3   153  LEU153      0.0001
     44  N        -10.2560   26.1940   -4.5290 N.3   166  THR166     -0.1203
     45  CA        -8.9570   26.3530   -3.8750 C.3   166  THR166      0.1994
     46  C         -7.9200   25.4860   -4.5960 C.2   166  THR166      0.2618
     47  O         -8.2430   24.3840   -5.0600 O.2   166  THR166     -0.2717
     48  CB        -9.0410   25.9710   -2.3820 C.3   166  THR166      0.1784
     49  OG1      -10.3350   26.2850   -1.8550 O.3   166  THR166     -0.2211
     50  CG2       -7.9590   26.6440   -1.5430 C.3   166  THR166      0.0376
     51  N         -6.6770   25.9890   -4.6820 N.am  167  HIS167     -0.1961
     52  CA        -5.5350   25.2900   -5.2770 C.3   167  HIS167      0.1787
     53  C         -5.1750   24.1420   -4.3100 C.2   167  HIS167      0.2621
     54  O         -5.2130   24.3330   -3.0910 O.2   167  HIS167     -0.2715
     55  CB        -4.3570   26.2860   -5.4170 C.3   167  HIS167      0.0785
     56  CG        -3.1870   25.8310   -6.2450 C.ar  167  HIS167      0.0821
     57  ND1       -2.5220   24.6390   -5.9850 N.ar  167  HIS167     -0.2267
     58  CD2       -2.5310   26.4850   -7.2340 C.ar  167  HIS167      0.1154
     59  CE1       -1.5290   24.5820   -6.8580 C.ar  167  HIS167      0.1986
     60  NE2       -1.4910   25.6710   -7.6290 N.ar  167  HIS167     -0.2212
     61  N         -4.9050   22.9600   -4.8590 N.am  168  GLY168     -0.1940
     62  CA        -4.5210   21.7790   -4.0860 C.3   168  GLY168      0.2014
     63  C         -3.2040   21.2150   -4.5780 C.2   168  GLY168      0.2639
     64  O         -2.4200   21.9500   -5.1830 O.2   168  GLY168     -0.2714
     65  N         -2.9400   19.9110   -4.3330 N.am  169  LYS169     -0.1963
     66  CA        -1.7210   19.2520   -4.8320 C.3   169  LYS169      0.1728
     67  C         -1.9240   19.0090   -6.3380 C.2   169  LYS169      0.2616
     68  O         -2.6210   18.0710   -6.7260 O.2   169  LYS169     -0.2715
     69  CB        -1.4400   17.9370   -4.0820 C.3   169  LYS169      0.0311
     70  CG        -0.8900   18.1190   -2.6730 C.3   169  LYS169      0.0038
     71  CD        -0.5060   16.7740   -2.0730 C.3   169  LYS169      0.0206
     72  CE         0.0070   16.8920   -0.6590 C.3   169  LYS169      0.1093
     73  NZ         0.2470   15.5550   -0.0540 N.3   169  LYS169     -0.1314
     74  N         -1.3640   19.9020   -7.1800 N.am  170  TRP170     -0.1960
     75  CA        -1.5570   19.8710   -8.6360 C.3   170  TRP170      0.1756
     76  C         -0.3120   19.4820   -9.4680 C.2   170  TRP170      0.2462
     77  O          0.7970   19.9020   -9.1210 O.2   170  TRP170     -0.2730
     78  CB        -2.0620   21.2550   -9.1100 C.3   170  TRP170      0.0590
     79  CG        -3.5020   21.6230   -8.8010 C.ar  170  TRP170      0.0006
     80  CD1       -4.4710   20.8190   -8.2680 C.ar  170  TRP170      0.0946
     81  CD2       -4.1350   22.8890   -9.0690 C.ar  170  TRP170      0.0152
     82  NE1       -5.6570   21.5170   -8.1530 N.ar  170  TRP170     -0.2442
     83  CE2       -5.4770   22.7900   -8.6360 C.ar  170  TRP170      0.0810
     84  CE3       -3.6880   24.1070   -9.6150 C.ar  170  TRP170      0.0012
     85  CZ2       -6.3780   23.8640   -8.7270 C.ar  170  TRP170      0.0191
     86  CZ3       -4.5820   25.1680   -9.7180 C.ar  170  TRP170      0.0001
     87  CH2       -5.9120   25.0400   -9.2820 C.ar  170  TRP170      0.0015
     88  N         -0.4890   18.7990  -10.6440 N.am  171  PRO171     -0.2716
     89  CA         0.6690   18.5310  -11.5300 C.3   171  PRO171      0.1536
     90  C          1.0100   19.8020  -12.3310 C.2   171  PRO171      0.2598
     91  O          0.7860   19.8670  -13.5400 O.2   171  PRO171     -0.2715
     92  CB         0.1540   17.3960  -12.4340 C.3   171  PRO171      0.0310
     93  CG        -1.3290   17.6360  -12.5290 C.3   171  PRO171      0.0237
     94  CD        -1.7440   18.2510  -11.2100 C.3   171  PRO171      0.0939
     95  N          1.5270   20.8390  -11.6340 N.am  172  VAL172     -0.1964
     96  CA         1.8190   22.1780  -12.1810 C.3   172  VAL172      0.1727
     97  C          2.6140   22.2260  -13.5100 C.2   172  VAL172      0.2616
     98  O          2.2910   23.0390  -14.3800 O.2   172  VAL172     -0.2715
     99  CB         2.3770   23.1090  -11.0520 C.3   172  VAL172      0.0290
    100  CG1        2.9550   24.4140  -11.6080 C.3   172  VAL172      0.0023
    101  CG2        1.2880   23.4010  -10.0210 C.3   172  VAL172      0.0023
    102  N          3.6040   21.3190  -13.7000 N.am  173  LYS173     -0.1963
    103  CA         4.3910   21.2840  -14.9410 C.3   173  LYS173      0.1728
    104  C          3.5400   20.9030  -16.1640 C.2   173  LYS173      0.2616
    105  O          3.9610   21.1530  -17.2970 O.2   173  LYS173     -0.2715
    106  CB         5.6080   20.3540  -14.8070 C.3   173  LYS173      0.0311
    107  CG         6.7580   20.9890  -14.0310 C.3   173  LYS173      0.0038
    108  CD         7.7690   19.9610  -13.5890 C.3   173  LYS173      0.0206
    109  CE         8.8820   20.6660  -12.8500 C.3   173  LYS173      0.1093
    110  NZ         9.7950   19.7190  -12.1570 N.3   173  LYS173     -0.1314
    111  N          2.3550   20.2930  -15.9470 N.am  174  TRP174     -0.1974
    112  CA         1.4890   19.9410  -17.0810 C.3   174  TRP174      0.1640
    113  C          0.3620   20.9700  -17.2860 C.2   174  TRP174      0.2290
    114  O         -0.4260   20.8310  -18.2250 O.2   174  TRP174     -0.2864
    115  CB         0.9350   18.5020  -16.9410 C.3   174  TRP174      0.0576
    116  CG         1.9570   17.4140  -17.1550 C.ar  174  TRP174      0.0006
    117  CD1        2.1530   16.6800  -18.2890 C.ar  174  TRP174      0.0946
    118  CD2        2.9540   16.9760  -16.2130 C.ar  174  TRP174      0.0152
    119  NE1        3.2340   15.8340  -18.1240 N.ar  174  TRP174     -0.2442
    120  CE2        3.7280   15.9820  -16.8520 C.ar  174  TRP174      0.0810
    121  CE3        3.2750   17.3400  -14.8900 C.ar  174  TRP174      0.0012
    122  CZ2        4.8030   15.3440  -16.2150 C.ar  174  TRP174      0.0191
    123  CZ3        4.3430   16.7030  -14.2560 C.ar  174  TRP174      0.0001
    124  CH2        5.1170   15.7500  -14.9290 C.ar  174  TRP174      0.0015
    125  N         -7.2710   29.5790  -12.0850 N.3   183  TYR183     -0.1241
    126  CA        -7.8670   28.3110  -11.6080 C.3   183  TYR183      0.1605
    127  C         -8.9680   27.8010  -12.5540 C.2   183  TYR183      0.2264
    128  O         -9.8730   27.0970  -12.1130 O.2   183  TYR183     -0.2867
    129  CB        -8.4080   28.4220  -10.1580 C.3   183  TYR183      0.0534
    130  CG        -7.4270   28.8210   -9.0760 C.ar  183  TYR183     -0.0201
    131  CD1       -6.0510   28.7490   -9.2870 C.ar  183  TYR183     -0.0009
    132  CD2       -7.8720   29.1970   -7.8110 C.ar  183  TYR183     -0.0009
    133  CE1       -5.1450   29.1090   -8.2890 C.ar  183  TYR183      0.0417
    134  CE2       -6.9760   29.5490   -6.8020 C.ar  183  TYR183      0.0417
    135  CZ        -5.6120   29.5000   -7.0450 C.ar  183  TYR183      0.1957
    136  OH        -4.7260   29.8410   -6.0520 O.3   183  TYR183     -0.2866
    137  N         11.4410   13.4140  -17.6800 N.3   207  LYS207     -0.1245
    138  CA        10.5790   14.3520  -16.9350 C.3   207  LYS207      0.1561
    139  C         10.6440   15.7310  -17.6150 C.2   207  LYS207      0.2260
    140  O         11.7350   16.1670  -17.9780 O.2   207  LYS207     -0.2867
    141  CB        11.0570   14.5270  -15.4780 C.3   207  LYS207      0.0271
    142  CG        11.2100   13.2520  -14.6560 C.3   207  LYS207      0.0035
    143  CD        12.1740   13.4940  -13.4860 C.3   207  LYS207      0.0206
    144  CE        11.9090   12.6200  -12.2790 C.3   207  LYS207      0.1093
    145  NZ        12.3940   11.2240  -12.4620 N.3   207  LYS207     -0.1314
    146  N         11.5870   23.9990  -10.4250 N.3   213  LYS213     -0.1231
    147  CA        10.4500   24.0280   -9.4880 C.3   213  LYS213      0.1693
    148  C          9.2460   24.5810  -10.2700 C.2   213  LYS213      0.2593
    149  O          9.4440   25.2890  -11.2580 O.2   213  LYS213     -0.2718
    150  CB        10.7510   25.0040   -8.3260 C.3   213  LYS213      0.0285
    151  CG        11.8820   24.5580   -7.4000 C.3   213  LYS213      0.0035
    152  CD        12.1680   25.5920   -6.3180 C.3   213  LYS213      0.0206
    153  CE        13.2260   25.1010   -5.3610 C.3   213  LYS213      0.1093
    154  NZ        13.6500   26.1620   -4.4120 N.3   213  LYS213     -0.1314
    155  N          8.0250   24.3370   -9.7770 N.am  214  GLY214     -0.1942
    156  CA         6.7950   24.8530  -10.3890 C.3   214  GLY214      0.2014
    157  C          6.8180   26.3470  -10.6680 C.2   214  GLY214      0.2639
    158  O          6.4800   26.7680  -11.7740 O.2   214  GLY214     -0.2714
    159  N          7.2700   27.1610   -9.6820 N.am  215  SER215     -0.1949
    160  CA         7.3770   28.6340   -9.7890 C.3   215  SER215      0.1924
    161  C          8.3470   29.0980  -10.8680 C.2   215  SER215      0.2314
    162  O          8.0740   30.0900  -11.5590 O.2   215  SER215     -0.2863
    163  CB         7.7440   29.2530   -8.4400 C.3   215  SER215      0.2116
    164  OG         8.8500   28.6060   -7.8280 O.3   215  SER215     -0.2180
@<TRIPOS>BOND
     1    23    22    2
     2    22    21    1
     3   117   119   ar
     4   117   116   ar
     5   114   113    2
     6   119   120   ar
     7   140   139    2
     8     9    10    1
     9   137   138    1
    10   139   138    1
    11   105   104    2
    12   113   112    1
    13    21    20    1
    14    21    24    1
    15    20    11   am
    16   116   115    1
    17   116   118   ar
    18   112   115    1
    19   112   111    1
    20   138   141    1
    21   120   122   ar
    22   120   118   ar
    23    24    25    1
    24    10    11    1
    25    10    13    1
    26    11    12    2
    27     3     4    2
    28     3     2    1
    29   122   124   ar
    30   118   121   ar
    31   104   111   am
    32   104   103    1
    33     1     2    1
    34   141   142    1
    35    28    29    1
    36    13    14    1
    37    25    27   am
    38    25    26    2
    39     2     5    1
    40   103   106    1
    41   103   102    1
    42   124   123   ar
    43   121   123   ar
    44    14    15    1
    45   106   107    1
    46   142   143    1
    47    31    30    2
    48    98    97    2
    49    18    17    1
    50    30    29    1
    51    29    32    1
    52   107   108    1
    53     5     6    1
    54    32    33    1
    55    17    19    1
    56    17    16    2
    57   102    97   am
    58   108   109    1
    59    91    90    2
    60    97    96    1
    61     7     6   ar
    62   143   144    1
    63    15    16    1
    64     6     8   ar
    65   109   110    1
    66   127   128    2
    67   127   126    1
    68    93    92    1
    69    93    94    1
    70   145   144    1
    71    92    89    1
    72    33    35   ar
    73    33    34   ar
    74    90    95   am
    75    90    89    1
    76    39    38    2
    77    96    95    1
    78    96    99    1
    79   125   126    1
    80    38    37    1
    81   158   157    2
    82   100    99    1
    83   126   129    1
    84   162   161    2
    85    89    88    1
    86   149   148    2
    87    94    88    1
    88    40    37    1
    89    40    41    1
    90    99   101    1
    91    36    37    1
    92   161   160    1
    93   157   156    1
    94   157   159   am
    95    88    76   am
    96    42    41    1
    97   146   147    1
    98   156   155    1
    99   148   155   am
   100   148   147    1
   101   129   130    1
   102    41    43    1
   103   160   159    1
   104   160   163    1
   105    86    84   ar
   106    86    87   ar
   107    84    81   ar
   108   147   150    1
   109    76    77    2
   110    76    75    1
   111   131   130   ar
   112   131   133   ar
   113    87    85   ar
   114    78    79    1
   115    78    75    1
   116   130   132   ar
   117    81    79   ar
   118    81    83   ar
   119    79    80   ar
   120    85    83   ar
   121    83    82   ar
   122    75    74    1
   123   163   164    1
   124   150   151    1
   125   133   135   ar
   126    80    82   ar
   127   132   134   ar
   128    60    58   ar
   129    60    59   ar
   130   151   152    1
   131    58    56   ar
   132    74    67   am
   133   135   134   ar
   134   135   136    1
   135    59    57   ar
   136    68    67    2
   137    67    66    1
   138   152   153    1
   139    56    57   ar
   140    56    55    1
   141    55    52    1
   142   153   154    1
   143    52    51    1
   144    52    53    1
   145    64    63    2
   146    47    46    2
   147    61    53   am
   148    61    62    1
   149    66    65    1
   150    66    69    1
   151    51    46   am
   152    46    45    1
   153    63    65   am
   154    63    62    1
   155    44    45    1
   156    53    54    2
   157    69    70    1
   158    45    48    1
   159    70    71    1
   160    48    49    1
   161    48    50    1
   162    71    72    1
   163    72    73    1
