@<TRIPOS>MOLECULE
tmp/5c26A01.pdb
 172 161 0 0 0
SMALL
GASTEIGER

@<TRIPOS>ATOM
      1  N          0.9230   -9.8040   -5.5610 N.3    13  LYS13      -0.1245
      2  CA         1.7980   -8.8310   -6.2140 C.3    13  LYS13       0.1561
      3  C          1.0450   -7.5150   -6.4870 C.2    13  LYS13       0.2260
      4  O          0.0240   -7.4930   -7.1840 O.2    13  LYS13      -0.2867
      5  CB         2.4190   -9.4110   -7.5020 C.3    13  LYS13       0.0271
      6  CG         3.6430   -8.6430   -8.0030 C.3    13  LYS13       0.0035
      7  CD         3.3180   -7.7500   -9.2020 C.3    13  LYS13       0.0206
      8  CE         4.4660   -6.8370   -9.5590 C.3    13  LYS13       0.1093
      9  NZ         4.1950   -6.0730  -10.8040 N.3    13  LYS13      -0.1314
     10  N          0.9320   -3.8500   -8.1530 N.3    15  LEU15      -0.1231
     11  CA         1.4070   -3.1790   -9.3700 C.3    15  LEU15       0.1693
     12  C          2.0550   -1.8230   -9.0780 C.2    15  LEU15       0.2593
     13  O          3.0400   -1.4590   -9.7260 O.2    15  LEU15      -0.2718
     14  CB         0.2590   -2.9680  -10.3660 C.3    15  LEU15       0.0284
     15  CG        -0.2340   -4.1630  -11.1460 C.3    15  LEU15       0.0019
     16  CD1       -1.6140   -3.8890  -11.6750 C.3    15  LEU15       0.0001
     17  CD2        0.7190   -4.5150  -12.2850 C.3    15  LEU15       0.0001
     18  N          1.4520   -1.0790   -8.1530 N.am   16  GLY16      -0.1942
     19  CA         1.8930    0.2420   -7.7250 C.3    16  GLY16       0.2014
     20  C          1.1890    0.6940   -6.4620 C.2    16  GLY16       0.2639
     21  O          0.2450    0.0400   -6.0090 O.2    16  GLY16      -0.2714
     22  N          1.6480    1.8150   -5.8770 N.am   17  SER17      -0.1949
     23  CA         1.0840    2.3720   -4.6430 C.3    17  SER17       0.1924
     24  C          1.2470    3.8820   -4.5320 C.2    17  SER17       0.2314
     25  O          2.3090    4.4230   -4.8510 O.2    17  SER17      -0.2863
     26  CB         1.6850    1.6950   -3.4140 C.3    17  SER17       0.2116
     27  OG         3.0940    1.8400   -3.3800 O.3    17  SER17      -0.2180
     28  N         -3.4430    7.2260   -1.8840 N.3    20  PHE20      -0.1241
     29  CA        -4.8050    6.6870   -1.8890 C.3    20  PHE20       0.1605
     30  C         -4.8190    5.2500   -1.3520 C.2    20  PHE20       0.2264
     31  O         -5.8150    4.8170   -0.7720 O.2    20  PHE20      -0.2867
     32  CB        -5.4110    6.7250   -3.3130 C.3    20  PHE20       0.0534
     33  CG        -4.6350    5.9770   -4.3800 C.ar   20  PHE20      -0.0203
     34  CD1       -4.8290    4.6130   -4.5800 C.ar   20  PHE20      -0.0042
     35  CD2       -3.7290    6.6410   -5.1990 C.ar   20  PHE20      -0.0042
     36  CE1       -4.0930    3.9200   -5.5490 C.ar   20  PHE20      -0.0003
     37  CE2       -3.0080    5.9490   -6.1800 C.ar   20  PHE20      -0.0003
     38  CZ        -3.2010    4.5950   -6.3520 C.ar   20  PHE20      -0.0000
     39  N         -2.6060   -0.5050   -5.9790 N.3    23  VAL23      -0.1245
     40  CA        -3.1480   -1.0250   -7.2320 C.3    23  VAL23       0.1561
     41  C         -2.6290   -2.4560   -7.3630 C.2    23  VAL23       0.2260
     42  O         -1.4160   -2.6840   -7.2980 O.2    23  VAL23      -0.2867
     43  CB        -2.8410   -0.1720   -8.4960 C.3    23  VAL23       0.0252
     44  CG1       -3.5310   -0.7590   -9.7310 C.3    23  VAL23       0.0019
     45  CG2       -3.2530    1.2830   -8.3000 C.3    23  VAL23       0.0019
     46  N         -7.1540   -4.4850  -13.3050 N.3    38  ALA38      -0.1245
     47  CA        -6.2770   -3.6680  -12.4880 C.3    38  ALA38       0.1562
     48  C         -7.2310   -3.0790  -11.4350 C.2    38  ALA38       0.2260
     49  O         -8.2950   -2.5770  -11.7890 O.2    38  ALA38      -0.2867
     50  CB        -5.6310   -2.5830  -13.3250 C.3    38  ALA38       0.0290
     51  N         -7.7780   -0.6600   -8.0160 N.3    40  LYS40      -0.1245
     52  CA        -7.3540    0.4430   -7.1610 C.3    40  LYS40       0.1561
     53  C         -8.0100    0.2120   -5.7960 C.2    40  LYS40       0.2260
     54  O         -9.2400    0.1930   -5.6970 O.2    40  LYS40      -0.2867
     55  CB        -7.8030    1.7840   -7.7780 C.3    40  LYS40       0.0271
     56  CG        -7.2300    3.0210   -7.1030 C.3    40  LYS40       0.0035
     57  CD        -7.4880    4.2680   -7.9410 C.3    40  LYS40       0.0206
     58  CE        -7.0730    5.5270   -7.2260 C.3    40  LYS40       0.1093
     59  NZ        -7.3840    6.7440   -8.0180 N.3    40  LYS40      -0.1314
     60  N        -14.4490    9.5230   -9.2900 N.3    58  GLU58      -0.1245
     61  CA       -13.6340    8.9340  -10.3610 C.3    58  GLU58       0.1567
     62  C        -14.4520    7.8330  -11.0920 C.2    58  GLU58       0.2260
     63  O        -14.5230    7.8320  -12.3210 O.2    58  GLU58      -0.2867
     64  CB       -12.3600    8.3540   -9.7340 C.3    58  GLU58       0.0388
     65  CG       -11.3390    7.8020  -10.7170 C.3    58  GLU58       0.1160
     66  CD       -10.0370    7.3760  -10.0720 C.2    58  GLU58       0.3649
     67  OE1       -9.8250    7.6900   -8.8790 O.co2  58  GLU58      -0.2457
     68  OE2       -9.2150    6.7430  -10.7710 O.co2  58  GLU58      -0.2457
     69  N         -9.4700    3.9400  -20.7710 N.3    71  VAL71      -0.1245
     70  CA        -9.5390    2.7500  -19.8980 C.3    71  VAL71       0.1561
     71  C        -11.0220    2.5730  -19.4430 C.2    71  VAL71       0.2260
     72  O        -11.6340    3.5230  -18.9530 O.2    71  VAL71      -0.2867
     73  CB        -8.5570    2.8500  -18.6710 C.3    71  VAL71       0.0252
     74  CG1       -8.8520    1.7700  -17.6160 C.3    71  VAL71       0.0019
     75  CG2       -7.0970    2.7600  -19.1230 C.3    71  VAL71       0.0019
     76  N        -10.8400   -2.0650  -12.9290 N.3    86  MET86      -0.1230
     77  CA       -10.6830   -1.6230  -14.3250 C.3    86  MET86       0.1702
     78  C        -10.1390   -2.7300  -15.2140 C.2    86  MET86       0.2595
     79  O         -9.4650   -3.6210  -14.7230 O.2    86  MET86      -0.2718
     80  CB        -9.7070   -0.4360  -14.3640 C.3    86  MET86       0.0401
     81  CG       -10.2260    0.8240  -13.6570 C.3    86  MET86       0.0596
     82  SD        -8.9030    2.0410  -13.3540 S.3    86  MET86      -0.1393
     83  CE        -8.0470    1.2620  -11.9960 C.3    86  MET86       0.0692
     84  N        -10.4090   -2.6550  -16.5210 N.am   87  GLU87      -0.1920
     85  CA        -9.8520   -3.5560  -17.5230 C.3    87  GLU87       0.1949
     86  C         -8.3210   -3.3060  -17.5040 C.2    87  GLU87       0.2659
     87  O         -7.8790   -2.1500  -17.4600 O.2    87  GLU87      -0.2711
     88  CB       -10.4520   -3.2000  -18.8940 C.2    87  GLU87       0.0111
     89  CG        -9.8610   -3.9350  -20.0850 C.2    87  GLU87       0.0838
     90  CD       -10.5870   -3.7430  -21.4050 C.2    87  GLU87       0.3877
     91  OE1      -11.7660   -3.3190  -21.3900 O.co2  87  GLU87      -0.2406
     92  OE2       -9.9740   -4.0360  -22.4580 O.co2  87  GLU87      -0.2406
     93  N         -7.5370   -4.3830  -17.4020 N.am   88  MET88      -0.1960
     94  CA        -6.0920   -4.2770  -17.3250 C.3    88  MET88       0.1737
     95  C         -5.4680   -3.7880  -18.6570 C.2    88  MET88       0.2616
     96  O         -5.8700   -4.2530  -19.7190 O.2    88  MET88      -0.2715
     97  CB        -5.5050   -5.6470  -16.9020 C.3    88  MET88       0.0427
     98  CG        -3.9900   -5.7490  -17.0010 C.3    88  MET88       0.0599
     99  SD        -3.0620   -4.6760  -15.8870 S.3    88  MET88      -0.1393
    100  CE        -3.1950   -5.5690  -14.4260 C.3    88  MET88       0.0692
    101  N         -4.5290   -2.8270  -18.5870 N.am   89  ALA89      -0.1963
    102  CA        -3.7090   -2.4030  -19.7370 C.3    89  ALA89       0.1728
    103  C         -2.3200   -2.9850  -19.3630 C.2    89  ALA89       0.2616
    104  O         -1.6040   -2.4350  -18.5280 O.2    89  ALA89      -0.2715
    105  CB        -3.6820   -0.8820  -19.8560 C.3    89  ALA89       0.0334
    106  N         -2.0320   -4.1900  -19.8770 N.am   90  GLU90      -0.1963
    107  CA        -0.8700   -5.0300  -19.5480 C.3    90  GLU90       0.1733
    108  C          0.5280   -4.4110  -19.5750 C.2    90  GLU90       0.2616
    109  O          1.3390   -4.7530  -18.7130 O.2    90  GLU90      -0.2715
    110  CB        -0.8780   -6.3500  -20.3570 C.3    90  GLU90       0.0429
    111  CG        -2.1330   -7.1860  -20.1730 C.3    90  GLU90       0.1163
    112  CD        -2.2340   -8.0820  -18.9550 C.2    90  GLU90       0.3649
    113  OE1       -1.3020   -8.1000  -18.1180 O.co2  90  GLU90      -0.2457
    114  OE2       -3.2710   -8.7700  -18.8390 O.co2  90  GLU90      -0.2457
    115  N          0.8280   -3.5500  -20.5690 N.am   91  LEU91      -0.1963
    116  CA         2.1660   -2.9630  -20.6890 C.3    91  LEU91       0.1728
    117  C          2.4690   -1.7210  -19.8130 C.2    91  LEU91       0.2617
    118  O          3.6190   -1.3050  -19.7290 O.2    91  LEU91      -0.2715
    119  CB         2.6250   -2.8070  -22.1470 C.3    91  LEU91       0.0311
    120  CG         2.5200   -4.0300  -23.0980 C.3    91  LEU91       0.0022
    121  CD1        3.2050   -3.7420  -24.4030 C.3    91  LEU91       0.0001
    122  CD2        3.0840   -5.3020  -22.4900 C.3    91  LEU91       0.0001
    123  N          1.4520   -1.1780  -19.1440 N.am   92  GLY92      -0.1941
    124  CA         1.6200   -0.0810  -18.1930 C.3    92  GLY92       0.1998
    125  C          1.8650    1.3230  -18.7170 C.2    92  GLY92       0.2480
    126  O          1.6330    1.5970  -19.9010 O.2    92  GLY92      -0.2729
    127  N          2.3400    2.2230  -17.8060 N.am   93  PRO93      -0.2726
    128  CA         2.5570    3.6400  -18.1650 C.3    93  PRO93       0.1402
    129  C          3.5300    3.8740  -19.3000 C.2    93  PRO93       0.2269
    130  O          4.5820    3.2380  -19.3700 O.2    93  PRO93      -0.2865
    131  CB         3.0580    4.2720  -16.8630 C.3    93  PRO93       0.0296
    132  CG         2.6000    3.3750  -15.7880 C.3    93  PRO93       0.0237
    133  CD         2.6260    1.9940  -16.3710 C.3    93  PRO93       0.0939
    134  N          7.3100    5.0590  -18.4240 N.3    96  LYS96      -0.1245
    135  CA         8.0980    3.9220  -17.9460 C.3    96  LYS96       0.1561
    136  C          8.4140    2.9570  -19.1050 C.2    96  LYS96       0.2260
    137  O          9.5390    2.4300  -19.1860 O.2    96  LYS96      -0.2867
    138  CB         7.3620    3.2220  -16.7880 C.3    96  LYS96       0.0271
    139  CG         8.1580    2.0830  -16.1250 C.3    96  LYS96       0.0035
    140  CD         7.4630    1.4820  -14.8990 C.3    96  LYS96       0.0206
    141  CE         6.4660    0.3980  -15.2360 C.3    96  LYS96       0.1093
    142  NZ         5.7440   -0.0650  -14.0230 N.3    96  LYS96      -0.1314
    143  N         -0.0080    8.7900  -17.2320 N.3   137  ASN137     -0.1240
    144  CA        -1.4440    8.4660  -17.2840 C.3   137  ASN137      0.1653
    145  C         -1.9340    7.9370  -18.6130 C.2   137  ASN137      0.2266
    146  O         -3.1310    7.7960  -18.8150 O.2   137  ASN137     -0.2867
    147  CB        -2.3060    9.6000  -16.7310 C.3   137  ASN137      0.1155
    148  CG        -2.0380    9.8510  -15.2740 C.2   137  ASN137      0.2627
    149  OD1       -1.7150    8.9220  -14.5220 O.2   137  ASN137     -0.2716
    150  ND2       -2.2080   11.0960  -14.8380 N.am  137  ASN137     -0.0877
    151  N         -1.6980    4.5130  -20.6520 N.3   139  LEU139     -0.1245
    152  CA        -1.3950    3.0900  -20.4090 C.3   139  LEU139      0.1561
    153  C         -1.4260    2.3190  -21.7030 C.2   139  LEU139      0.2260
    154  O         -2.2870    2.5660  -22.5400 O.2   139  LEU139     -0.2867
    155  CB        -2.3930    2.4710  -19.3950 C.3   139  LEU139      0.0270
    156  CG        -2.4650    3.1510  -18.0100 C.3   139  LEU139      0.0019
    157  CD1       -3.5230    2.5040  -17.1480 C.3   139  LEU139      0.0001
    158  CD2       -1.1150    3.1030  -17.2730 C.3   139  LEU139      0.0001
    159  N         -5.9330    7.0830  -18.9250 N.3   149  SER149     -0.1202
    160  CA        -6.4000    6.6330  -17.6210 C.3   149  SER149      0.2020
    161  C         -6.3460    7.7590  -16.5810 C.2   149  SER149      0.2618
    162  O         -5.9340    8.8940  -16.8830 O.2   149  SER149     -0.2717
    163  CB        -5.5610    5.4450  -17.1510 C.3   149  SER149      0.2103
    164  OG        -4.2390    5.8430  -16.8050 O.3   149  SER149     -0.2182
    165  N         -6.6630    7.3940  -15.3280 N.am  150  ASP150     -0.1973
    166  CA        -6.5810    8.2500  -14.1510 C.3   150  ASP150      0.1709
    167  C         -7.4490    9.4990  -14.2260 C.2   150  ASP150      0.2293
    168  O         -6.9640   10.6170  -14.4550 O.2   150  ASP150     -0.2864
    169  CB        -5.1160    8.5810  -13.7910 C.3   150  ASP150      0.1436
    170  CG        -4.9390    9.1250  -12.3820 C.2   150  ASP150      0.3671
    171  OD1       -5.9680    9.4000  -11.7110 O.co2 150  ASP150     -0.2456
    172  OD2       -3.7850    9.2920  -11.9570 O.co2 150  ASP150     -0.2456
@<TRIPOS>BOND
     1   121   120    1
     2   120   122    1
     3   120   119    1
     4   154   153    2
     5    92    90   ar
     6   119   116    1
     7   153   152    1
     8    90    91   ar
     9    90    89    1
    10    69    70    1
    11   116   115    1
    12   116   117    1
    13   151   152    1
    14   115   108   am
    15   152   155    1
    16   110   111    1
    17   110   107    1
    18   111   112    1
    19    89    88    2
    20   126   125    2
    21    70    71    1
    22    70    73    1
    23   106   107    1
    24   106   103   am
    25   105   102    1
    26   117   118    2
    27   117   123   am
    28   102   103    1
    29   102   101    1
    30    96    95    2
    31   108   107    1
    32   108   109    2
    33    71    72    2
    34   155   156    1
    35   130   129    2
    36   103   104    2
    37   129   128    1
    38   137   136    2
    39   123   124    1
    40    75    73    1
    41   136   135    1
    42   112   114   ar
    43   112   113   ar
    44   159   160    1
    45    88    85    1
    46   146   145    2
    47   125   124    1
    48   125   127   am
    49    73    74    1
    50    95   101   am
    51    95    94    1
    52   145   144    1
    53   134   135    1
    54   128   127    1
    55   128   131    1
    56   156   158    1
    57   156   157    1
    58   135   138    1
    59   127   133    1
    60   160   163    1
    61   160   161    1
    62    85    86    1
    63    85    84    1
    64    86    87    2
    65    86    93   am
    66    93    94    1
    67    94    97    1
    68   144   143    1
    69   144   147    1
    70   163   164    1
    71    98    97    1
    72    98    99    1
    73   162   161    2
    74   131   132    1
    75   138   139    1
    76   147   148    1
    77   161   165   am
    78    84    78   am
    79   133   132    1
    80   139   140    1
    81    99   100    1
    82   165   166    1
    83   148   150   am
    84   148   149    2
    85   141   140    1
    86   141   142    1
    87    78    79    2
    88    78    77    1
    89   168   167    2
    90    80    77    1
    91    80    81    1
    92    77    76    1
    93   167   166    1
    94   166   169    1
    95   169   170    1
    96    81    82    1
    97    82    83    1
    98    50    47    1
    99    46    47    1
   100    47    48    1
   101   170   172   ar
   102   170   171   ar
   103    63    62    2
   104    17    15    1
   105    49    48    2
   106    16    15    1
   107    15    14    1
   108    62    61    1
   109     9     8    1
   110    68    66   ar
   111    65    66    1
   112    65    64    1
   113    14    11    1
   114    61    64    1
   115    61    60    1
   116    66    67   ar
   117    44    43    1
   118    13    12    2
   119     8     7    1
   120    11    12    1
   121    11    10    1
   122     7     6    1
   123    12    18   am
   124    43    45    1
   125    43    40    1
   126    18    19    1
   127    59    58    1
   128    51    52    1
   129     6     5    1
   130    57    58    1
   131    57    56    1
   132    55    52    1
   133    55    56    1
   134    19    20    1
   135     5     2    1
   136    41    42    2
   137    41    40    1
   138    40    39    1
   139     4     3    2
   140    52    53    1
   141     3     2    1
   142    20    21    2
   143    20    22   am
   144    38    37   ar
   145    38    36   ar
   146     2     1    1
   147    37    35   ar
   148    22    23    1
   149    53    54    2
   150    36    34   ar
   151    35    33   ar
   152    25    24    2
   153    23    24    1
   154    23    26    1
   155    34    33   ar
   156    33    32    1
   157    26    27    1
   158    32    29    1
   159    29    28    1
   160    29    30    1
   161    30    31    2
