@<TRIPOS>MOLECULE
tmp/5c27A00.pdb
 145 144 0 0 0
SMALL
GASTEIGER

@<TRIPOS>ATOM
      1  N          5.3830   15.4760   15.4210 N.3   132  ASP132     -0.1239
      2  CA         4.1340   14.7560   15.0400 C.3   132  ASP132      0.1674
      3  C          3.5760   14.0060   16.2570 C.2   132  ASP132      0.2266
      4  O          3.1960   12.8350   16.1680 O.2   132  ASP132     -0.2867
      5  CB         4.3510   13.7990   13.8510 C.3   132  ASP132      0.1410
      6  CG         3.0900   13.4700   13.0580 C.2   132  ASP132      0.3668
      7  OD1        2.0240   14.1050   13.3230 O.co2 132  ASP132     -0.2456
      8  OD2        3.1480   12.5460   12.2090 O.co2 132  ASP132     -0.2456
      9  N         -2.5290    9.1940   17.6410 N.3   136  ARG136     -0.1231
     10  CA        -2.3270    8.2160   16.5560 C.3   136  ARG136      0.1694
     11  C         -0.8860    7.6870   16.5240 C.2   136  ARG136      0.2592
     12  O         -0.6360    6.6020   15.9990 O.2   136  ARG136     -0.2718
     13  CB        -2.7140    8.8200   15.1670 C.3   136  ARG136      0.0321
     14  CG        -1.7420    9.9020   14.6770 C.3   136  ARG136      0.0489
     15  CD        -2.0420   10.4960   13.2990 C.3   136  ARG136      0.2205
     16  NE        -1.2860   11.7420   13.1460 N.pl3 136  ARG136     -0.0865
     17  CZ        -1.6760   12.9130   13.6440 C.cat 136  ARG136      0.5346
     18  NH1       -2.8620   13.0350   14.2220 N.pl3 136  ARG136      0.1354
     19  NH2       -0.9050   13.9790   13.5260 N.pl3 136  ARG136      0.1354
     20  N          0.0600    8.4890   17.0360 N.am  137  ASN137     -0.1974
     21  CA         1.4920    8.1440   17.0620 C.3   137  ASN137      0.1688
     22  C          1.9540    7.5700   18.3870 C.2   137  ASN137      0.2292
     23  O          3.1310    7.2690   18.5620 O.2   137  ASN137     -0.2864
     24  CB         2.3390    9.3170   16.6040 C.3   137  ASN137      0.1181
     25  CG         2.1960    9.5070   15.1380 C.2   137  ASN137      0.2629
     26  OD1        1.9420    8.5440   14.4060 O.2   137  ASN137     -0.2716
     27  ND2        2.3100   10.7390   14.6740 N.am  137  ASN137     -0.0877
     28  N          6.6960    7.1560   15.1620 N.3   150  ASP150     -0.1239
     29  CA         6.6550    8.0340   14.0010 C.3   150  ASP150      0.1674
     30  C          7.5620    9.2590   14.0680 C.2   150  ASP150      0.2266
     31  O          7.1080   10.3690   14.3600 O.2   150  ASP150     -0.2867
     32  CB         5.2150    8.3560   13.5770 C.3   150  ASP150      0.1410
     33  CG         5.0870    8.9290   12.1650 C.2   150  ASP150      0.3668
     34  OD1        6.1340    9.0570   11.4660 O.co2 150  ASP150     -0.2456
     35  OD2        3.9530    9.2620   11.7620 O.co2 150  ASP150     -0.2456
     36  N          8.8890   13.3140   10.9160 N.3   153  LEU153     -0.1245
     37  CA         9.0070   14.7810   10.9070 C.3   153  LEU153      0.1561
     38  C         10.0250   15.2870   11.9380 C.2   153  LEU153      0.2260
     39  O         10.2280   16.4870   12.0680 O.2   153  LEU153     -0.2867
     40  CB         7.6320   15.4520   11.1190 C.3   153  LEU153      0.0270
     41  CG         6.6600   15.4120    9.9080 C.3   153  LEU153      0.0019
     42  CD1        5.2490   15.8210   10.3050 C.3   153  LEU153      0.0001
     43  CD2        7.1290   16.3230    8.7920 C.3   153  LEU153      0.0001
     44  N          6.0630   25.6060    4.6870 N.3   167  HIS167     -0.1226
     45  CA         5.0090   24.9200    5.4190 C.3   167  HIS167      0.1752
     46  C          4.7150   23.6670    4.5940 C.2   167  HIS167      0.2597
     47  O          4.2520   23.7810    3.4570 O.2   167  HIS167     -0.2718
     48  CB         3.7700   25.8390    5.5090 C.3   167  HIS167      0.0759
     49  CG         2.6030   25.2810    6.2650 C.ar  167  HIS167      0.0818
     50  ND1        2.0030   24.0850    5.9030 N.ar  167  HIS167     -0.2268
     51  CD2        1.8940   25.8320    7.2760 C.ar  167  HIS167      0.1154
     52  CE1        0.9830   23.9290    6.7290 C.ar  167  HIS167      0.1986
     53  NE2        0.8730   24.9560    7.5690 N.ar  167  HIS167     -0.2212
     54  N          5.0350   22.4980    5.1400 N.am  168  GLY168     -0.1942
     55  CA         4.8050   21.2250    4.4590 C.3   168  GLY168      0.2014
     56  C          3.4290   20.6580    4.7330 C.2   168  GLY168      0.2639
     57  O          2.5000   21.4050    5.0620 O.2   168  GLY168     -0.2714
     58  N          3.2870   19.3240    4.5870 N.am  169  LYS169     -0.1963
     59  CA         2.0510   18.5850    4.8840 C.3   169  LYS169      0.1728
     60  C          2.0950   18.3640    6.3950 C.2   169  LYS169      0.2616
     61  O          2.6800   17.3940    6.8920 O.2   169  LYS169     -0.2715
     62  CB         2.0050   17.2640    4.0910 C.3   169  LYS169      0.0311
     63  CG         1.3040   17.3960    2.7440 C.3   169  LYS169      0.0038
     64  CD         0.4410   16.1690    2.4690 C.3   169  LYS169      0.0206
     65  CE        -0.4330   16.3330    1.2550 C.3   169  LYS169      0.1093
     66  NZ        -1.1870   15.0870    0.9580 N.3   169  LYS169     -0.1314
     67  N          1.5410   19.3400    7.1290 N.am  170  TRP170     -0.1960
     68  CA         1.6290   19.4210    8.5820 C.3   170  TRP170      0.1756
     69  C          0.3980   19.0170    9.4120 C.2   170  TRP170      0.2462
     70  O         -0.7270   19.3520    9.0370 O.2   170  TRP170     -0.2730
     71  CB         2.0700   20.8500    8.9650 C.3   170  TRP170      0.0590
     72  CG         3.5130   21.1920    8.6760 C.ar  170  TRP170      0.0006
     73  CD1        4.4810   20.3600    8.1870 C.ar  170  TRP170      0.0946
     74  CD2        4.1560   22.4480    8.9330 C.ar  170  TRP170      0.0152
     75  NE1        5.6760   21.0320    8.0900 N.ar  170  TRP170     -0.2442
     76  CE2        5.5000   22.3230    8.5170 C.ar  170  TRP170      0.0810
     77  CE3        3.7140   23.6810    9.4390 C.ar  170  TRP170      0.0012
     78  CZ2        6.4220   23.3700    8.6380 C.ar  170  TRP170      0.0191
     79  CZ3        4.6230   24.7220    9.5550 C.ar  170  TRP170      0.0001
     80  CH2        5.9650   24.5600    9.1680 C.ar  170  TRP170      0.0015
     81  N          0.6140   18.4010   10.6070 N.am  171  PRO171     -0.2716
     82  CA        -0.5270   18.0940   11.5120 C.3   171  PRO171      0.1536
     83  C         -0.8860   19.3390   12.3420 C.2   171  PRO171      0.2598
     84  O         -0.6290   19.4140   13.5510 O.2   171  PRO171     -0.2715
     85  CB         0.0100   16.9520   12.3700 C.3   171  PRO171      0.0310
     86  CG         1.5150   17.2010   12.4220 C.3   171  PRO171      0.0237
     87  CD         1.9060   17.9760   11.1950 C.3   171  PRO171      0.0939
     88  N         -1.3940   20.3540   11.6400 N.am  172  VAL172     -0.1964
     89  CA        -1.7480   21.7200   12.0870 C.3   172  VAL172      0.1727
     90  C         -2.5190   21.7990   13.4250 C.2   172  VAL172      0.2616
     91  O         -2.1980   22.6300   14.2800 O.2   172  VAL172     -0.2715
     92  CB        -2.4330   22.4820   10.9100 C.3   172  VAL172      0.0290
     93  CG1       -3.1040   23.7740   11.3750 C.3   172  VAL172      0.0023
     94  CG2       -1.4100   22.7860    9.8080 C.3   172  VAL172      0.0023
     95  N         -3.4710   20.8840   13.6320 N.am  173  LYS173     -0.1963
     96  CA        -4.2880   20.8460   14.8460 C.3   173  LYS173      0.1728
     97  C         -3.4650   20.4630   16.0930 C.2   173  LYS173      0.2616
     98  O         -3.9110   20.6810   17.2150 O.2   173  LYS173     -0.2715
     99  CB        -5.4930   19.9080   14.6430 C.3   173  LYS173      0.0311
    100  CG        -6.5610   20.5300   13.7370 C.3   173  LYS173      0.0038
    101  CD        -7.7290   19.6220   13.5160 C.3   173  LYS173      0.0206
    102  CE        -8.7410   20.3750   12.6920 C.3   173  LYS173      0.1093
    103  NZ        -9.8780   19.5130   12.3050 N.3   173  LYS173     -0.1314
    104  N         -2.2420   19.9430   15.8950 N.am  174  TRP174     -0.1974
    105  CA        -1.3620   19.5850   17.0040 C.3   174  TRP174      0.1640
    106  C         -0.2150   20.5890   17.1810 C.2   174  TRP174      0.2290
    107  O          0.5740   20.4360   18.0970 O.2   174  TRP174     -0.2864
    108  CB        -0.8310   18.1550   16.8240 C.3   174  TRP174      0.0576
    109  CG        -1.8710   17.0930   17.0330 C.ar  174  TRP174      0.0006
    110  CD1       -2.0730   16.3530   18.1620 C.ar  174  TRP174      0.0946
    111  CD2       -2.8640   16.6600   16.0810 C.ar  174  TRP174      0.0152
    112  NE1       -3.1400   15.5070   17.9880 N.ar  174  TRP174     -0.2442
    113  CE2       -3.6490   15.6750   16.7180 C.ar  174  TRP174      0.0810
    114  CE3       -3.1790   17.0310   14.7580 C.ar  174  TRP174      0.0012
    115  CZ2       -4.7060   15.0190   16.0620 C.ar  174  TRP174      0.0191
    116  CZ3       -4.2370   16.3950   14.1070 C.ar  174  TRP174      0.0001
    117  CH2       -5.0000   15.4170   14.7600 C.ar  174  TRP174      0.0015
    118  N        -11.3440   13.0520   17.7050 N.3   207  LYS207     -0.1245
    119  CA       -10.5600   13.9790   16.8880 C.3   207  LYS207      0.1561
    120  C        -10.5890   15.3540   17.5690 C.2   207  LYS207      0.2260
    121  O        -11.6580   15.8010   17.9740 O.2   207  LYS207     -0.2867
    122  CB       -11.1570   14.1360   15.4710 C.3   207  LYS207      0.0271
    123  CG       -11.0850   12.9060   14.5860 C.3   207  LYS207      0.0035
    124  CD       -11.5250   13.2690   13.1640 C.3   207  LYS207      0.0206
    125  CE       -11.8510   12.0630   12.3170 C.3   207  LYS207      0.1093
    126  NZ       -13.2490   11.6030   12.5320 N.3   207  LYS207     -0.1314
    127  N        -11.4550   23.5180   10.2870 N.3   213  LYS213     -0.1231
    128  CA       -10.3060   23.5410    9.3530 C.3   213  LYS213      0.1693
    129  C         -9.1410   24.0470   10.1960 C.2   213  LYS213      0.2593
    130  O         -9.3810   24.7490   11.1840 O.2   213  LYS213     -0.2718
    131  CB       -10.5130   24.6000    8.2460 C.3   213  LYS213      0.0285
    132  CG       -11.7640   24.4640    7.3800 C.3   213  LYS213      0.0035
    133  CD       -11.8200   25.6050    6.3540 C.3   213  LYS213      0.0206
    134  CE       -13.0360   25.5290    5.4660 C.3   213  LYS213      0.1093
    135  NZ       -13.4370   26.8770    4.9830 N.3   213  LYS213     -0.1314
    136  N         -7.9020   23.7880    9.7620 N.am  214  GLY214     -0.1942
    137  CA        -6.7150   24.2880   10.4620 C.3   214  GLY214      0.2014
    138  C         -6.7230   25.7940   10.6600 C.2   214  GLY214      0.2639
    139  O         -6.3530   26.2760   11.7280 O.2   214  GLY214     -0.2714
    140  N         -7.2030   26.5480    9.6500 N.am  215  SER215     -0.1949
    141  CA        -7.2730   28.0130    9.6820 C.3   215  SER215      0.1924
    142  C         -8.2470   28.5300   10.7180 C.2   215  SER215      0.2314
    143  O         -7.9500   29.5190   11.3950 O.2   215  SER215     -0.2863
    144  CB        -7.5660   28.5810    8.2930 C.3   215  SER215      0.2116
    145  OG        -8.8450   28.2140    7.7970 O.3   215  SER215     -0.2180
@<TRIPOS>BOND
     1    66    65    1
     2    65    64    1
     3    64    63    1
     4    63    62    1
     5    47    46    2
     6    62    59    1
     7    55    56    1
     8    55    54    1
     9    58    56   am
    10    58    59    1
    11    46    54   am
    12    46    45    1
    13    44    45    1
    14    56    57    2
    15    59    60    1
    16   135   134    1
    17    45    48    1
    18   134   133    1
    19    48    49    1
    20    50    49   ar
    21    50    52   ar
    22    49    51   ar
    23   133   132    1
    24    60    61    2
    25    60    67   am
    26    52    53   ar
    27    67    68    1
    28    51    53   ar
    29   132   131    1
    30   145   144    1
    31    75    73   ar
    32    75    76   ar
    33    73    72   ar
    34   131   128    1
    35   144   141    1
    36    76    78   ar
    37    76    74   ar
    38    68    71    1
    39    68    69    1
    40    78    80   ar
    41    72    74   ar
    42    72    71    1
    43    43    41    1
    44    74    77   ar
    45    70    69    2
    46    80    79   ar
    47   128   129    1
    48   128   127    1
    49    69    81   am
    50    77    79   ar
    51   140   141    1
    52   140   138   am
    53   141   142    1
    54   136   129   am
    55   136   137    1
    56    94    92    1
    57    41    42    1
    58    41    40    1
    59   129   130    2
    60   137   138    1
    61    81    87    1
    62    81    82    1
    63   138   139    2
    64   142   143    2
    65    37    36    1
    66    37    40    1
    67    37    38    1
    68    92    93    1
    69    92    89    1
    70    87    86    1
    71    34    33   ar
    72    82    83    1
    73    82    85    1
    74    88    89    1
    75    88    83   am
    76    35    33   ar
    77    38    39    2
    78    89    90    1
    79    33    32    1
    80     8     6   ar
    81   103   102    1
    82   125   126    1
    83   125   124    1
    84    83    84    2
    85    85    86    1
    86   102   101    1
    87     6     7   ar
    88     6     5    1
    89    16    15    1
    90    16    17    2
    91   124   123    1
    92    15    14    1
    93    90    95   am
    94    90    91    2
    95   101   100    1
    96    19    17    1
    97    32    29    1
    98    95    96    1
    99    17    18    1
   100   100    99    1
   101     5     2    1
   102    29    30    1
   103    29    28    1
   104    30    31    2
   105   116   114   ar
   106   116   117   ar
   107    26    25    2
   108   123   122    1
   109    99    96    1
   110    27    25   am
   111    14    13    1
   112   114   111   ar
   113   117   115   ar
   114    96    97    1
   115     2     1    1
   116     2     3    1
   117    25    24    1
   118    13    10    1
   119   122   119    1
   120   104    97   am
   121   104   105    1
   122    12    11    2
   123   115   113   ar
   124   111   113   ar
   125   111   109   ar
   126    97    98    2
   127     4     3    2
   128    11    10    1
   129    11    20   am
   130    10     9    1
   131    24    21    1
   132   113   112   ar
   133   108   105    1
   134   108   109    1
   135   119   120    1
   136   119   118    1
   137   105   106    1
   138   109   110   ar
   139    20    21    1
   140    21    22    1
   141   106   107    2
   142   120   121    2
   143   112   110   ar
   144    22    23    2
