@<TRIPOS>MOLECULE
tmp/5c27A01.pdb
 182 172 0 0 0
SMALL
GASTEIGER

@<TRIPOS>ATOM
      1  N         -1.4300   -3.9640    8.2470 N.3    15  LEU15      -0.1231
      2  CA        -2.0230   -3.4420    9.4820 C.3    15  LEU15       0.1693
      3  C         -2.5520   -2.0330    9.2230 C.2    15  LEU15       0.2593
      4  O         -3.5060   -1.5990    9.8710 O.2    15  LEU15      -0.2718
      5  CB        -1.0090   -3.4140   10.6360 C.3    15  LEU15       0.0284
      6  CG        -0.3960   -4.7280   11.0920 C.3    15  LEU15       0.0019
      7  CD1        0.7340   -4.4710   12.0440 C.3    15  LEU15       0.0001
      8  CD2       -1.4220   -5.6410   11.7370 C.3    15  LEU15       0.0001
      9  N         -1.9070   -1.3470    8.2810 N.am   16  GLY16      -0.1942
     10  CA        -2.2170    0.0070    7.8480 C.3    16  GLY16       0.2014
     11  C         -1.5250    0.3410    6.5410 C.2    16  GLY16       0.2639
     12  O         -0.5630   -0.3300    6.1510 O.2    16  GLY16      -0.2714
     13  N         -2.0280    1.3840    5.8510 N.am   17  SER17      -0.1949
     14  CA        -1.5250    1.8660    4.5600 C.3    17  SER17       0.1924
     15  C         -1.8620    3.3440    4.3350 C.2    17  SER17       0.2314
     16  O         -2.6250    3.9310    5.1070 O.2    17  SER17      -0.2863
     17  CB        -2.0830    1.0210    3.4180 C.3    17  SER17       0.2116
     18  OG        -3.4990    1.0110    3.4450 O.3    17  SER17      -0.2180
     19  N          2.5810    6.9890    2.6690 N.3    20  PHE20      -0.1241
     20  CA         3.8970    6.4940    3.1190 C.3    20  PHE20       0.1605
     21  C          4.2790    5.1400    2.4850 C.2    20  PHE20       0.2264
     22  O          5.4480    4.8970    2.1670 O.2    20  PHE20      -0.2867
     23  CB         3.9400    6.4040    4.6700 C.3    20  PHE20       0.0534
     24  CG         3.0120    5.3930    5.3160 C.ar   20  PHE20      -0.0203
     25  CD1        3.4840    4.1470    5.7190 C.ar   20  PHE20      -0.0042
     26  CD2        1.6690    5.6910    5.5290 C.ar   20  PHE20      -0.0042
     27  CE1        2.6260    3.2130    6.3090 C.ar   20  PHE20      -0.0003
     28  CE2        0.8110    4.7540    6.1190 C.ar   20  PHE20      -0.0003
     29  CZ         1.2950    3.5220    6.5030 C.ar   20  PHE20      -0.0000
     30  N          2.1800   -0.8540    6.2170 N.3    23  VAL23      -0.1245
     31  CA         2.7600   -1.3990    7.4420 C.3    23  VAL23       0.1561
     32  C          2.3110   -2.8550    7.6040 C.2    23  VAL23       0.2260
     33  O          1.1290   -3.1640    7.4520 O.2    23  VAL23      -0.2867
     34  CB         2.6210   -0.5330    8.7280 C.3    23  VAL23       0.0252
     35  CG1        1.1670   -0.3760    9.1530 C.3    23  VAL23       0.0019
     36  CG2        3.4540   -1.1060    9.8750 C.3    23  VAL23       0.0019
     37  N          7.0110   -4.6420   13.4360 N.3    38  ALA38      -0.1245
     38  CA         6.1300   -3.8560   12.5920 C.3    38  ALA38       0.1562
     39  C          7.0830   -3.3140   11.5100 C.2    38  ALA38       0.2260
     40  O          8.1740   -2.8000   11.8190 O.2    38  ALA38      -0.2867
     41  CB         5.4890   -2.7290   13.3700 C.3    38  ALA38       0.0290
     42  N          7.4360   -0.9760    8.1460 N.3    40  LYS40      -0.1245
     43  CA         6.9420    0.0830    7.2940 C.3    40  LYS40       0.1561
     44  C          7.5820   -0.1640    5.9150 C.2    40  LYS40       0.2260
     45  O          8.8040   -0.1320    5.7920 O.2    40  LYS40      -0.2867
     46  CB         7.3350    1.4470    7.8850 C.3    40  LYS40       0.0271
     47  CG         6.6460    2.6400    7.2470 C.3    40  LYS40       0.0035
     48  CD         7.0140    3.9280    7.9910 C.3    40  LYS40       0.0206
     49  CE         6.6520    5.1640    7.2080 C.3    40  LYS40       0.1093
     50  NZ         7.4340    6.3510    7.6460 N.3    40  LYS40      -0.1314
     51  N          9.4990    3.7520   20.5920 N.3    71  VAL71      -0.1245
     52  CA         9.5560    2.5760   19.7160 C.3    71  VAL71       0.1561
     53  C         11.0310    2.3750   19.2460 C.2    71  VAL71       0.2260
     54  O         11.6830    3.3290   18.8000 O.2    71  VAL71      -0.2867
     55  CB         8.5470    2.6710   18.5360 C.3    71  VAL71       0.0252
     56  CG1        8.7870    1.5820   17.4830 C.3    71  VAL71       0.0019
     57  CG2        7.1090    2.5930   19.0500 C.3    71  VAL71       0.0019
     58  N         10.7100   -2.2860   12.8790 N.3    86  MET86      -0.1230
     59  CA        10.6140   -1.8430   14.2760 C.3    86  MET86       0.1702
     60  C         10.0730   -2.9310   15.1430 C.2    86  MET86       0.2592
     61  O          9.3160   -3.7440   14.6760 O.2    86  MET86      -0.2718
     62  CB         9.6690   -0.6320   14.3600 C.3    86  MET86       0.0401
     63  CG        10.2100    0.6070   13.6600 C.3    86  MET86       0.0596
     64  SD         8.9010    1.8200   13.3700 S.3    86  MET86      -0.1393
     65  CE         7.9840    1.0240   12.0590 C.3    86  MET86       0.0692
     66  N         10.3820   -2.8810   16.4190 N.am   87  GLU87      -0.1966
     67  CA         9.8730   -3.7500   17.4760 C.3    87  GLU87       0.1733
     68  C          8.3440   -3.5030   17.5400 C.2    87  GLU87       0.2616
     69  O          7.9160   -2.3520   17.6750 O.2    87  GLU87      -0.2715
     70  CB        10.5320   -3.2830   18.7770 C.3    87  GLU87       0.0429
     71  CG        10.4310   -4.2240   19.9520 C.3    87  GLU87       0.1163
     72  CD        11.3560   -3.8190   21.0840 C.2    87  GLU87       0.3649
     73  OE1       12.5630   -4.1460   21.0210 O.co2  87  GLU87      -0.2457
     74  OE2       10.8850   -3.1150   22.0010 O.co2  87  GLU87      -0.2457
     75  N          7.5350   -4.5600   17.3820 N.am   88  MET88      -0.1963
     76  CA         6.0720   -4.4450   17.3610 C.3    88  MET88       0.1736
     77  C          5.5110   -3.9890   18.7180 C.2    88  MET88       0.2616
     78  O          5.9770   -4.4370   19.7550 O.2    88  MET88      -0.2715
     79  CB         5.4530   -5.7940   16.9460 C.3    88  MET88       0.0427
     80  CG         3.9470   -5.8680   17.0680 C.3    88  MET88       0.0599
     81  SD         3.0200   -4.7210   16.0310 S.3    88  MET88      -0.1393
     82  CE         3.1100   -5.5660   14.4870 C.3    88  MET88       0.0692
     83  N          4.5580   -3.0640   18.6860 N.am   89  ALA89      -0.1963
     84  CA         3.7800   -2.5690   19.8270 C.3    89  ALA89       0.1728
     85  C          2.4000   -3.0960   19.4770 C.2    89  ALA89       0.2616
     86  O          1.6990   -2.5230   18.6460 O.2    89  ALA89      -0.2715
     87  CB         3.8040   -1.0350   19.8730 C.3    89  ALA89       0.0334
     88  N          2.1080   -4.3060   19.9710 N.am   90  GLU90      -0.1963
     89  CA         0.9610   -5.1460   19.6310 C.3    90  GLU90       0.1733
     90  C         -0.4260   -4.5320   19.5550 C.2    90  GLU90       0.2616
     91  O         -1.2020   -4.8780   18.6490 O.2    90  GLU90      -0.2715
     92  CB         0.9380   -6.4160   20.5020 C.3    90  GLU90       0.0429
     93  CG         2.1720   -7.2850   20.3370 C.3    90  GLU90       0.1163
     94  CD         2.2390   -8.1700   19.1060 C.2    90  GLU90       0.3649
     95  OE1        1.2750   -8.1840   18.3080 O.co2  90  GLU90      -0.2457
     96  OE2        3.2610   -8.8710   18.9530 O.co2  90  GLU90      -0.2457
     97  N         -0.7490   -3.6430   20.5040 N.am   91  LEU91      -0.1963
     98  CA        -2.0840   -3.0560   20.6040 C.3    91  LEU91       0.1728
     99  C         -2.3740   -1.8670   19.6890 C.2    91  LEU91       0.2617
    100  O         -3.5250   -1.4820   19.5010 O.2    91  LEU91      -0.2715
    101  CB        -2.4550   -2.7840   22.0710 C.3    91  LEU91       0.0311
    102  CG        -2.4600   -4.0000   23.0280 C.3    91  LEU91       0.0022
    103  CD1       -3.1620   -3.6610   24.3290 C.3    91  LEU91       0.0001
    104  CD2       -3.1590   -5.1980   22.4130 C.3    91  LEU91       0.0001
    105  N         -1.3390   -1.3210   19.0940 N.am   92  GLY92      -0.1941
    106  CA        -1.5160   -0.2510   18.1360 C.3    92  GLY92       0.1998
    107  C         -1.7560    1.1350   18.6700 C.2    92  GLY92       0.2480
    108  O         -1.5530    1.4130   19.8700 O.2    92  GLY92      -0.2729
    109  N         -2.1850    1.9990   17.7120 N.am   93  PRO93      -0.2726
    110  CA        -2.4320    3.4210   18.0080 C.3    93  PRO93       0.1402
    111  C         -3.4210    3.6800   19.1150 C.2    93  PRO93       0.2269
    112  O         -4.5050    3.0610   19.1700 O.2    93  PRO93      -0.2865
    113  CB        -2.9050    3.9850   16.6770 C.3    93  PRO93       0.0296
    114  CG        -2.3820    3.0370   15.6690 C.3    93  PRO93       0.0237
    115  CD        -2.4660    1.7090   16.2940 C.3    93  PRO93       0.0939
    116  N         -5.3510    6.2830   19.8380 N.3    95  ASN95      -0.1225
    117  CA        -6.6790    6.8010   19.5140 C.3    95  ASN95       0.1785
    118  C         -7.6240    5.6880   19.0580 C.2    95  ASN95       0.2597
    119  O         -8.7740    5.6720   19.4860 O.2    95  ASN95      -0.2718
    120  CB        -6.6300    7.9790   18.5240 C.3    95  ASN95       0.1169
    121  CG        -6.0350    7.6610   17.1800 C.2    95  ASN95       0.2627
    122  OD1       -5.2300    6.7470   17.0220 O.2    95  ASN95      -0.2716
    123  ND2       -6.3690    8.4580   16.1810 N.am   95  ASN95      -0.0877
    124  N         -7.1170    4.7490   18.2300 N.am   96  LYS96      -0.1980
    125  CA        -7.8350    3.5750   17.7290 C.3    96  LYS96       0.1596
    126  C         -8.2210    2.6960   18.9140 C.2    96  LYS96       0.2287
    127  O         -9.3950    2.3060   19.0400 O.2    96  LYS96      -0.2864
    128  CB        -6.9430    2.7720   16.7630 C.3    96  LYS96       0.0298
    129  CG        -7.5960    2.3930   15.4340 C.3    96  LYS96       0.0038
    130  CD        -7.5240    0.8790   15.1690 C.3    96  LYS96       0.0206
    131  CE        -6.2490    0.3930   14.5170 C.3    96  LYS96       0.1093
    132  NZ        -6.4030    0.2350   13.0420 N.3    96  LYS96      -0.1314
    133  N        -11.0100    4.3830   21.2310 N.3    99  GLN99      -0.1245
    134  CA       -12.2870    4.4280   20.5190 C.3    99  GLN99       0.1566
    135  C        -13.0050    3.0540   20.6870 C.2    99  GLN99       0.2260
    136  O        -14.2280    3.0250   20.8800 O.2    99  GLN99      -0.2867
    137  CB       -12.0490    4.6940   19.0340 C.3    99  GLN99       0.0367
    138  CG       -11.8360    6.1600   18.6420 C.3    99  GLN99       0.0905
    139  CD       -11.2720    6.2730   17.2440 C.2    99  GLN99       0.2608
    140  OE1      -11.3150    5.3330   16.4390 O.2    99  GLN99      -0.2717
    141  NE2      -10.6960    7.4180   16.9220 N.am   99  GLN99      -0.0878
    142  N         -2.5290    9.1940   17.6410 N.3   136  ARG136     -0.1231
    143  CA        -2.3270    8.2160   16.5560 C.3   136  ARG136      0.1694
    144  C         -0.8860    7.6870   16.5240 C.2   136  ARG136      0.2592
    145  O         -0.6360    6.6020   15.9990 O.2   136  ARG136     -0.2718
    146  CB        -2.7140    8.8200   15.1670 C.3   136  ARG136      0.0321
    147  CG        -1.7420    9.9020   14.6770 C.3   136  ARG136      0.0489
    148  CD        -2.0420   10.4960   13.2990 C.3   136  ARG136      0.2205
    149  NE        -1.2860   11.7420   13.1460 N.pl3 136  ARG136     -0.0865
    150  CZ        -1.6760   12.9130   13.6440 C.cat 136  ARG136      0.5346
    151  NH1       -2.8620   13.0350   14.2220 N.pl3 136  ARG136      0.1354
    152  NH2       -0.9050   13.9790   13.5260 N.pl3 136  ARG136      0.1354
    153  N          0.0600    8.4890   17.0360 N.am  137  ASN137     -0.1974
    154  CA         1.4920    8.1440   17.0620 C.3   137  ASN137      0.1688
    155  C          1.9540    7.5700   18.3870 C.2   137  ASN137      0.2292
    156  O          3.1310    7.2690   18.5620 O.2   137  ASN137     -0.2864
    157  CB         2.3390    9.3170   16.6040 C.3   137  ASN137      0.1181
    158  CG         2.1960    9.5070   15.1380 C.2   137  ASN137      0.2629
    159  OD1        1.9420    8.5440   14.4060 O.2   137  ASN137     -0.2716
    160  ND2        2.3100   10.7390   14.6740 N.am  137  ASN137     -0.0877
    161  N          1.7530    4.3230   20.5990 N.3   139  LEU139     -0.1245
    162  CA         1.4460    2.9090   20.3510 C.3   139  LEU139      0.1561
    163  C          1.4740    2.1550   21.6260 C.2   139  LEU139      0.2260
    164  O          2.3150    2.4240   22.4710 O.2   139  LEU139     -0.2867
    165  CB         2.4340    2.2870   19.3450 C.3   139  LEU139      0.0270
    166  CG         2.5020    2.9780   17.9580 C.3   139  LEU139      0.0019
    167  CD1        3.4690    2.2840   17.0770 C.3   139  LEU139      0.0001
    168  CD2        1.1440    3.0030   17.2550 C.3   139  LEU139      0.0001
    169  N          5.9610    6.8130   18.7510 N.3   149  SER149     -0.1202
    170  CA         6.4170    6.3670   17.4370 C.3   149  SER149      0.2020
    171  C          6.3780    7.5050   16.4180 C.2   149  SER149      0.2618
    172  O          6.0060    8.6500   16.7430 O.2   149  SER149     -0.2717
    173  CB         5.5490    5.2000   16.9480 C.3   149  SER149      0.2103
    174  OG         4.2460    5.6500   16.6070 O.3   149  SER149     -0.2182
    175  N          6.6960    7.1560   15.1620 N.am  150  ASP150     -0.1973
    176  CA         6.6550    8.0340   14.0010 C.3   150  ASP150      0.1709
    177  C          7.5620    9.2590   14.0680 C.2   150  ASP150      0.2293
    178  O          7.1080   10.3690   14.3600 O.2   150  ASP150     -0.2864
    179  CB         5.2150    8.3560   13.5770 C.3   150  ASP150      0.1436
    180  CG         5.0870    8.9290   12.1650 C.2   150  ASP150      0.3671
    181  OD1        6.1340    9.0570   11.4660 O.co2 150  ASP150     -0.2456
    182  OD2        3.9530    9.2620   11.7620 O.co2 150  ASP150     -0.2456
@<TRIPOS>BOND
     1    22    21    2
     2    21    20    1
     3    19    20    1
     4    20    23    1
     5    17    18    1
     6    17    14    1
     7    15    14    1
     8    15    16    2
     9    14    13    1
    10    23    24    1
    11    24    26   ar
    12    24    25   ar
    13    26    28   ar
    14    25    27   ar
    15    45    44    2
    16    13    11   am
    17    44    43    1
    18    28    29   ar
    19    12    11    2
    20    30    31    1
    21    27    29   ar
    22    11    10    1
    23    49    50    1
    24    49    48    1
    25    47    46    1
    26    47    48    1
    27    43    46    1
    28    43    42    1
    29    31    32    1
    30    31    34    1
    31    33    32    2
    32    10     9    1
    33     1     2    1
    34     9     3   am
    35    34    35    1
    36    34    36    1
    37     3     2    1
    38     3     4    2
    39     2     5    1
    40     5     6    1
    41     6     8    1
    42     6     7    1
    43   181   180   ar
    44    39    40    2
    45    39    38    1
    46   182   180   ar
    47    65    64    1
    48   180   179    1
    49    38    41    1
    50    38    37    1
    51    58    59    1
    52   132   131    1
    53   149   148    1
    54   149   150    2
    55   148   147    1
    56    64    63    1
    57   152   150    1
    58   179   176    1
    59   150   151    1
    60    63    62    1
    61   176   177    1
    62   176   175    1
    63   177   178    2
    64    59    62    1
    65    59    60    1
    66   159   158    2
    67    82    81    1
    68   131   130    1
    69   160   158   am
    70    61    60    2
    71   147   146    1
    72   158   157    1
    73    60    66   am
    74   175   171   am
    75   146   143    1
    76   130   129    1
    77   129   128    1
    78   114   115    1
    79   114   113    1
    80   145   144    2
    81    81    80    1
    82   123   121   am
    83   115   109    1
    84   171   172    2
    85   171   170    1
    86    66    67    1
    87   140   139    2
    88   144   143    1
    89   144   153   am
    90   143   142    1
    91   157   154    1
    92   174   173    1
    93   113   110    1
    94   128   125    1
    95   141   139   am
    96    79    80    1
    97    79    76    1
    98   173   170    1
    99   122   121    2
   100   153   154    1
   101   154   155    1
   102   167   166    1
   103   121   120    1
   104   139   138    1
   105   168   166    1
   106    76    75    1
   107    76    77    1
   108    75    68   am
   109   170   169    1
   110    67    68    1
   111    67    70    1
   112    56    55    1
   113    68    69    2
   114   109   110    1
   115   109   107   am
   116   125   124    1
   117   125   126    1
   118   166   165    1
   119   110   111    1
   120   106   107    1
   121   106   105    1
   122   124   118   am
   123    95    94   ar
   124   155   156    2
   125   120   117    1
   126    55    57    1
   127    55    52    1
   128   138   137    1
   129    86    85    2
   130    91    90    2
   131   107   108    2
   132    83    77   am
   133    83    84    1
   134    77    78    2
   135    70    71    1
   136    54    53    2
   137   126   127    2
   138    96    94   ar
   139   137   134    1
   140   118   119    2
   141   118   117    1
   142   105    99   am
   143    94    93    1
   144   111   112    2
   145    53    52    1
   146   165   162    1
   147    85    84    1
   148    85    88   am
   149   100    99    2
   150   117   116    1
   151    90    89    1
   152    90    97   am
   153    89    88    1
   154    89    92    1
   155    99    98    1
   156    52    51    1
   157    84    87    1
   158    71    72    1
   159    93    92    1
   160   162   161    1
   161   162   163    1
   162    97    98    1
   163   134   135    1
   164   134   133    1
   165    98   101    1
   166   135   136    2
   167    73    72   ar
   168    72    74   ar
   169   163   164    2
   170   101   102    1
   171   104   102    1
   172   102   103    1
