@<TRIPOS>MOLECULE
tmp/5c28A00.pdb
 139 135 0 0 0
SMALL
GASTEIGER

@<TRIPOS>ATOM
      1  N         14.3090   14.4390   46.2130 N.3    78  TYR78      -0.1227
      2  CA        13.1130   13.8350   46.7780 C.3    78  TYR78       0.1736
      3  C         13.2420   12.4150   47.3140 C.2    78  TYR78       0.2595
      4  O         12.7840   12.1780   48.4440 O.2    78  TYR78      -0.2718
      5  CB        11.9850   13.8720   45.7330 C.3    78  TYR78       0.0548
      6  CG        10.6990   13.2600   46.2390 C.ar   78  TYR78      -0.0200
      7  CD1       10.0360   13.7910   47.3470 C.ar   78  TYR78      -0.0009
      8  CD2       10.1490   12.1450   45.6220 C.ar   78  TYR78      -0.0009
      9  CE1        8.8500   13.2280   47.8160 C.ar   78  TYR78       0.0417
     10  CE2        8.9790   11.5620   46.0950 C.ar   78  TYR78       0.0417
     11  CZ         8.3290   12.1130   47.1860 C.ar   78  TYR78       0.1957
     12  OH         7.1530   11.5460   47.6310 O.3    78  TYR78      -0.2866
     13  N         13.8190   11.4760   46.5250 N.am   79  HIS79      -0.1975
     14  CA        13.8790   10.0770   46.9720 C.3    79  HIS79       0.1656
     15  C         15.0700    9.8900   47.8850 C.2    79  HIS79       0.2291
     16  O         16.0280    9.1730   47.5780 O.2    79  HIS79      -0.2864
     17  CB        13.9190    9.1610   45.7530 C.3    79  HIS79       0.0771
     18  CG        12.6250    9.1250   45.0160 C.ar   79  HIS79       0.0820
     19  ND1       12.4960    9.6770   43.7620 N.ar   79  HIS79      -0.2267
     20  CD2       11.4290    8.6080   45.3910 C.ar   79  HIS79       0.1154
     21  CE1       11.2430    9.4690   43.4000 C.ar   79  HIS79       0.1986
     22  NE2       10.5630    8.8270   44.3520 N.ar   79  HIS79      -0.2212
     23  N          4.4410    2.4910   40.8330 N.3   189  LEU189     -0.1245
     24  CA         3.1280    3.0180   40.4880 C.3   189  LEU189      0.1561
     25  C          2.4920    2.3330   39.2860 C.2   189  LEU189      0.2260
     26  O          1.2780    2.2530   39.2100 O.2   189  LEU189     -0.2867
     27  CB         3.1450    4.5250   40.3060 C.3   189  LEU189      0.0270
     28  CG         3.0700    5.3010   41.5800 C.3   189  LEU189      0.0019
     29  CD1        3.3180    6.7720   41.2870 C.3   189  LEU189      0.0001
     30  CD2        1.7030    5.1110   42.3180 C.3   189  LEU189      0.0001
     31  N          3.5740    5.7660   50.3030 N.3   228  ASP228     -0.1225
     32  CA         4.5130    6.4010   49.3850 C.3   228  ASP228      0.1805
     33  C          4.0230    7.7580   48.9200 C.2   228  ASP228      0.2597
     34  O          4.8460    8.6770   48.7540 O.2   228  ASP228     -0.2718
     35  CB         4.7340    5.4620   48.1800 C.3   228  ASP228      0.1424
     36  CG         5.9960    5.6950   47.3680 C.2   228  ASP228      0.3668
     37  OD1        6.9280    6.3600   47.8810 O.co2 228  ASP228     -0.2456
     38  OD2        6.0590    5.2040   46.2230 O.co2 228  ASP228     -0.2456
     39  N          2.7160    7.8960   48.7140 N.am  229  LEU229     -0.1979
     40  CA         2.1780    9.1610   48.2160 C.3   229  LEU229      0.1596
     41  C          1.7230   10.0790   49.3300 C.2   229  LEU229      0.2287
     42  O          1.1280   11.1070   49.0230 O.2   229  LEU229     -0.2864
     43  CB         0.9480    8.8500   47.3400 C.3   229  LEU229      0.0297
     44  CG         1.1430    7.9550   46.1330 C.3   229  LEU229      0.0022
     45  CD1       -0.1540    7.8400   45.3510 C.3   229  LEU229      0.0001
     46  CD2        2.2690    8.4490   45.2850 C.3   229  LEU229      0.0001
     47  N          2.7070   12.5310   51.0190 N.3   231  SER231     -0.1202
     48  CA         2.9160   13.9850   51.0600 C.3   231  SER231      0.2020
     49  C          1.6200   14.6700   50.6290 C.2   231  SER231      0.2618
     50  O          1.4020   15.7860   51.0580 O.2   231  SER231     -0.2717
     51  CB         4.0210   14.4160   50.1140 C.3   231  SER231      0.2103
     52  OG         3.7040   14.1360   48.7530 O.3   231  SER231     -0.2182
     53  N          0.7230   14.0040   49.8400 N.am  232  VAL232     -0.1979
     54  CA        -0.5420   14.5960   49.4080 C.3   232  VAL232      0.1595
     55  C         -1.5790   14.5990   50.5410 C.2   232  VAL232      0.2287
     56  O         -2.6800   15.1090   50.3360 O.2   232  VAL232     -0.2864
     57  CB        -1.1280   13.9380   48.1350 C.3   232  VAL232      0.0276
     58  CG1       -0.0850   13.8790   47.0200 C.3   232  VAL232      0.0022
     59  CG2       -1.6800   12.5560   48.4500 C.3   232  VAL232      0.0022
     60  N          6.0110   18.9700   47.1630 N.3   243  ALA243     -0.1245
     61  CA         5.8290   18.9540   45.7040 C.3   243  ALA243      0.1562
     62  C          7.0240   19.6780   45.0290 C.2   243  ALA243      0.2260
     63  O          7.4770   19.2260   43.9710 O.2   243  ALA243     -0.2867
     64  CB         4.5060   19.6320   45.3210 C.3   243  ALA243      0.0290
     65  N          9.6820   17.0530   44.7110 N.3   246  ILE246     -0.1231
     66  CA         9.3040   16.0440   43.7150 C.3   246  ILE246      0.1692
     67  C          9.7010   16.5740   42.3420 C.2   246  ILE246      0.2592
     68  O         10.4000   15.8940   41.5940 O.2   246  ILE246     -0.2718
     69  CB         7.7950   15.7350   43.8030 C.3   246  ILE246      0.0266
     70  CG1        7.4980   15.0180   45.1420 C.3   246  ILE246      0.0019
     71  CG2        7.3070   14.8810   42.6010 C.3   246  ILE246      0.0020
     72  CD1        6.0240   14.8020   45.4610 C.3   246  ILE246      0.0001
     73  N          9.2500   17.8110   42.0310 N.am  247  TYR247     -0.1976
     74  CA         9.5700   18.3920   40.7340 C.3   247  TYR247      0.1639
     75  C         11.0470   18.7440   40.5780 C.2   247  TYR247      0.2290
     76  O         11.5710   18.5600   39.4770 O.2   247  TYR247     -0.2864
     77  CB         8.6760   19.6010   40.4890 C.3   247  TYR247      0.0560
     78  CG         7.2870   19.1970   40.0640 C.ar  247  TYR247     -0.0198
     79  CD1        6.2500   19.1360   40.9800 C.ar  247  TYR247     -0.0009
     80  CD2        7.0110   18.8600   38.7420 C.ar  247  TYR247     -0.0009
     81  CE1        4.9700   18.7310   40.6040 C.ar  247  TYR247      0.0417
     82  CE2        5.7360   18.4540   38.3500 C.ar  247  TYR247      0.0417
     83  CZ         4.7120   18.4170   39.2790 C.ar  247  TYR247      0.1957
     84  OH         3.4510   18.0440   38.9130 O.3   247  TYR247     -0.2866
     85  N         12.5270   15.5360   39.3160 N.3   250  PHE250     -0.1241
     86  CA        12.1310   15.2430   37.9390 C.3   250  PHE250      0.1605
     87  C         12.7810   16.2190   36.9700 C.2   250  PHE250      0.2264
     88  O         13.1710   15.7950   35.9030 O.2   250  PHE250     -0.2867
     89  CB        10.6140   15.2840   37.7960 C.3   250  PHE250      0.0534
     90  CG         9.9120   14.0080   38.2070 C.ar  250  PHE250     -0.0203
     91  CD1       10.2660   12.7800   37.6450 C.ar  250  PHE250     -0.0042
     92  CD2        8.8840   14.0340   39.1430 C.ar  250  PHE250     -0.0042
     93  CE1        9.5810   11.6040   38.0040 C.ar  250  PHE250     -0.0003
     94  CE2        8.2030   12.8650   39.4920 C.ar  250  PHE250     -0.0003
     95  CZ         8.5590   11.6640   38.9220 C.ar  250  PHE250     -0.0000
     96  N          6.2390   17.2530   32.3590 N.3   267  MET267     -0.1245
     97  CA         6.3890   17.1650   33.8190 C.3   267  MET267      0.1570
     98  C          7.8560   17.2560   34.2550 C.2   267  MET267      0.2261
     99  O          8.1550   17.7780   35.3460 O.2   267  MET267     -0.2867
    100  CB         5.7840   15.8490   34.3450 C.3   267  MET267      0.0387
    101  CG         5.8360   15.6960   35.8810 C.3   267  MET267      0.0595
    102  SD         5.5350   13.9910   36.3870 S.3   267  MET267     -0.1393
    103  CE         7.0970   13.2550   35.9460 C.3   267  MET267      0.0692
    104  N         -0.8770   19.4610   36.2440 N.3   279  GLY279     -0.1210
    105  CA        -0.2560   18.1380   36.3920 C.3   279  GLY279      0.1956
    106  C         -0.6230   17.5170   37.7290 C.2   279  GLY279      0.2611
    107  O         -0.9560   16.3270   37.7960 O.2   279  GLY279     -0.2717
    108  N         -0.6460   18.3490   38.7890 N.am  280  GLN280     -0.1979
    109  CA        -1.0470   17.8760   40.1270 C.3   280  GLN280      0.1601
    110  C         -2.5350   17.5330   40.1600 C.2   280  GLN280      0.2287
    111  O         -2.9180   16.4850   40.6930 O.2   280  GLN280     -0.2864
    112  CB        -0.6990   18.8930   41.2160 C.3   280  GLN280      0.0394
    113  CG         0.8160   18.9750   41.4610 C.3   280  GLN280      0.0908
    114  CD         1.3450   17.6570   42.0450 C.2   280  GLN280      0.2608
    115  OE1        1.0210   17.2440   43.1550 O.2   280  GLN280     -0.2717
    116  NE2        2.0730   16.8690   41.2360 N.am  280  GLN280     -0.0878
    117  N         -2.7400   14.1920   38.6060 N.3   283  PHE283     -0.1227
    118  CA        -2.2240   13.1600   39.4940 C.3   283  PHE283      0.1736
    119  C         -3.2210   12.8490   40.6270 C.2   283  PHE283      0.2595
    120  O         -3.4300   11.6800   40.9760 O.2   283  PHE283     -0.2718
    121  CB        -0.8680   13.6090   40.0790 C.3   283  PHE283      0.0547
    122  CG        -0.2030   12.5480   40.9190 C.ar  283  PHE283     -0.0202
    123  CD1        0.6060   11.5800   40.3260 C.ar  283  PHE283     -0.0042
    124  CD2       -0.3820   12.5170   42.2990 C.ar  283  PHE283     -0.0042
    125  CE1        1.2050   10.5830   41.0960 C.ar  283  PHE283     -0.0003
    126  CE2        0.2190   11.5120   43.0690 C.ar  283  PHE283     -0.0003
    127  CZ         1.0130   10.5640   42.4640 C.ar  283  PHE283     -0.0000
    128  N         -3.8230   13.8830   41.2230 N.am  284  TYR284     -0.1976
    129  CA        -4.7900   13.6360   42.2980 C.3   284  TYR284      0.1639
    130  C         -6.0290   12.9240   41.7770 C.2   284  TYR284      0.2290
    131  O         -6.5090   11.9940   42.4090 O.2   284  TYR284     -0.2864
    132  CB        -5.1930   14.9380   42.9820 C.3   284  TYR284      0.0560
    133  CG        -4.2030   15.4440   44.0230 C.ar  284  TYR284     -0.0198
    134  CD1       -2.9150   15.8240   43.6570 C.ar  284  TYR284     -0.0009
    135  CD2       -4.5660   15.5610   45.3790 C.ar  284  TYR284     -0.0009
    136  CE1       -2.0030   16.3090   44.6030 C.ar  284  TYR284      0.0417
    137  CE2       -3.6750   16.0870   46.3220 C.ar  284  TYR284      0.0417
    138  CZ        -2.3960   16.4560   45.9310 C.ar  284  TYR284      0.1957
    139  OH        -1.5700   16.9960   46.8870 O.3   284  TYR284     -0.2866
@<TRIPOS>BOND
     1    96    97    1
     2    97    98    1
     3    97   100    1
     4    98    99    2
     5   100   101    1
     6   101   102    1
     7    88    87    2
     8   103   102    1
     9   104   105    1
    10   105   106    1
    11    87    86    1
    12    91    93   ar
    13    91    90   ar
    14   106   107    2
    15   106   108   am
    16    89    86    1
    17    89    90    1
    18    86    85    1
    19    93    95   ar
    20    90    92   ar
    21    82    80   ar
    22    82    83   ar
    23   117   118    1
    24    80    78   ar
    25   108   109    1
    26    84    83    1
    27    95    94   ar
    28    92    94   ar
    29    26    25    2
    30    83    81   ar
    31    25    24    1
    32    76    75    2
    33   118   121    1
    34   118   119    1
    35    78    77    1
    36    78    79   ar
    37   121   122    1
    38   109   110    1
    39   109   112    1
    40   110   111    2
    41    27    24    1
    42    27    28    1
    43   123   122   ar
    44   123   125   ar
    45    24    23    1
    46    77    74    1
    47    75    74    1
    48    81    79   ar
    49   119   120    2
    50   119   128   am
    51    74    73    1
    52   122   124   ar
    53   125   127   ar
    54   112   113    1
    55   128   129    1
    56   116   114   am
    57    29    28    1
    58   113   114    1
    59    28    30    1
    60    68    67    2
    61   130   129    1
    62   130   131    2
    63    73    67   am
    64   114   115    2
    65   129   132    1
    66   124   126   ar
    67    67    66    1
    68   127   126   ar
    69    71    69    1
    70   132   133    1
    71    21    19   ar
    72    21    22   ar
    73   134   133   ar
    74   134   136   ar
    75    66    69    1
    76    66    65    1
    77    19    18   ar
    78    69    70    1
    79    63    62    2
    80   133   135   ar
    81    22    20   ar
    82   136   138   ar
    83    18    20   ar
    84    18    17    1
    85    62    61    1
    86    70    72    1
    87    46    44    1
    88    64    61    1
    89    45    44    1
    90   135   137   ar
    91     8    10   ar
    92     8     6   ar
    93    61    60    1
    94     5     6    1
    95     5     2    1
    96    17    14    1
    97   138   137   ar
    98   138   139    1
    99    10    11   ar
   100    44    43    1
   101     1     2    1
   102    38    36   ar
   103     6     7   ar
   104    13    14    1
   105    13     3   am
   106     2     3    1
   107    14    15    1
   108    58    57    1
   109    11    12    1
   110    11     9   ar
   111     3     4    2
   112    43    40    1
   113     7     9   ar
   114    36    37   ar
   115    36    35    1
   116    16    15    2
   117    57    59    1
   118    57    54    1
   119    35    32    1
   120    40    39    1
   121    40    41    1
   122    39    33   am
   123    52    51    1
   124    34    33    2
   125    33    32    1
   126    42    41    2
   127    32    31    1
   128    54    53    1
   129    54    55    1
   130    53    49   am
   131    51    48    1
   132    56    55    2
   133    49    50    2
   134    49    48    1
   135    47    48    1
