@<TRIPOS>MOLECULE
tmp/5c29A00.pdb
 146 141 0 0 0
SMALL
GASTEIGER

@<TRIPOS>ATOM
      1  N         14.9130   15.2740   46.6390 N.3    61  TYR61      -0.1227
      2  CA        13.6610   14.7410   47.1850 C.3    61  TYR61       0.1736
      3  C         13.7090   13.3210   47.7310 C.2    61  TYR61       0.2595
      4  O         13.2040   13.1210   48.8290 O.2    61  TYR61      -0.2718
      5  CB        12.5260   14.8560   46.1300 C.3    61  TYR61       0.0548
      6  CG        11.2150   14.2800   46.6090 C.ar   61  TYR61      -0.0200
      7  CD1       10.5450   14.8310   47.6970 C.ar   61  TYR61      -0.0009
      8  CD2       10.6820   13.1300   46.0270 C.ar   61  TYR61      -0.0009
      9  CE1        9.3560   14.2730   48.1730 C.ar   61  TYR61       0.0417
     10  CE2        9.5030   12.5630   46.5000 C.ar   61  TYR61       0.0417
     11  CZ         8.8340   13.1470   47.5610 C.ar   61  TYR61       0.1957
     12  OH         7.6660   12.5920   48.0220 O.3    61  TYR61      -0.2866
     13  N         14.2320   12.3370   46.9820 N.am   62  HIS62      -0.1975
     14  CA        14.2490   10.9420   47.4460 C.3    62  HIS62       0.1656
     15  C         15.4090   10.7450   48.4190 C.2    62  HIS62       0.2291
     16  O         16.3780   10.0460   48.1470 O.2    62  HIS62      -0.2864
     17  CB        14.2840    9.9650   46.2670 C.3    62  HIS62       0.0771
     18  CG        13.0030    9.9110   45.5040 C.ar   62  HIS62       0.0820
     19  ND1       12.8660   10.5420   44.2870 N.ar   62  HIS62      -0.2267
     20  CD2       11.8180    9.3520   45.8430 C.ar   62  HIS62       0.1154
     21  CE1       11.6230   10.3190   43.9020 C.ar   62  HIS62       0.1986
     22  NE2       10.9580    9.5940   44.8060 N.ar   62  HIS62      -0.2212
     23  N          4.5770    3.5840   41.1440 N.3   172  LEU172     -0.1245
     24  CA         3.3010    4.1870   40.7400 C.3   172  LEU172      0.1561
     25  C          2.6780    3.5500   39.4920 C.2   172  LEU172      0.2260
     26  O          1.4590    3.5810   39.3620 O.2   172  LEU172     -0.2867
     27  CB         3.3800    5.7130   40.5750 C.3   172  LEU172      0.0270
     28  CG         3.2980    6.5960   41.8310 C.3   172  LEU172      0.0019
     29  CD1        3.4220    8.0370   41.4290 C.3   172  LEU172      0.0001
     30  CD2        1.9680    6.3980   42.6320 C.3   172  LEU172      0.0001
     31  N          3.6560    6.8810   50.5970 N.3   211  ASP211     -0.1225
     32  CA         4.6310    7.4280   49.6670 C.3   211  ASP211      0.1805
     33  C          4.2680    8.8360   49.1610 C.2   211  ASP211      0.2597
     34  O          5.1410    9.7070   49.0620 O.2   211  ASP211     -0.2718
     35  CB         4.7880    6.4680   48.5040 C.3   211  ASP211      0.1424
     36  CG         6.1020    6.6280   47.7630 C.2   211  ASP211      0.3668
     37  OD1        7.0040    7.3350   48.2790 O.co2 211  ASP211     -0.2456
     38  OD2        6.2360    6.0490   46.6760 O.co2 211  ASP211     -0.2456
     39  N          2.9720    9.0660   48.9150 N.am  212  LEU212     -0.1979
     40  CA         2.4580   10.3450   48.4230 C.3   212  LEU212      0.1596
     41  C          1.9340   11.2560   49.5190 C.2   212  LEU212      0.2287
     42  O          1.3920   12.2940   49.1720 O.2   212  LEU212     -0.2864
     43  CB         1.2730   10.1020   47.4480 C.3   212  LEU212      0.0297
     44  CG         1.3960    9.1000   46.2950 C.3   212  LEU212      0.0022
     45  CD1        0.0660    9.0370   45.5220 C.3   212  LEU212      0.0001
     46  CD2        2.5300    9.4440   45.3800 C.3   212  LEU212      0.0001
     47  N          2.8400   13.6640   51.2470 N.3   214  SER214     -0.1202
     48  CA         3.1180   15.1170   51.2880 C.3   214  SER214      0.2020
     49  C          1.8720   15.8990   50.8350 C.2   214  SER214      0.2618
     50  O          1.6610   17.0260   51.2740 O.2   214  SER214     -0.2717
     51  CB         4.2760   15.4890   50.3790 C.3   214  SER214      0.2103
     52  OG         4.0220   15.2640   49.0000 O.3   214  SER214     -0.2182
     53  N          1.0210   15.2760   49.9980 N.am  215  VAL215     -0.1979
     54  CA        -0.2260   15.8900   49.4940 C.3   215  VAL215      0.1595
     55  C         -1.3190   15.9020   50.5690 C.2   215  VAL215      0.2287
     56  O         -2.4060   16.4390   50.3140 O.2   215  VAL215     -0.2864
     57  CB        -0.7160   15.2560   48.1580 C.3   215  VAL215      0.0276
     58  CG1        0.4050   15.2490   47.1190 C.3   215  VAL215      0.0022
     59  CG2       -1.2830   13.8530   48.3860 C.3   215  VAL215      0.0022
     60  N          2.9040   20.9400   52.1850 N.3   222  THR222     -0.1218
     61  CA         2.6760   20.3030   50.8670 C.3   222  THR222      0.1862
     62  C          3.4300   21.0420   49.7590 C.2   222  THR222      0.2287
     63  O          4.1350   20.4080   48.9730 O.2   222  THR222     -0.2866
     64  CB         1.1710   20.2760   50.5830 C.3   222  THR222      0.1770
     65  OG1        0.5650   19.4710   51.5780 O.3   222  THR222     -0.2211
     66  CG2        0.8310   19.7420   49.1910 C.3   222  THR222      0.0375
     67  N          6.5310   19.9210   47.3000 N.3   226  ALA226     -0.1245
     68  CA         6.3770   19.9450   45.8220 C.3   226  ALA226      0.1562
     69  C          7.6160   20.6250   45.2030 C.2   226  ALA226      0.2260
     70  O          8.0890   20.1600   44.1700 O.2   226  ALA226     -0.2867
     71  CB         5.1110   20.7060   45.4150 C.3   226  ALA226      0.0290
     72  N         10.2950   18.1110   45.0450 N.3   229  ILE229     -0.1231
     73  CA         9.9170   17.1120   44.0140 C.3   229  ILE229      0.1692
     74  C         10.3290   17.6160   42.6300 C.2   229  ILE229      0.2592
     75  O         10.9380   16.8680   41.8530 O.2   229  ILE229     -0.2718
     76  CB         8.4010   16.7180   44.0720 C.3   229  ILE229      0.0266
     77  CG1        8.0680   15.9750   45.3880 C.3   229  ILE229      0.0019
     78  CG2        8.0020   15.8720   42.8500 C.3   229  ILE229      0.0020
     79  CD1        6.5800   15.8900   45.7620 C.3   229  ILE229      0.0001
     80  N          9.9700   18.8780   42.3120 N.am  230  TYR230     -0.1976
     81  CA        10.3080   19.4810   41.0180 C.3   230  TYR230      0.1639
     82  C         11.7890   19.7770   40.8850 C.2   230  TYR230      0.2290
     83  O         12.2940   19.6520   39.7860 O.2   230  TYR230     -0.2864
     84  CB         9.4420   20.7170   40.6870 C.3   230  TYR230      0.0560
     85  CG         8.0440   20.2960   40.2920 C.ar  230  TYR230     -0.0198
     86  CD1        7.0180   20.2510   41.2290 C.ar  230  TYR230     -0.0009
     87  CD2        7.7620   19.8760   38.9930 C.ar  230  TYR230     -0.0009
     88  CE1        5.7410   19.8040   40.8850 C.ar  230  TYR230      0.0417
     89  CE2        6.4860   19.4340   38.6340 C.ar  230  TYR230      0.0417
     90  CZ         5.4790   19.3950   39.5850 C.ar  230  TYR230      0.1957
     91  OH         4.2130   18.9730   39.2370 O.3   230  TYR230     -0.2866
     92  N         13.1490   16.5190   39.7010 N.3   233  PHE233     -0.1241
     93  CA        12.7100   16.2820   38.3170 C.3   233  PHE233      0.1605
     94  C         13.4120   17.1860   37.3180 C.2   233  PHE233      0.2264
     95  O         13.7680   16.7410   36.2220 O.2   233  PHE233     -0.2867
     96  CB        11.1810   16.3670   38.1740 C.3   233  PHE233      0.0534
     97  CG        10.4600   15.1060   38.5690 C.ar  233  PHE233     -0.0203
     98  CD1       10.9010   13.8610   38.1250 C.ar  233  PHE233     -0.0042
     99  CD2        9.3200   15.1580   39.3550 C.ar  233  PHE233     -0.0042
    100  CE1       10.2200   12.7020   38.4760 C.ar  233  PHE233     -0.0003
    101  CE2        8.6420   13.9940   39.7040 C.ar  233  PHE233     -0.0003
    102  CZ         9.0920   12.7800   39.2600 C.ar  233  PHE233     -0.0000
    103  N          7.0020   18.4190   32.6870 N.3   250  MET250     -0.1245
    104  CA         7.1250   18.2880   34.1470 C.3   250  MET250      0.1570
    105  C          8.6090   18.3110   34.6270 C.2   250  MET250      0.2261
    106  O          8.9000   18.7820   35.7300 O.2   250  MET250     -0.2867
    107  CB         6.4480   16.9730   34.5830 C.3   250  MET250      0.0387
    108  CG         6.4160   16.7500   36.0780 C.3   250  MET250      0.0595
    109  SD         6.4020   15.0000   36.5630 S.3   250  MET250     -0.1393
    110  CE         8.0080   14.5170   36.0870 C.3   250  MET250      0.0692
    111  N         -0.0690   20.5860   36.3200 N.3   262  GLY262     -0.1210
    112  CA         0.4840   19.2350   36.4520 C.3   262  GLY262      0.1956
    113  C          0.0740   18.6280   37.7850 C.2   262  GLY262      0.2611
    114  O         -0.3250   17.4640   37.8390 O.2   262  GLY262     -0.2717
    115  N          0.1130   19.4400   38.8630 N.am  263  GLN263     -0.1979
    116  CA        -0.3160   19.0320   40.2050 C.3   263  GLN263      0.1601
    117  C         -1.7960   18.6850   40.1770 C.2   263  GLN263      0.2287
    118  O         -2.1720   17.6490   40.6920 O.2   263  GLN263     -0.2864
    119  CB        -0.0490   20.1190   41.2340 C.3   263  GLN263      0.0394
    120  CG         1.4230   20.1720   41.6470 C.3   263  GLN263      0.0908
    121  CD         1.8850   18.8830   42.3250 C.2   263  GLN263      0.2608
    122  OE1        1.3310   18.4280   43.3240 O.2   263  GLN263     -0.2717
    123  NE2        2.8970   18.2380   41.7740 N.am  263  GLN263     -0.0878
    124  N         -2.1100   15.4450   38.6270 N.3   266  PHE266     -0.1227
    125  CA        -1.6120   14.4190   39.5550 C.3   266  PHE266      0.1736
    126  C         -2.6360   14.0960   40.6340 C.2   266  PHE266      0.2595
    127  O         -2.8680   12.9230   40.9070 O.2   266  PHE266     -0.2718
    128  CB        -0.2690   14.8340   40.1720 C.3   266  PHE266      0.0547
    129  CG         0.3770   13.7430   41.0000 C.ar  266  PHE266     -0.0202
    130  CD1        1.0970   12.7190   40.3930 C.ar  266  PHE266     -0.0042
    131  CD2        0.2400   13.7220   42.3860 C.ar  266  PHE266     -0.0042
    132  CE1        1.6720   11.6920   41.1610 C.ar  266  PHE266     -0.0003
    133  CE2        0.8190   12.6940   43.1570 C.ar  266  PHE266     -0.0003
    134  CZ         1.5280   11.6900   42.5390 C.ar  266  PHE266     -0.0000
    135  N         -3.2590   15.1200   41.2490 N.am  267  TYR267     -0.1976
    136  CA        -4.2500   14.8820   42.3060 C.3   267  TYR267      0.1639
    137  C         -5.4920   14.1910   41.7620 C.2   267  TYR267      0.2290
    138  O         -5.9970   13.2790   42.3920 O.2   267  TYR267     -0.2864
    139  CB        -4.6650   16.1880   42.9920 C.3   267  TYR267      0.0560
    140  CG        -3.7120   16.7050   44.0560 C.ar  267  TYR267     -0.0198
    141  CD1       -2.3880   17.0050   43.7470 C.ar  267  TYR267     -0.0009
    142  CD2       -4.1510   16.9550   45.3580 C.ar  267  TYR267     -0.0009
    143  CE1       -1.5130   17.5050   44.7130 C.ar  267  TYR267      0.0417
    144  CE2       -3.2940   17.4870   46.3250 C.ar  267  TYR267      0.0417
    145  CZ        -1.9770   17.7630   45.9970 C.ar  267  TYR267      0.1957
    146  OH        -1.1330   18.3070   46.9410 O.3   267  TYR267     -0.2866
@<TRIPOS>BOND
     1   103   104    1
     2   104   107    1
     3   104   105    1
     4   107   108    1
     5   105   106    2
     6   108   109    1
     7   110   109    1
     8    95    94    2
     9   111   112    1
    10   112   113    1
    11    94    93    1
    12   113   114    2
    13   113   115   am
    14    98   100   ar
    15    98    97   ar
    16    96    93    1
    17    96    97    1
    18    93    92    1
    19   100   102   ar
    20    97    99   ar
    21   124   125    1
    22    89    87   ar
    23    89    90   ar
    24   115   116    1
    25    87    85   ar
    26    91    90    1
    27   102   101   ar
    28    99   101   ar
    29    26    25    2
    30    25    24    1
    31   125   128    1
    32   125   126    1
    33    90    88   ar
    34    83    82    2
    35   128   129    1
    36   117   116    1
    37   117   118    2
    38   116   119    1
    39    85    84    1
    40    85    86   ar
    41   130   129   ar
    42   130   132   ar
    43    27    24    1
    44    27    28    1
    45   126   127    2
    46   126   135   am
    47    84    81    1
    48    24    23    1
    49    82    81    1
    50    88    86   ar
    51   129   131   ar
    52    81    80    1
    53   132   134   ar
    54   119   120    1
    55   135   136    1
    56    29    28    1
    57   120   121    1
    58   137   136    1
    59   137   138    2
    60   123   121   am
    61    28    30    1
    62    75    74    2
    63   136   139    1
    64    80    74   am
    65   121   122    2
    66   131   133   ar
    67   134   133   ar
    68    74    73    1
    69    78    76    1
    70   139   140    1
    71   141   140   ar
    72   141   143   ar
    73    21    19   ar
    74    21    22   ar
    75    73    76    1
    76    73    72    1
    77   140   142   ar
    78    76    77    1
    79    70    69    2
    80    19    18   ar
    81   143   145   ar
    82    22    20   ar
    83    69    68    1
    84   142   144   ar
    85    46    44    1
    86    77    79    1
    87    71    68    1
    88    18    20   ar
    89    18    17    1
    90    45    44    1
    91    68    67    1
    92   145   144   ar
    93   145   146    1
    94     8    10   ar
    95     8     6   ar
    96     5     6    1
    97     5     2    1
    98    17    14    1
    99    44    43    1
   100    10    11   ar
   101     6     7   ar
   102     1     2    1
   103    38    36   ar
   104    13    14    1
   105    13     3   am
   106    58    57    1
   107     2     3    1
   108    14    15    1
   109    43    40    1
   110    11    12    1
   111    11     9   ar
   112     7     9   ar
   113     3     4    2
   114    36    37   ar
   115    36    35    1
   116    16    15    2
   117    57    59    1
   118    57    54    1
   119    40    39    1
   120    40    41    1
   121    35    32    1
   122    39    33   am
   123    63    62    2
   124    52    51    1
   125    34    33    2
   126    33    32    1
   127    42    41    2
   128    66    64    1
   129    54    53    1
   130    54    55    1
   131    32    31    1
   132    62    61    1
   133    53    49   am
   134    56    55    2
   135    51    48    1
   136    64    61    1
   137    64    65    1
   138    49    50    2
   139    49    48    1
   140    61    60    1
   141    47    48    1
