@<TRIPOS>MOLECULE
tmp/5c2aA00.pdb
 155 150 0 0 0
SMALL
GASTEIGER

@<TRIPOS>ATOM
      1  N         14.2950   15.1870   48.5990 N.3    78  TYR78      -0.1227
      2  CA        13.0640   14.5970   49.1300 C.3    78  TYR78       0.1736
      3  C         13.1820   13.1990   49.7320 C.2    78  TYR78       0.2595
      4  O         12.6540   12.9930   50.8190 O.2    78  TYR78      -0.2718
      5  CB        11.9550   14.5940   48.0420 C.3    78  TYR78       0.0548
      6  CG        10.6510   13.9770   48.5000 C.ar   78  TYR78      -0.0200
      7  CD1        9.8590   14.5980   49.4630 C.ar   78  TYR78      -0.0009
      8  CD2       10.2240   12.7550   47.9950 C.ar   78  TYR78      -0.0009
      9  CE1        8.6540   14.0220   49.8960 C.ar   78  TYR78       0.0417
     10  CE2        9.0250   12.1780   48.4080 C.ar   78  TYR78       0.0417
     11  CZ         8.2380   12.8170   49.3480 C.ar   78  TYR78       0.1957
     12  OH         7.0530   12.2330   49.7240 O.3    78  TYR78      -0.2866
     13  N         13.7570   12.2430   49.0320 N.am   79  HIS79      -0.1975
     14  CA        13.8410   10.8600   49.5430 C.3    79  HIS79       0.1656
     15  C         15.0190   10.7340   50.5310 C.2    79  HIS79       0.2291
     16  O         15.9970   10.0340   50.2870 O.2    79  HIS79      -0.2864
     17  CB        13.9040    9.8560   48.3870 C.3    79  HIS79       0.0771
     18  CG        12.6310    9.7590   47.6090 C.ar   79  HIS79       0.0820
     19  ND1       12.6000    9.9940   46.2480 N.ar   79  HIS79      -0.2267
     20  CD2       11.3800    9.4410   48.0220 C.ar   79  HIS79       0.1154
     21  CE1       11.3440    9.8020   45.8800 C.ar   79  HIS79       0.1986
     22  NE2       10.5740    9.4810   46.9120 N.ar   79  HIS79      -0.2212
     23  N          5.2290    2.9810   42.9900 N.3   189  LEU189     -0.1245
     24  CA         3.9630    3.5560   42.5300 C.3   189  LEU189      0.1561
     25  C          3.3960    2.8980   41.2790 C.2   189  LEU189      0.2260
     26  O          2.1820    2.8630   41.1160 O.2   189  LEU189     -0.2867
     27  CB         4.1100    5.0720   42.3470 C.3   189  LEU189      0.0270
     28  CG         2.9130    5.9450   42.7200 C.3   189  LEU189      0.0019
     29  CD1        2.3350    5.6050   44.0820 C.3   189  LEU189      0.0001
     30  CD2        3.3140    7.4140   42.6700 C.3   189  LEU189      0.0001
     31  N          3.3890    6.4260   52.1680 N.3   228  ASP228     -0.1225
     32  CA         4.3710    7.0250   51.2820 C.3   228  ASP228      0.1805
     33  C          3.9300    8.3980   50.7290 C.2   228  ASP228      0.2597
     34  O          4.7590    9.2920   50.5410 O.2   228  ASP228     -0.2718
     35  CB         4.6810    6.0670   50.1370 C.3   228  ASP228      0.1424
     36  CG         6.0440    6.2890   49.5180 C.2   228  ASP228      0.3668
     37  OD1        6.8840    6.9690   50.1530 O.co2 228  ASP228     -0.2456
     38  OD2        6.2770    5.7710   48.4160 O.co2 228  ASP228     -0.2456
     39  N          2.6130    8.5640   50.4900 N.am  229  LEU229     -0.1979
     40  CA         2.0800    9.8140   49.9550 C.3   229  LEU229      0.1596
     41  C          1.5160   10.7710   51.0100 C.2   229  LEU229      0.2287
     42  O          1.0370   11.8280   50.6240 O.2   229  LEU229     -0.2864
     43  CB         0.9600    9.4930   48.9090 C.3   229  LEU229      0.0297
     44  CG         1.2190    8.4440   47.8090 C.3   229  LEU229      0.0022
     45  CD1        0.0140    8.3550   46.8600 C.3   229  LEU229      0.0001
     46  CD2        2.5250    8.7230   47.0260 C.3   229  LEU229      0.0001
     47  N          2.2770   13.2190   52.7200 N.3   231  SER231     -0.1202
     48  CA         2.5010   14.6740   52.7480 C.3   231  SER231      0.2020
     49  C          1.2570   15.4170   52.2340 C.2   231  SER231      0.2618
     50  O          1.0270   16.5750   52.6110 O.2   231  SER231     -0.2717
     51  CB         3.7190   15.0680   51.9210 C.3   231  SER231      0.2103
     52  OG         3.5480   14.8500   50.5350 O.3   231  SER231     -0.2182
     53  N          0.4330   14.7310   51.4030 N.am  232  VAL232     -0.1979
     54  CA        -0.8240   15.2960   50.8720 C.3   232  VAL232      0.1595
     55  C         -1.9330   15.2900   51.9400 C.2   232  VAL232      0.2287
     56  O         -3.0300   15.7900   51.6700 O.2   232  VAL232     -0.2864
     57  CB        -1.3080   14.6340   49.5500 C.3   232  VAL232      0.0276
     58  CG1       -0.2070   14.6430   48.4810 C.3   232  VAL232      0.0022
     59  CG2       -1.8190   13.2280   49.7930 C.3   232  VAL232      0.0022
     60  N          2.0030   20.6770   53.5250 N.3   239  THR239     -0.1218
     61  CA         1.8430   20.0230   52.2100 C.3   239  THR239      0.1862
     62  C          2.5860   20.8220   51.1260 C.2   239  THR239      0.2287
     63  O          3.3510   20.2580   50.3330 O.2   239  THR239     -0.2866
     64  CB         0.3330   19.8540   51.8910 C.3   239  THR239      0.1770
     65  OG1       -0.2550   18.9940   52.8630 O.3   239  THR239     -0.2211
     66  CG2        0.0760   19.2910   50.4930 C.3   239  THR239      0.0375
     67  N          5.8630   19.7940   48.9100 N.3   243  ALA243     -0.1245
     68  CA         5.7610   19.8230   47.4350 C.3   243  ALA243      0.1562
     69  C          7.0160   20.5220   46.8510 C.2   243  ALA243      0.2260
     70  O          7.5160   20.0750   45.8260 O.2   243  ALA243     -0.2867
     71  CB         4.4620   20.5220   46.9810 C.3   243  ALA243      0.0290
     72  N          9.7060   17.8820   46.8630 N.3   246  ILE246     -0.1231
     73  CA         9.3710   16.8750   45.8470 C.3   246  ILE246      0.1692
     74  C          9.8380   17.3570   44.4850 C.2   246  ILE246      0.2592
     75  O         10.5050   16.6120   43.7920 O.2   246  ILE246     -0.2718
     76  CB         7.8380   16.5500   45.8600 C.3   246  ILE246      0.0266
     77  CG1        7.5060   15.5970   47.0180 C.3   246  ILE246      0.0019
     78  CG2        7.3630   15.9650   44.5250 C.3   246  ILE246      0.0020
     79  CD1        6.0970   15.6500   47.5890 C.3   246  ILE246      0.0001
     80  N          9.4850   18.6040   44.0980 N.am  247  TYR247     -0.1976
     81  CA         9.8570   19.1280   42.7780 C.3   247  TYR247      0.1639
     82  C         11.3400   19.4320   42.6860 C.2   247  TYR247      0.2290
     83  O         11.9090   19.2140   41.6240 O.2   247  TYR247     -0.2864
     84  CB         8.9550   20.3290   42.3560 C.3   247  TYR247      0.0560
     85  CG         7.5630   19.8780   41.9270 C.ar  247  TYR247     -0.0198
     86  CD1        6.4900   19.8980   42.8190 C.ar  247  TYR247     -0.0009
     87  CD2        7.3450   19.3390   40.6690 C.ar  247  TYR247     -0.0009
     88  CE1        5.2150   19.4550   42.4390 C.ar  247  TYR247      0.0417
     89  CE2        6.0830   18.8770   40.2810 C.ar  247  TYR247      0.0417
     90  CZ         5.0180   18.9420   41.1650 C.ar  247  TYR247      0.1957
     91  OH         3.7780   18.4790   40.7750 O.3   247  TYR247     -0.2866
     92  N         13.6830   17.6730   43.9320 N.3   249  GLU249     -0.1231
     93  CA        14.2590   16.3800   43.5750 C.3   249  GLU249      0.1699
     94  C         13.9560   16.0270   42.0990 C.2   249  GLU249      0.2592
     95  O         14.8620   15.6020   41.3750 O.2   249  GLU249     -0.2718
     96  CB        13.7760   15.2790   44.5240 C.3   249  GLU249      0.0402
     97  CG        14.4160   13.9410   44.2050 C.3   249  GLU249      0.1161
     98  CD        14.4180   12.9070   45.3100 C.2   249  GLU249      0.3649
     99  OE1       14.6230   13.2760   46.4860 O.co2 249  GLU249     -0.2457
    100  OE2       14.2340   11.7160   44.9850 O.co2 249  GLU249     -0.2457
    101  N         12.6960   16.1870   41.6570 N.am  250  PHE250     -0.1976
    102  CA        12.3290   15.8820   40.2570 C.3   250  PHE250      0.1639
    103  C         13.1100   16.7440   39.2540 C.2   250  PHE250      0.2290
    104  O         13.6180   16.2170   38.2630 O.2   250  PHE250     -0.2864
    105  CB        10.8180   16.0640   40.0220 C.3   250  PHE250      0.0560
    106  CG         9.9240   14.9380   40.4700 C.ar  250  PHE250     -0.0200
    107  CD1       10.2710   13.6130   40.2340 C.ar  250  PHE250     -0.0042
    108  CD2        8.6950   15.2040   41.0730 C.ar  250  PHE250     -0.0042
    109  CE1        9.4210   12.5650   40.6270 C.ar  250  PHE250     -0.0003
    110  CE2        7.8450   14.1610   41.4550 C.ar  250  PHE250     -0.0003
    111  CZ         8.2080   12.8510   41.2300 C.ar  250  PHE250     -0.0000
    112  N          6.8850   17.4240   34.6600 N.3   267  MET267     -0.1245
    113  CA         7.0200   17.2830   36.1200 C.3   267  MET267      0.1570
    114  C          8.5080   17.3890   36.5500 C.2   267  MET267      0.2261
    115  O          8.7950   17.8700   37.6300 O.2   267  MET267     -0.2867
    116  CB         6.4050   15.9280   36.5380 C.3   267  MET267      0.0387
    117  CG         6.5150   15.6140   37.9880 C.3   267  MET267      0.0595
    118  SD         5.7500   14.0190   38.3710 S.3   267  MET267     -0.1393
    119  CE         6.9820   12.9310   37.8150 C.3   267  MET267      0.0692
    120  N         -0.5080   19.7580   37.5400 N.3   279  GLY279     -0.1210
    121  CA         0.1400   18.4610   37.7780 C.3   279  GLY279      0.1956
    122  C         -0.3400   17.8570   39.0890 C.2   279  GLY279      0.2611
    123  O         -0.6880   16.6760   39.1390 O.2   279  GLY279     -0.2717
    124  N         -0.4280   18.6870   40.1400 N.am  280  GLN280     -0.1979
    125  CA        -0.9060   18.3050   41.4760 C.3   280  GLN280      0.1601
    126  C         -2.3760   17.9080   41.4160 C.2   280  GLN280      0.2287
    127  O         -2.7610   16.8790   41.9790 O.2   280  GLN280     -0.2864
    128  CB        -0.6470   19.4300   42.4920 C.3   280  GLN280      0.0394
    129  CG         0.8390   19.5750   42.8550 C.3   280  GLN280      0.0908
    130  CD         1.3390   18.3620   43.6120 C.2   280  GLN280      0.2608
    131  OE1        0.9370   18.0990   44.7490 O.2   280  GLN280     -0.2717
    132  NE2        2.2050   17.5920   42.9870 N.am  280  GLN280     -0.0878
    133  N         -2.5420   14.4930   39.9670 N.3   283  PHE283     -0.1227
    134  CA        -2.0310   13.5400   40.9570 C.3   283  PHE283      0.1736
    135  C         -3.0480   13.2860   42.0480 C.2   283  PHE283      0.2595
    136  O         -3.2640   12.1390   42.4090 O.2   283  PHE283     -0.2718
    137  CB        -0.6890   14.0230   41.5530 C.3   283  PHE283      0.0547
    138  CG        -0.0740   13.0470   42.5270 C.ar  283  PHE283     -0.0202
    139  CD1        0.6420   11.9540   42.0720 C.ar  283  PHE283     -0.0042
    140  CD2       -0.2540   13.2010   43.8960 C.ar  283  PHE283     -0.0042
    141  CE1        1.1870   11.0400   42.9680 C.ar  283  PHE283     -0.0003
    142  CE2        0.2930   12.2880   44.7920 C.ar  283  PHE283     -0.0003
    143  CZ         1.0000   11.2060   44.3190 C.ar  283  PHE283     -0.0000
    144  N         -3.6980   14.3330   42.5640 N.am  284  TYR284     -0.1976
    145  CA        -4.7120   14.1320   43.6020 C.3   284  TYR284      0.1639
    146  C         -5.8950   13.3450   43.0900 C.2   284  TYR284      0.2290
    147  O         -6.3180   12.4070   43.7510 O.2   284  TYR284     -0.2864
    148  CB        -5.2100   15.4470   44.2130 C.3   284  TYR284      0.0560
    149  CG        -4.3090   15.9960   45.3070 C.ar  284  TYR284     -0.0198
    150  CD1       -3.0180   16.4280   45.0200 C.ar  284  TYR284     -0.0009
    151  CD2       -4.7550   16.0990   46.6260 C.ar  284  TYR284     -0.0009
    152  CE1       -2.1900   16.9440   46.0100 C.ar  284  TYR284      0.0417
    153  CE2       -3.9270   16.6230   47.6290 C.ar  284  TYR284      0.0417
    154  CZ        -2.6530   17.0570   47.3050 C.ar  284  TYR284      0.1957
    155  OH        -1.8340   17.6010   48.2490 O.3   284  TYR284     -0.2866
@<TRIPOS>BOND
     1   112   113    1
     2   113   116    1
     3   113   114    1
     4   116   117    1
     5   114   115    2
     6   120   121    1
     7   121   122    1
     8   119   118    1
     9   117   118    1
    10   104   103    2
    11   122   123    2
    12   122   124   am
    13   103   102    1
    14   133   134    1
    15   105   102    1
    16   105   106    1
    17   124   125    1
    18   107   106   ar
    19   107   109   ar
    20   102   101    1
    21    89    87   ar
    22    89    90   ar
    23   106   108   ar
    24   109   111   ar
    25    87    85   ar
    26    91    90    1
    27   134   137    1
    28   134   135    1
    29   108   110   ar
    30    26    25    2
    31    90    88   ar
    32   111   110   ar
    33    25    24    1
    34    95    94    2
    35   126   125    1
    36   126   127    2
    37   125   128    1
    38   137   138    1
    39    83    82    2
    40   101    94   am
    41    85    84    1
    42    85    86   ar
    43   135   136    2
    44   135   144   am
    45   139   138   ar
    46   139   141   ar
    47    94    93    1
    48    27    24    1
    49    27    28    1
    50    84    81    1
    51    88    86   ar
    52   128   129    1
    53   138   140   ar
    54    24    23    1
    55   144   145    1
    56    30    28    1
    57    82    81    1
    58    28    29    1
    59    81    80    1
    60   129   130    1
    61   141   143   ar
    62   132   130   am
    63   146   145    1
    64   146   147    2
    65    93    92    1
    66    93    96    1
    67   145   148    1
    68   130   131    2
    69    75    74    2
    70   140   142   ar
    71    80    74   am
    72    97    96    1
    73    97    98    1
    74   148   149    1
    75   143   142   ar
    76    74    73    1
    77    78    76    1
    78   100    98   ar
    79   150   149   ar
    80   150   152   ar
    81   149   151   ar
    82    98    99   ar
    83    70    69    2
    84    73    76    1
    85    73    72    1
    86    76    77    1
    87    21    19   ar
    88    21    22   ar
    89   152   154   ar
    90    19    18   ar
    91   151   153   ar
    92    69    68    1
    93    45    44    1
    94    22    20   ar
    95    71    68    1
    96    77    79    1
    97    46    44    1
    98   154   153   ar
    99   154   155    1
   100    68    67    1
   101    18    20   ar
   102    18    17    1
   103    44    43    1
   104     8    10   ar
   105     8     6   ar
   106     5     6    1
   107     5     2    1
   108    17    14    1
   109    10    11   ar
   110    38    36   ar
   111    58    57    1
   112     6     7   ar
   113     1     2    1
   114    43    40    1
   115    13    14    1
   116    13     3   am
   117     2     3    1
   118    11    12    1
   119    11     9   ar
   120     7     9   ar
   121    36    35    1
   122    36    37   ar
   123    14    15    1
   124    57    59    1
   125    57    54    1
   126     3     4    2
   127    40    39    1
   128    40    41    1
   129    35    32    1
   130    16    15    2
   131    63    62    2
   132    39    33   am
   133    66    64    1
   134    52    51    1
   135    34    33    2
   136    42    41    2
   137    33    32    1
   138    54    53    1
   139    54    55    1
   140    62    61    1
   141    32    31    1
   142    53    49   am
   143    56    55    2
   144    64    61    1
   145    64    65    1
   146    51    48    1
   147    61    60    1
   148    49    50    2
   149    49    48    1
   150    47    48    1
