@<TRIPOS>MOLECULE
tmp/5c2eB00.pdb
 188 181 0 0 0
SMALL
GASTEIGER

@<TRIPOS>ATOM
      1  N         -5.5980    7.3470   15.5030 N.3    78  TYR78      -0.1227
      2  CA        -6.5000    6.3070   14.9930 C.3    78  TYR78       0.1736
      3  C         -7.9640    6.7160   14.8730 C.2    78  TYR78       0.2595
      4  O         -8.5170    6.5530   13.7900 O.2    78  TYR78      -0.2718
      5  CB        -6.3740    5.0100   15.8260 C.3    78  TYR78       0.0548
      6  CG        -7.3310    3.9060   15.4220 C.ar   78  TYR78      -0.0200
      7  CD1       -7.1800    3.2310   14.2140 C.ar   78  TYR78      -0.0009
      8  CD2       -8.3870    3.5350   16.2490 C.ar   78  TYR78      -0.0009
      9  CE1       -8.0540    2.2120   13.8390 C.ar   78  TYR78       0.0417
     10  CE2       -9.2660    2.5140   15.8870 C.ar   78  TYR78       0.0417
     11  CZ        -9.0910    1.8510   14.6830 C.ar   78  TYR78       0.1957
     12  OH        -9.9470    0.8400   14.3220 O.3    78  TYR78      -0.2866
     13  N         -8.6070    7.1960   15.9620 N.am   79  HIS79      -0.1975
     14  CA       -10.0260    7.5800   15.9430 C.3    79  HIS79       0.1656
     15  C        -10.2670    8.9370   15.2580 C.2    79  HIS79       0.2291
     16  O        -10.8440    9.8660   15.8340 O.2    79  HIS79      -0.2864
     17  CB       -10.6310    7.5200   17.3510 C.3    79  HIS79       0.0771
     18  CG       -10.7460    6.1330   17.8900 C.ar   79  HIS79       0.0820
     19  ND1      -10.0260    5.7310   18.9950 N.ar   79  HIS79      -0.2267
     20  CD2      -11.4920    5.0930   17.4530 C.ar   79  HIS79       0.1154
     21  CE1      -10.3580    4.4700   19.2010 C.ar   79  HIS79       0.1986
     22  NE2      -11.2340    4.0420   18.2960 N.ar   79  HIS79      -0.2212
     23  N         -9.3700    6.8250   26.1520 N.3   125  SER125     -0.1217
     24  CA       -10.3330    5.7870   26.5170 C.3   125  SER125      0.1889
     25  C        -11.3400    6.3210   27.5470 C.2   125  SER125      0.2288
     26  O        -11.1040    7.3780   28.1460 O.2   125  SER125     -0.2866
     27  CB        -9.6020    4.5660   27.0740 C.3   125  SER125      0.2089
     28  OG        -8.9960    4.8350   28.3290 O.3   125  SER125     -0.2183
     29  N        -16.9340   -0.9880   23.3840 N.3   189  LEU189     -0.1245
     30  CA       -16.4440   -2.3710   23.3970 C.3   189  LEU189      0.1561
     31  C        -16.7550   -3.1310   24.7010 C.2   189  LEU189      0.2260
     32  O        -16.8860   -4.3520   24.6680 O.2   189  LEU189     -0.2867
     33  CB       -14.9410   -2.4100   23.0640 C.3   189  LEU189      0.0270
     34  CG       -14.3960   -3.6800   22.4120 C.3   189  LEU189      0.0019
     35  CD1      -14.8730   -3.8200   20.9650 C.3   189  LEU189      0.0001
     36  CD2      -12.8790   -3.6850   22.4390 C.3   189  LEU189      0.0001
     37  N        -19.3140   -7.4920   24.7870 N.3   193  PHE193     -0.1241
     38  CA       -19.1880   -8.8280   25.3950 C.3   193  PHE193      0.1605
     39  C        -20.5230   -9.3890   25.8910 C.2   193  PHE193      0.2264
     40  O        -20.8420  -10.5480   25.6130 O.2   193  PHE193     -0.2867
     41  CB       -18.1130   -8.8410   26.4990 C.3   193  PHE193      0.0534
     42  CG       -16.7380   -8.4270   26.0250 C.ar  193  PHE193     -0.0203
     43  CD1      -16.2620   -7.1430   26.2590 C.ar  193  PHE193     -0.0042
     44  CD2      -15.9250   -9.3170   25.3320 C.ar  193  PHE193     -0.0042
     45  CE1      -14.9930   -6.7580   25.8180 C.ar  193  PHE193     -0.0003
     46  CE2      -14.6570   -8.9290   24.8860 C.ar  193  PHE193     -0.0003
     47  CZ       -14.2000   -7.6520   25.1330 C.ar  193  PHE193     -0.0000
     48  N        -16.7080   -1.4930   13.5130 N.3   228  ASP228     -0.1225
     49  CA       -15.7060   -0.7680   14.2990 C.3   228  ASP228      0.1805
     50  C        -14.3300   -1.4240   14.2930 C.2   228  ASP228      0.2597
     51  O        -13.3260   -0.7150   14.2230 O.2   228  ASP228     -0.2718
     52  CB       -16.1860   -0.5170   15.7400 C.3   228  ASP228      0.1424
     53  CG       -15.5470    0.6970   16.3960 C.2   228  ASP228      0.3668
     54  OD1      -14.9990    1.5530   15.6620 O.co2 228  ASP228     -0.2456
     55  OD2      -15.6020    0.7960   17.6400 O.co2 228  ASP228     -0.2456
     56  N        -14.2840   -2.7690   14.3340 N.am  229  LEU229     -0.1979
     57  CA       -13.0320   -3.5350   14.3530 C.3   229  LEU229      0.1596
     58  C        -12.5770   -4.0570   12.9850 C.2   229  LEU229      0.2287
     59  O        -11.5640   -4.7560   12.9300 O.2   229  LEU229     -0.2864
     60  CB       -13.1310   -4.7220   15.3540 C.3   229  LEU229      0.0297
     61  CG       -13.7870   -4.4950   16.7320 C.3   229  LEU229      0.0022
     62  CD1      -14.1090   -5.8230   17.4000 C.3   229  LEU229      0.0001
     63  CD2      -12.9070   -3.6580   17.6510 C.3   229  LEU229      0.0001
     64  N        -10.7160   -3.3000   10.6940 N.3   231  SER231     -0.1202
     65  CA        -9.3150   -3.1590   10.2720 C.3   231  SER231      0.2020
     66  C         -8.5820   -4.5190   10.3330 C.2   231  SER231      0.2618
     67  O         -7.5700   -4.7090    9.6510 O.2   231  SER231     -0.2717
     68  CB        -8.5980   -2.1240   11.1290 C.3   231  SER231      0.2103
     69  OG        -8.7950   -2.3610   12.5120 O.3   231  SER231     -0.2182
     70  N         -9.1220   -5.4640   11.1400 N.am  232  VAL232     -0.1979
     71  CA        -8.5990   -6.8260   11.3130 C.3   232  VAL232      0.1595
     72  C         -9.0270   -7.7220   10.1390 C.2   232  VAL232      0.2287
     73  O         -8.5050   -8.8300   10.0010 O.2   232  VAL232     -0.2864
     74  CB        -8.9850   -7.4640   12.6850 C.3   232  VAL232      0.0276
     75  CG1       -8.5190   -6.6080   13.8590 C.3   232  VAL232      0.0022
     76  CG2      -10.4790   -7.7770   12.7830 C.3   232  VAL232      0.0022
     77  N         -3.7150   -4.1370    7.3140 N.3   239  THR239     -0.1218
     78  CA        -3.9650   -4.4300    8.7360 C.3   239  THR239      0.1862
     79  C         -2.7490   -4.0430    9.6050 C.2   239  THR239      0.2287
     80  O         -2.9220   -3.4070   10.6480 O.2   239  THR239     -0.2866
     81  CB        -4.4230   -5.8960    8.9050 C.3   239  THR239      0.1770
     82  OG1       -5.6710   -6.0670    8.2320 O.3   239  THR239     -0.2211
     83  CG2       -4.5950   -6.3030   10.3660 C.3   239  THR239      0.0375
     84  N         -2.4690   -1.1540   12.5690 N.3   243  ALA243     -0.1245
     85  CA        -2.0390   -1.5760   13.9080 C.3   243  ALA243      0.1562
     86  C         -1.0640   -0.5590   14.5040 C.2   243  ALA243      0.2260
     87  O         -1.1580   -0.2650   15.6970 O.2   243  ALA243     -0.2867
     88  CB        -1.4040   -2.9590   13.8590 C.3   243  ALA243      0.0290
     89  N         -3.1930    2.3360   15.6590 N.3   246  ILE246     -0.1231
     90  CA        -3.9450    1.9020   16.8450 C.3   246  ILE246      0.1692
     91  C         -3.0230    1.9840   18.0830 C.2   246  ILE246      0.2592
     92  O         -3.4390    2.4940   19.1260 O.2   246  ILE246     -0.2718
     93  CB        -4.5080    0.4550   16.6480 C.3   246  ILE246      0.0266
     94  CG1       -5.6880    0.4330   15.6640 C.3   246  ILE246      0.0019
     95  CG2       -4.9230   -0.1850   17.9730 C.3   246  ILE246      0.0020
     96  CD1       -5.9220   -0.8980   14.9360 C.3   246  ILE246      0.0001
     97  N         -1.7820    1.4870   17.9570 N.am  247  TYR247     -0.1976
     98  CA        -0.8450    1.4990   19.0760 C.3   247  TYR247      0.1639
     99  C         -0.2510    2.8810   19.3280 C.2   247  TYR247      0.2290
    100  O          0.0660    3.1660   20.4770 O.2   247  TYR247     -0.2864
    101  CB         0.2140    0.3970   18.9540 C.3   247  TYR247      0.0560
    102  CG        -0.3500   -0.9270   19.4230 C.ar  247  TYR247     -0.0198
    103  CD1       -1.0100   -1.7790   18.5400 C.ar  247  TYR247     -0.0009
    104  CD2       -0.2960   -1.2950   20.7650 C.ar  247  TYR247     -0.0009
    105  CE1       -1.5690   -2.9800   18.9730 C.ar  247  TYR247      0.0417
    106  CE2       -0.8520   -2.4950   21.2110 C.ar  247  TYR247      0.0417
    107  CZ        -1.4880   -3.3340   20.3110 C.ar  247  TYR247      0.1957
    108  OH        -2.0330   -4.5210   20.7410 O.3   247  TYR247     -0.2866
    109  N         -1.9900    5.6720   19.1960 N.3   249  GLU249     -0.1231
    110  CA        -3.0320    6.2980   20.0110 C.3   249  GLU249      0.1699
    111  C         -3.0230    5.7210   21.4410 C.2   249  GLU249      0.2592
    112  O         -3.1780    6.4800   22.3970 O.2   249  GLU249     -0.2718
    113  CB        -4.4090    6.1470   19.3540 C.3   249  GLU249      0.0402
    114  CG        -5.4930    6.9440   20.0640 C.3   249  GLU249      0.1161
    115  CD        -6.7620    7.1970   19.2800 C.2   249  GLU249      0.3649
    116  OE1       -6.6740    7.5170   18.0740 O.co2 249  GLU249     -0.2457
    117  OE2       -7.8510    7.0990   19.8850 O.co2 249  GLU249     -0.2457
    118  N         -2.8350    4.3900   21.5830 N.am  250  PHE250     -0.1976
    119  CA        -2.7780    3.7270   22.8900 C.3   250  PHE250      0.1639
    120  C         -1.5850    4.2530   23.6910 C.2   250  PHE250      0.2290
    121  O         -1.7450    4.5980   24.8610 O.2   250  PHE250     -0.2864
    122  CB        -2.6750    2.1980   22.7400 C.3   250  PHE250      0.0560
    123  CG        -3.9640    1.4360   22.5180 C.ar  250  PHE250     -0.0200
    124  CD1       -5.1310    1.7970   23.1830 C.ar  250  PHE250     -0.0042
    125  CD2       -3.9950    0.3200   21.6910 C.ar  250  PHE250     -0.0042
    126  CE1       -6.3140    1.0770   22.9930 C.ar  250  PHE250     -0.0003
    127  CE2       -5.1760   -0.4030   21.5090 C.ar  250  PHE250     -0.0003
    128  CZ        -6.3270   -0.0200   22.1600 C.ar  250  PHE250     -0.0000
    129  N         -0.3210   -2.5390   27.3130 N.3   267  MET267     -0.1245
    130  CA        -0.9960   -2.1920   26.0520 C.3   267  MET267      0.1570
    131  C         -0.8050   -0.6970   25.6900 C.2   267  MET267      0.2261
    132  O         -0.6850   -0.3550   24.5090 O.2   267  MET267     -0.2867
    133  CB        -2.4920   -2.5250   26.1920 C.3   267  MET267      0.0387
    134  CG        -3.3100   -2.3230   24.9330 C.3   267  MET267      0.0595
    135  SD        -5.0830   -2.3260   25.2980 S.3   267  MET267     -0.1393
    136  CE        -5.2700   -0.7460   25.9970 C.3   267  MET267      0.0692
    137  N         -0.0610   -9.4810   22.1590 N.3   279  GLY279     -0.1210
    138  CA        -1.2810   -8.7580   22.5170 C.3   279  GLY279      0.1956
    139  C         -2.3450   -8.8380   21.4330 C.2   279  GLY279      0.2611
    140  O         -3.5330   -9.0020   21.7310 O.2   279  GLY279     -0.2717
    141  N         -1.9160   -8.7480   20.1630 N.am  280  GLN280     -0.1979
    142  CA        -2.7980   -8.8420   18.9960 C.3   280  GLN280      0.1601
    143  C         -3.4080  -10.2440   18.8830 C.2   280  GLN280      0.2287
    144  O         -4.6260  -10.3580   18.7350 O.2   280  GLN280     -0.2864
    145  CB        -2.0580   -8.4400   17.7070 C.3   280  GLN280      0.0394
    146  CG        -1.8610   -6.9250   17.5630 C.3   280  GLN280      0.0908
    147  CD        -3.1710   -6.2010   17.3910 C.2   280  GLN280      0.2608
    148  OE1       -3.7990   -6.2520   16.3320 O.2   280  GLN280     -0.2717
    149  NE2       -3.6170   -5.5210   18.4330 N.am  280  GLN280     -0.0878
    150  N         -3.9780  -12.3660   21.1900 N.3   282  GLY282     -0.1210
    151  CA        -4.9500  -12.4300   22.2750 C.3   282  GLY282      0.1956
    152  C         -6.2340  -11.7040   21.9290 C.2   282  GLY282      0.2612
    153  O         -7.3240  -12.2330   22.1730 O.2   282  GLY282     -0.2717
    154  N         -6.1150  -10.4890   21.3370 N.am  283  PHE283     -0.1962
    155  CA        -7.2630   -9.6730   20.9210 C.3   283  PHE283      0.1771
    156  C         -8.0640  -10.4010   19.8380 C.2   283  PHE283      0.2619
    157  O         -9.2960  -10.4240   19.8920 O.2   283  PHE283     -0.2715
    158  CB        -6.8130   -8.2820   20.4190 C.3   283  PHE283      0.0574
    159  CG        -7.9510   -7.3830   19.9870 C.ar  283  PHE283     -0.0200
    160  CD1       -8.7160   -6.7000   20.9270 C.ar  283  PHE283     -0.0042
    161  CD2       -8.2670   -7.2300   18.6410 C.ar  283  PHE283     -0.0042
    162  CE1       -9.7770   -5.8810   20.5270 C.ar  283  PHE283     -0.0003
    163  CE2       -9.3340   -6.4180   18.2440 C.ar  283  PHE283     -0.0003
    164  CZ       -10.0760   -5.7430   19.1900 C.ar  283  PHE283     -0.0000
    165  N         -7.3570  -10.9920   18.8630 N.am  284  TYR284     -0.1974
    166  CA        -7.9790  -11.7360   17.7700 C.3   284  TYR284      0.1639
    167  C         -8.7790  -12.9210   18.2960 C.2   284  TYR284      0.2290
    168  O         -9.9230  -13.0980   17.8880 O.2   284  TYR284     -0.2864
    169  CB        -6.9300  -12.1850   16.7460 C.3   284  TYR284      0.0560
    170  CG        -6.6230  -11.1600   15.6740 C.ar  284  TYR284     -0.0198
    171  CD1       -5.8630  -10.0290   15.9600 C.ar  284  TYR284     -0.0009
    172  CD2       -7.0570  -11.3410   14.3640 C.ar  284  TYR284     -0.0009
    173  CE1       -5.5730   -9.0840   14.9780 C.ar  284  TYR284      0.0417
    174  CE2       -6.7670  -10.4070   13.3700 C.ar  284  TYR284      0.0417
    175  CZ        -6.0220   -9.2810   13.6820 C.ar  284  TYR284      0.1957
    176  OH        -5.7300   -8.3550   12.7120 O.3   284  TYR284     -0.2866
    177  N         -9.8240  -13.4790   21.6410 N.3   286  ALA286     -0.1231
    178  CA       -10.8310  -13.1180   22.6470 C.3   286  ALA286      0.1694
    179  C        -11.9240  -12.1370   22.1980 C.2   286  ALA286      0.2591
    180  O        -13.0290  -12.1880   22.7450 O.2   286  ALA286     -0.2718
    181  CB       -10.1500  -12.5820   23.8970 C.3   286  ALA286      0.0304
    182  N        -11.6280  -11.2310   21.2490 N.am  287  VAL287     -0.1980
    183  CA       -12.6080  -10.2270   20.8100 C.3   287  VAL287      0.1595
    184  C        -13.0610  -10.4130   19.3510 C.2   287  VAL287      0.2287
    185  O        -14.2530  -10.6190   19.1090 O.2   287  VAL287     -0.2864
    186  CB       -12.1020   -8.7710   21.0700 C.3   287  VAL287      0.0276
    187  CG1      -13.1350   -7.7330   20.6370 C.3   287  VAL287      0.0022
    188  CG2      -11.7140   -8.5580   22.5310 C.3   287  VAL287      0.0022
@<TRIPOS>BOND
     1    77    78    1
     2    82    81    1
     3    78    81    1
     4    78    79    1
     5    81    83    1
     6    79    80    2
     7    67    66    2
     8    73    72    2
     9    72    71    1
    10    65    66    1
    11    65    64    1
    12    65    68    1
    13    66    70   am
    14    68    69    1
    15    70    71    1
    16    71    74    1
    17    84    85    1
    18    74    76    1
    19    74    75    1
    20   176   175    1
    21    59    58    2
    22    58    57    1
    23   174   175   ar
    24   174   172   ar
    25    48    49    1
    26   175   173   ar
    27     4     3    2
    28     9     7   ar
    29     9    11   ar
    30    88    85    1
    31    85    86    1
    32     7     6   ar
    33    51    50    2
    34    50    49    1
    35    50    56   am
    36    49    52    1
    37    12    11    1
    38    56    57    1
    39    57    60    1
    40   172   170   ar
    41    86    87    2
    42    11    10   ar
    43     3     2    1
    44     3    13   am
    45    96    94    1
    46   173   171   ar
    47     2     1    1
    48     2     5    1
    49    15    16    2
    50    15    14    1
    51    60    61    1
    52     6     5    1
    53     6     8   ar
    54    89    90    1
    55    54    53   ar
    56    94    93    1
    57   170   171   ar
    58   170   169    1
    59    52    53    1
    60    10     8   ar
    61    14    13    1
    62    14    17    1
    63   148   147    2
    64    53    55   ar
    65    93    90    1
    66    93    95    1
    67    61    62    1
    68    61    63    1
    69   169   166    1
    70    90    91    1
    71    17    18    1
    72   147   146    1
    73   147   149   am
    74    20    18   ar
    75    20    22   ar
    76   146   145    1
    77   145   142    1
    78   166   167    1
    79   166   165    1
    80   168   167    2
    81    18    19   ar
    82    97    91   am
    83    97    98    1
    84   116   115   ar
    85    91    92    2
    86   163   161   ar
    87   163   164   ar
    88    22    21   ar
    89   103   105   ar
    90   103   102   ar
    91   161   159   ar
    92   144   143    2
    93   165   156   am
    94   143   142    1
    95   101    98    1
    96   101   102    1
    97   105   107   ar
    98    19    21   ar
    99   142   141    1
   100    98    99    1
   101   185   184    2
   102   164   162   ar
   103   109   110    1
   104   115   117   ar
   105   115   114    1
   106    99   100    2
   107   184   183    1
   108   113   110    1
   109   113   114    1
   110   102   104   ar
   111   156   157    2
   112   156   155    1
   113   159   158    1
   114   159   160   ar
   115   110   111    1
   116   141   139   am
   117   107   108    1
   118   107   106   ar
   119   158   155    1
   120   162   160   ar
   121   187   186    1
   122   104   106   ar
   123   183   186    1
   124   183   182    1
   125   155   154    1
   126    35    34    1
   127   186   188    1
   128   150   151    1
   129   182   179   am
   130   154   152   am
   131   139   140    2
   132   139   138    1
   133   111   118   am
   134   111   112    2
   135   127   125   ar
   136   127   128   ar
   137   118   119    1
   138   177   178    1
   139   125   123   ar
   140   152   153    2
   141   152   151    1
   142   137   138    1
   143   128   126   ar
   144   179   178    1
   145   179   180    2
   146    34    36    1
   147    34    33    1
   148   123   122    1
   149   123   124   ar
   150   178   181    1
   151   122   119    1
   152   119   120    1
   153   126   124   ar
   154    33    30    1
   155    29    30    1
   156    30    31    1
   157   120   121    2
   158   132   131    2
   159    32    31    2
   160    37    38    1
   161    46    47   ar
   162    46    44   ar
   163   134   135    1
   164   134   133    1
   165    47    45   ar
   166   135   136    1
   167    44    42   ar
   168    38    39    1
   169    38    41    1
   170    40    39    2
   171   131   130    1
   172    45    43   ar
   173    42    43   ar
   174    42    41    1
   175   130   133    1
   176   130   129    1
   177    23    24    1
   178    24    27    1
   179    24    25    1
   180    27    28    1
   181    25    26    2
