@<TRIPOS>MOLECULE
tmp/5c2fA00.pdb
 100 91 0 0 0
SMALL
GASTEIGER

@<TRIPOS>ATOM
      1  N         -7.6380   13.3760  -17.5390 N.3    32  ASP32      -0.1225
      2  CA        -7.8080   14.8250  -17.3810 C.3    32  ASP32       0.1790
      3  C         -8.6870   15.2900  -18.5290 C.2    32  ASP32       0.2440
      4  O         -8.2330   15.3590  -19.6710 O.2    32  ASP32      -0.2733
      5  CB        -6.4490   15.5580  -17.4070 C.3    32  ASP32       0.1423
      6  CG        -6.5760   17.0450  -17.0800 C.2    32  ASP32       0.3668
      7  OD1       -7.5260   17.3990  -16.3470 O.co2  32  ASP32      -0.2456
      8  OD2       -5.7450   17.8690  -17.5670 O.co2  32  ASP32      -0.2456
      9  N         -9.9750   15.5730  -18.2400 N.am   33  PRO33      -0.2718
     10  CA       -10.9350   15.9790  -19.2710 C.3    33  PRO33       0.1535
     11  C        -10.7690   17.4470  -19.5870 C.2    33  PRO33       0.2599
     12  O        -10.0680   18.1630  -18.8560 O.2    33  PRO33      -0.2715
     13  CB       -12.2920   15.7400  -18.6020 C.3    33  PRO33       0.0310
     14  CG       -12.0300   15.9140  -17.1530 C.3    33  PRO33       0.0237
     15  CD       -10.5980   15.4390  -16.9150 C.3    33  PRO33       0.0939
     16  N        -11.3930   17.8820  -20.6760 N.am   34  SER34      -0.1950
     17  CA       -11.4870   19.2950  -21.0070 C.3    34  SER34       0.1924
     18  C        -12.6970   19.4760  -21.9120 C.2    34  SER34       0.2314
     19  O        -13.1420   18.5250  -22.5640 O.2    34  SER34      -0.2863
     20  CB       -10.2130   19.7810  -21.7050 C.3    34  SER34       0.2116
     21  OG        -9.9820   19.0590  -22.9040 O.3    34  SER34      -0.2180
     22  N         -7.2520   23.2100  -24.6500 N.3    39  ASP39      -0.1225
     23  CA        -6.6550   22.3020  -23.6860 C.3    39  ASP39       0.1805
     24  C         -6.9700   20.8660  -24.0570 C.2    39  ASP39       0.2597
     25  O         -8.1310   20.4730  -24.1360 O.2    39  ASP39      -0.2718
     26  CB        -7.1120   22.6630  -22.2750 C.3    39  ASP39       0.1424
     27  CG        -6.8420   24.1240  -21.9500 C.2    39  ASP39       0.3668
     28  OD1       -5.6760   24.5630  -22.0950 O.co2  39  ASP39      -0.2456
     29  OD2       -7.7950   24.8430  -21.5850 O.co2  39  ASP39      -0.2456
     30  N         -5.9160   20.0990  -24.3110 N.am   40  ALA40      -0.1979
     31  CA        -6.0510   18.7070  -24.7140 C.3    40  ALA40       0.1597
     32  C         -6.5630   17.8330  -23.5680 C.2    40  ALA40       0.2287
     33  O         -6.5230   18.2340  -22.4010 O.2    40  ALA40      -0.2864
     34  CB        -4.7040   18.1880  -25.2060 C.3    40  ALA40       0.0319
     35  N        -10.4780   14.0670  -13.3000 N.3    84  ASP84      -0.1239
     36  CA       -10.4750   15.3820  -12.6640 C.3    84  ASP84       0.1674
     37  C        -11.8990   15.8980  -12.6330 C.2    84  ASP84       0.2266
     38  O        -12.4490   16.2610  -13.6620 O.2    84  ASP84      -0.2867
     39  CB        -9.5460   16.3470  -13.4270 C.3    84  ASP84       0.1410
     40  CG        -9.5190   17.7570  -12.8300 C.2    84  ASP84       0.3668
     41  OD1      -10.1600   17.9950  -11.7770 O.co2  84  ASP84      -0.2456
     42  OD2       -8.8310   18.6280  -13.4200 O.co2  84  ASP84      -0.2456
     43  N        -12.8490   18.5480  -10.5710 N.3    86  ASP86      -0.1239
     44  CA       -12.9150   19.9870  -10.3360 C.3    86  ASP86       0.1674
     45  C        -13.3320   20.6150  -11.6710 C.2    86  ASP86       0.2266
     46  O        -12.9180   20.1430  -12.7250 O.2    86  ASP86      -0.2867
     47  CB       -11.5490   20.5360   -9.8960 C.3    86  ASP86       0.1410
     48  CG       -11.3580   20.5200   -8.3840 C.2    86  ASP86       0.3668
     49  OD1      -12.3620   20.5200   -7.6430 O.co2  86  ASP86      -0.2456
     50  OD2      -10.1950   20.5310   -7.9340 O.co2  86  ASP86      -0.2456
     51  N        -14.9940   21.4720  -15.1260 N.3    88  VAL88      -0.1245
     52  CA       -15.8100   20.8940  -16.2060 C.3    88  VAL88       0.1561
     53  C        -16.0980   19.3930  -16.0890 C.2    88  VAL88       0.2260
     54  O        -17.0880   18.9060  -16.6350 O.2    88  VAL88      -0.2867
     55  CB       -15.2210   21.1830  -17.6090 C.3    88  VAL88       0.0252
     56  CG1      -15.1680   22.6790  -17.8710 C.3    88  VAL88       0.0019
     57  CG2      -13.8390   20.5570  -17.7560 C.3    88  VAL88       0.0019
     58  N         -3.1420   25.2210  -13.4900 N.3   204  ALA204     -0.1231
     59  CA        -3.0480   25.2560  -14.9430 C.3   204  ALA204      0.1694
     60  C         -3.2400   26.6750  -15.4770 C.2   204  ALA204      0.2591
     61  O         -2.5270   27.1060  -16.3810 O.2   204  ALA204     -0.2718
     62  CB        -4.0690   24.2990  -15.5610 C.3   204  ALA204      0.0304
     63  N         -4.1900   27.4020  -14.8950 N.am  205  VAL205     -0.1980
     64  CA        -4.4520   28.7880  -15.2760 C.3   205  VAL205      0.1595
     65  C         -3.2420   29.6930  -15.0630 C.2   205  VAL205      0.2287
     66  O         -2.8540   30.4550  -15.9520 O.2   205  VAL205     -0.2864
     67  CB        -5.6290   29.3720  -14.4750 C.3   205  VAL205      0.0276
     68  CG1       -5.9010   30.8020  -14.9040 C.3   205  VAL205      0.0022
     69  CG2       -6.8720   28.5150  -14.6460 C.3   205  VAL205      0.0022
     70  N         -0.3430   29.0830  -17.5550 N.3   208  LYS208     -0.1245
     71  CA        -0.4840   29.6610  -18.8910 C.3   208  LYS208      0.1561
     72  C         -0.5860   31.1860  -18.8930 C.2   208  LYS208      0.2260
     73  O         -0.1500   31.8340  -19.8380 O.2   208  LYS208     -0.2867
     74  CB        -1.6290   29.0200  -19.6880 C.3   208  LYS208      0.0271
     75  CG        -3.0180   29.2480  -19.1390 C.3   208  LYS208      0.0035
     76  CD        -4.0560   29.0220  -20.2360 C.3   208  LYS208      0.0206
     77  CE        -3.9130   27.6410  -20.8710 C.3   208  LYS208      0.1093
     78  NZ        -4.8340   27.4880  -22.0330 N.3   208  LYS208     -0.1314
     79  N         -1.3030   23.9500  -20.7730 N.3   215  SER215     -0.1217
     80  CA        -1.7710   23.1750  -19.6400 C.3   215  SER215      0.1889
     81  C         -1.1240   21.7980  -19.6190 C.2   215  SER215      0.2288
     82  O         -1.0360   21.1450  -20.6500 O.2   215  SER215     -0.2866
     83  CB        -3.2930   23.0290  -19.7150 C.3   215  SER215      0.2089
     84  OG        -3.7860   22.4370  -18.5360 O.3   215  SER215     -0.2183
     85  N         -1.7070   18.5850  -19.1830 N.3   217  ASN217     -0.1240
     86  CA        -2.7530   17.5670  -19.1140 C.3   217  ASN217      0.1653
     87  C         -2.2120   16.1710  -18.9280 C.2   217  ASN217      0.2266
     88  O         -2.8390   15.3380  -18.2820 O.2   217  ASN217     -0.2867
     89  CB        -3.5800   17.5660  -20.3930 C.3   217  ASN217      0.1155
     90  CG        -3.8960   18.9470  -20.8700 C.2   217  ASN217      0.2627
     91  OD1       -4.6700   19.6680  -20.2400 O.2   217  ASN217     -0.2716
     92  ND2       -3.3130   19.3320  -22.0030 N.am  217  ASN217     -0.0877
     93  N         -0.9860   16.0660  -15.2820 N.3   220  ASP220     -0.1239
     94  CA        -2.1320   15.9820  -14.3790 C.3   220  ASP220      0.1674
     95  C         -2.7020   14.5610  -14.3540 C.2   220  ASP220      0.2266
     96  O         -2.9930   14.0360  -13.3050 O.2   220  ASP220     -0.2867
     97  CB        -3.2160   17.0070  -14.7530 C.3   220  ASP220      0.1410
     98  CG        -2.8400   18.4300  -14.3700 C.2   220  ASP220      0.3668
     99  OD1       -1.7970   18.6190  -13.7050 O.co2 220  ASP220     -0.2456
    100  OD2       -3.5870   19.3700  -14.7360 O.co2 220  ASP220     -0.2456
@<TRIPOS>BOND
     1    34    31    1
     2    31    30    1
     3    31    32    1
     4    22    23    1
     5    30    24   am
     6    25    24    2
     7    24    23    1
     8    23    26    1
     9    32    33    2
    10    21    20    1
    11    19    18    2
    12    26    27    1
    13    28    27   ar
    14    78    77    1
    15    92    90   am
    16    27    29   ar
    17    18    17    1
    18    20    17    1
    19    17    16    1
    20    77    76    1
    21    90    89    1
    22    90    91    2
    23    79    80    1
    24    16    11   am
    25    82    81    2
    26    89    86    1
    27    76    75    1
    28    73    72    2
    29    83    80    1
    30    83    84    1
    31    74    75    1
    32    74    71    1
    33     4     3    2
    34    80    81    1
    35    11    10    1
    36    11    12    2
    37    10    13    1
    38    10     9    1
    39    85    86    1
    40    86    87    1
    41    87    88    2
    42    72    71    1
    43    71    70    1
    44    13    14    1
    45     3     9   am
    46     3     2    1
    47     9    15    1
    48    56    55    1
    49    57    55    1
    50    55    52    1
    51     8     6   ar
    52     1     2    1
    53     5     2    1
    54     5     6    1
    55    14    15    1
    56     6     7   ar
    57    54    53    2
    58    61    60    2
    59    52    53    1
    60    52    51    1
    61    66    65    2
    62    62    59    1
    63    60    59    1
    64    60    63   am
    65    93    94    1
    66    64    65    1
    67    64    63    1
    68    64    67    1
    69    59    58    1
    70    68    67    1
    71    97    94    1
    72    97    98    1
    73   100    98   ar
    74    69    67    1
    75    94    95    1
    76    98    99   ar
    77    95    96    2
    78    38    37    2
    79    39    40    1
    80    39    36    1
    81    42    40   ar
    82    35    36    1
    83    40    41   ar
    84    46    45    2
    85    36    37    1
    86    45    44    1
    87    43    44    1
    88    44    47    1
    89    47    48    1
    90    48    50   ar
    91    48    49   ar
