@<TRIPOS>MOLECULE
tmp/5c2gA00.pdb
 145 137 0 0 0
SMALL
GASTEIGER

@<TRIPOS>ATOM
      1  N         38.2010  -10.4090   64.0460 N.3   167  ILE167     -0.1245
      2  CA        37.7560   -9.0280   63.9030 C.3   167  ILE167      0.1561
      3  C         38.9210   -8.0970   63.6920 C.2   167  ILE167      0.2260
      4  O         39.9740   -8.3150   64.2920 O.2   167  ILE167     -0.2867
      5  CB        37.0050   -8.5670   65.1810 C.3   167  ILE167      0.0252
      6  CG1       35.9960   -9.6300   65.6260 C.3   167  ILE167      0.0019
      7  CG2       36.3730   -7.1970   64.9840 C.3   167  ILE167      0.0019
      8  CD1       36.5460  -10.5770   66.6860 C.3   167  ILE167      0.0001
      9  N         41.4150   -5.3100   64.3340 N.3   169  LYS169     -0.1245
     10  CA        41.8990   -4.5790   65.5110 C.3   169  LYS169      0.1561
     11  C         42.8760   -3.5000   65.0330 C.2   169  LYS169      0.2260
     12  O         43.6860   -3.7760   64.1560 O.2   169  LYS169     -0.2867
     13  CB        42.5030   -5.5000   66.5660 C.3   169  LYS169      0.0271
     14  CG        41.4780   -6.4520   67.2060 C.3   169  LYS169      0.0035
     15  CD        40.1700   -5.7570   67.6380 C.3   169  LYS169      0.0206
     16  CE        39.3510   -6.6380   68.5940 C.3   169  LYS169      0.1093
     17  NZ        37.9500   -6.1800   68.8670 N.3   169  LYS169     -0.1314
     18  N         39.5860   -1.4890   67.0180 N.3   171  LYS171     -0.1245
     19  CA        38.1930   -1.6110   66.6780 C.3   171  LYS171      0.1561
     20  C         37.7650   -0.3630   65.9290 C.2   171  LYS171      0.2260
     21  O         36.9270   -0.4350   65.0340 O.2   171  LYS171     -0.2867
     22  CB        37.3860   -1.8360   67.9670 C.3   171  LYS171      0.0271
     23  CG        35.9570   -1.2960   68.0020 C.3   171  LYS171      0.0035
     24  CD        35.4000   -1.3500   69.4160 C.3   171  LYS171      0.0206
     25  CE        35.3190   -2.8000   69.8970 C.3   171  LYS171      0.1093
     26  NZ        34.5240   -2.9870   71.1360 N.3   171  LYS171     -0.1314
     27  N         34.6210   -4.9400   62.9160 N.3   195  ASP195     -0.1225
     28  CA        34.2770   -4.8130   64.3110 C.3   195  ASP195      0.1805
     29  C         32.9070   -4.1240   64.2520 C.2   195  ASP195      0.2597
     30  O         32.6320   -3.4280   63.2740 O.2   195  ASP195     -0.2718
     31  CB        35.3470   -4.0530   65.0790 C.3   195  ASP195      0.1424
     32  CG        35.2140   -4.2320   66.5640 C.2   195  ASP195      0.3668
     33  OD1       34.1010   -4.1010   67.0880 O.co2 195  ASP195     -0.2456
     34  OD2       36.2290   -4.5640   67.2030 O.co2 195  ASP195     -0.2456
     35  N         32.0710   -4.2540   65.2820 N.am  196  GLU196     -0.1979
     36  CA        30.6750   -3.7810   65.2050 C.3   196  GLU196      0.1602
     37  C         30.4700   -2.2880   64.8670 C.2   196  GLU196      0.2287
     38  O         29.4680   -1.9520   64.2460 O.2   196  GLU196     -0.2864
     39  CB        29.9030   -4.0660   66.5080 C.3   196  GLU196      0.0415
     40  CG        30.3610   -3.3070   67.7520 C.3   196  GLU196      0.1163
     41  CD        31.5340   -3.9490   68.4560 C.2   196  GLU196      0.3649
     42  OE1       31.9080   -5.0870   68.1000 O.co2 196  GLU196     -0.2457
     43  OE2       32.1100   -3.2930   69.3470 O.co2 196  GLU196     -0.2457
     44  N         24.9490   -9.1880   64.7970 N.3   289  HIS289     -0.1226
     45  CA        25.7730   -8.7780   65.9310 C.3   289  HIS289      0.1752
     46  C         24.8830   -8.2060   67.0320 C.2   289  HIS289      0.2596
     47  O         24.1070   -7.2880   66.7990 O.2   289  HIS289     -0.2718
     48  CB        26.8300   -7.7660   65.4930 C.3   289  HIS289      0.0759
     49  CG        27.9310   -7.5890   66.4900 C.ar  289  HIS289      0.0818
     50  ND1       27.7430   -6.9690   67.7060 N.ar  289  HIS289     -0.2268
     51  CD2       29.2180   -8.0080   66.4760 C.ar  289  HIS289      0.1154
     52  CE1       28.8780   -6.9810   68.3820 C.ar  289  HIS289      0.1986
     53  NE2       29.7890   -7.6050   67.6570 N.ar  289  HIS289     -0.2212
     54  N         25.0210   -8.7520   68.2340 N.am  290  ARG290     -0.1966
     55  CA        24.0870   -8.4860   69.3300 C.3   290  ARG290      0.1729
     56  C         24.5880   -7.4320   70.2980 C.2   290  ARG290      0.2616
     57  O         24.1910   -7.4360   71.4540 O.2   290  ARG290     -0.2715
     58  CB        23.7770   -9.7830   70.0910 C.3   290  ARG290      0.0348
     59  CG        24.9870  -10.4240   70.7300 C.3   290  ARG290      0.0492
     60  CD        24.6240  -11.6020   71.5910 C.3   290  ARG290      0.2205
     61  NE        25.7940  -12.0590   72.3350 N.pl3 290  ARG290     -0.0865
     62  CZ        25.7880  -13.0280   73.2430 C.cat 290  ARG290      0.5346
     63  NH1       24.6700  -13.6790   73.5210 N.pl3 290  ARG290      0.1354
     64  NH2       26.9100  -13.3570   73.8640 N.pl3 290  ARG290      0.1354
     65  N         25.4680   -6.5470   69.8380 N.am  291  ALA291     -0.1977
     66  CA        26.0010   -5.4800   70.6890 C.3   291  ALA291      0.1597
     67  C         24.9020   -4.7420   71.4490 C.2   291  ALA291      0.2287
     68  O         23.9010   -4.3260   70.8660 O.2   291  ALA291     -0.2864
     69  CB        26.7980   -4.4960   69.8610 C.3   291  ALA291      0.0319
     70  N         23.1880   -6.1310   73.9830 N.3   293  HIS293     -0.1241
     71  CA        22.2990   -7.1240   74.5820 C.3   293  HIS293      0.1621
     72  C         22.4850   -7.3170   76.0870 C.2   293  HIS293      0.2264
     73  O         21.5330   -7.6360   76.8010 O.2   293  HIS293     -0.2867
     74  CB        22.5050   -8.4660   73.8830 C.3   293  HIS293      0.0745
     75  CG        23.7840   -9.1430   74.2580 C.ar  293  HIS293      0.0817
     76  ND1       23.8380  -10.1860   75.1550 N.ar  293  HIS293     -0.2268
     77  CD2       25.0620   -8.9140   73.8720 C.ar  293  HIS293      0.1154
     78  CE1       25.0910  -10.5780   75.3000 C.ar  293  HIS293      0.1986
     79  NE2       25.8530   -9.8240   74.5290 N.ar  293  HIS293     -0.2212
     80  N         25.8070  -14.2190   67.3330 N.3   323  HIS323     -0.1241
     81  CA        26.7120  -14.3370   68.4700 C.3   323  HIS323      0.1621
     82  C         25.9760  -14.9600   69.6630 C.2   323  HIS323      0.2264
     83  O         24.8380  -14.5960   69.9460 O.2   323  HIS323     -0.2867
     84  CB        27.2790  -12.9670   68.8360 C.3   323  HIS323      0.0745
     85  CG        28.3480  -12.4810   67.9030 C.ar  323  HIS323      0.0817
     86  ND1       29.6750  -12.3890   68.2690 N.ar  323  HIS323     -0.2268
     87  CD2       28.2900  -12.0880   66.6070 C.ar  323  HIS323      0.1154
     88  CE1       30.3820  -11.9350   67.2490 C.ar  323  HIS323      0.1986
     89  NE2       29.5660  -11.7500   66.2270 N.ar  323  HIS323     -0.2212
     90  N         28.0810  -15.8420   72.5570 N.3   325  GLY325     -0.1225
     91  CA        29.0600  -15.6200   73.6140 C.3   325  GLY325      0.1811
     92  C         30.0610  -16.7590   73.7520 C.2   325  GLY325      0.2280
     93  O         29.9880  -17.7230   72.9800 O.2   325  GLY325     -0.2866
     94  N         35.9230  -13.3060   77.8780 N.3   331  LYS331     -0.1231
     95  CA        35.8340  -12.0650   78.6660 C.3   331  LYS331      0.1693
     96  C         34.4530  -11.4730   78.9340 C.2   331  LYS331      0.2591
     97  O         34.3410  -10.5300   79.7140 O.2   331  LYS331     -0.2718
     98  CB        36.6800  -10.9870   77.9820 C.3   331  LYS331      0.0285
     99  CG        36.0220  -10.3630   76.7700 C.3   331  LYS331      0.0035
    100  CD        36.9440   -9.4110   76.0710 C.3   331  LYS331      0.0206
    101  CE        36.2670   -8.8100   74.8690 C.3   331  LYS331      0.1093
    102  NZ        37.1380   -7.8200   74.2150 N.3   331  LYS331     -0.1314
    103  N         33.4090  -12.0110   78.3200 N.am  332  MET332     -0.1979
    104  CA        32.0630  -11.5060   78.5750 C.3   332  MET332      0.1605
    105  C         31.3880  -12.3460   79.6700 C.2   332  MET332      0.2287
    106  O         32.0180  -13.2130   80.2730 O.2   332  MET332     -0.2864
    107  CB        31.2420  -11.4970   77.2830 C.3   332  MET332      0.0413
    108  CG        31.8430  -10.6110   76.1810 C.3   332  MET332      0.0598
    109  SD        32.0780   -8.8710   76.6610 S.3   332  MET332     -0.1393
    110  CE        32.3860   -8.1070   75.0720 C.3   332  MET332      0.0692
    111  N         32.6630  -15.2610   69.8550 N.3   370  SER370     -0.1202
    112  CA        33.5400  -14.1090   69.8860 C.3   370  SER370      0.2020
    113  C         33.6690  -13.4720   71.2680 C.2   370  SER370      0.2619
    114  O         32.7230  -13.4790   72.0640 O.2   370  SER370     -0.2717
    115  CB        33.0320  -13.0860   68.8790 C.3   370  SER370      0.2103
    116  OG        34.0170  -12.1190   68.6240 O.3   370  SER370     -0.2182
    117  N         34.8340  -12.8980   71.5420 N.am  371  GLY371     -0.1942
    118  CA        35.0550  -12.1600   72.7820 C.3   371  GLY371      0.2014
    119  C         36.0470  -12.6570   73.8010 C.2   371  GLY371      0.2639
    120  O         35.6870  -13.2070   74.8400 O.2   371  GLY371     -0.2714
    121  N         37.3220  -12.4700   73.4660 N.am  372  GLY372     -0.1939
    122  CA        38.4120  -12.7910   74.3610 C.3   372  GLY372      0.2014
    123  C         38.9480  -14.1890   74.1880 C.2   372  GLY372      0.2638
    124  O         39.6390  -14.6940   75.0690 O.2   372  GLY372     -0.2714
    125  N         38.6510  -14.8150   73.0530 N.am  373  MET373     -0.1976
    126  CA        39.1740  -16.1490   72.8060 C.3   373  MET373      0.1605
    127  C         40.5410  -16.1070   72.1540 C.2   373  MET373      0.2287
    128  O         40.9030  -15.1650   71.4510 O.2   373  MET373     -0.2864
    129  CB        38.2060  -16.9480   71.9340 C.3   373  MET373      0.0413
    130  CG        36.8730  -17.1960   72.6070 C.3   373  MET373      0.0598
    131  SD        37.0330  -18.2680   74.0580 S.3   373  MET373     -0.1393
    132  CE        37.6280  -19.7810   73.3050 C.3   373  MET373      0.0692
    133  N         38.3110  -14.1590   66.4940 N.3   394  ALA394     -0.1231
    134  CA        39.1700  -13.8030   67.6190 C.3   394  ALA394      0.1694
    135  C         40.0420  -12.6300   67.1660 C.2   394  ALA394      0.2593
    136  O         40.9850  -12.8110   66.3960 O.2   394  ALA394     -0.2718
    137  CB        40.0210  -14.9850   68.0550 C.3   394  ALA394      0.0304
    138  N         39.7070  -11.4270   67.6290 N.am  395  GLY395     -0.1942
    139  CA        40.4940  -10.2460   67.3170 C.3   395  GLY395      0.2014
    140  C         41.8190  -10.2030   68.0460 C.2   395  GLY395      0.2639
    141  O         42.8870  -10.1350   67.4370 O.2   395  GLY395     -0.2714
    142  N         41.7370  -10.2630   69.3700 N.am  396  GLY396     -0.1954
    143  CA        42.9150  -10.2230   70.2080 C.3   396  GLY396      0.1869
    144  C         43.7380  -11.4810   70.0330 C.2   396  GLY396      0.2309
    145  O         44.9610  -11.4220   69.9580 O.2   396  GLY396     -0.2863
@<TRIPOS>BOND
     1    27    28    1
     2    30    29    2
     3     3     2    1
     4     3     4    2
     5     2     1    1
     6     2     5    1
     7    12    11    2
     8    38    37    2
     9    29    28    1
    10    29    35   am
    11    28    31    1
    12     9    10    1
    13    44    45    1
    14    37    36    1
    15     7     5    1
    16    11    10    1
    17    21    20    2
    18    31    32    1
    19     5     6    1
    20    36    35    1
    21    36    39    1
    22    48    45    1
    23    48    49    1
    24    10    13    1
    25     6     8    1
    26    20    19    1
    27    45    46    1
    28    89    87   ar
    29    89    88   ar
    30   136   135    2
    31    51    49   ar
    32    51    53   ar
    33    49    50   ar
    34   133   134    1
    35    39    40    1
    36    32    33   ar
    37    32    34   ar
    38    13    14    1
    39    87    85   ar
    40    19    18    1
    41    19    22    1
    42    47    46    2
    43    46    54   am
    44   135   134    1
    45   135   138   am
    46    14    15    1
    47    88    86   ar
    48   139   138    1
    49   139   140    1
    50    80    81    1
    51   141   140    2
    52   134   137    1
    53    15    16    1
    54    53    52   ar
    55    50    52   ar
    56    40    41    1
    57    85    86   ar
    58    85    84    1
    59    22    23    1
    60    23    24    1
    61   140   142   am
    62    42    41   ar
    63    54    55    1
    64    41    43   ar
    65    81    84    1
    66    81    82    1
    67    16    17    1
    68   116   115    1
    69   115   112    1
    70    55    58    1
    71    55    56    1
    72   142   143    1
    73    24    25    1
    74    82    83    2
    75    65    56   am
    76    65    66    1
    77   111   112    1
    78    69    66    1
    79   112   113    1
    80    25    26    1
    81   145   144    2
    82   144   143    1
    83    58    59    1
    84    56    57    2
    85    66    67    1
    86    59    60    1
    87    68    67    2
    88   113   117   am
    89   113   114    2
    90   128   127    2
    91   117   118    1
    92    60    61    1
    93   129   130    1
    94   129   126    1
    95   127   126    1
    96    61    62    2
    97    90    91    1
    98   130   131    1
    99   118   119    1
   100   126   125    1
   101    93    92    2
   102   125   123   am
   103    62    63    1
   104    62    64    1
   105   132   131    1
   106   121   119   am
   107   121   122    1
   108    91    92    1
   109   119   120    2
   110    77    75   ar
   111    77    79   ar
   112    74    75    1
   113    74    71    1
   114    70    71    1
   115   123   122    1
   116   123   124    2
   117   102   101    1
   118    75    76   ar
   119    79    78   ar
   120    71    72    1
   121   101   100    1
   122   110   109    1
   123    76    78   ar
   124   100    99    1
   125    72    73    2
   126   108   109    1
   127   108   107    1
   128    99    98    1
   129   107   104    1
   130    94    95    1
   131    98    95    1
   132   103   104    1
   133   103    96   am
   134   104   105    1
   135    95    96    1
   136    96    97    2
   137   105   106    2
