@<TRIPOS>MOLECULE
tmp/5c2hB00.pdb
 215 209 0 0 0
SMALL
GASTEIGER

@<TRIPOS>ATOM
      1  N          5.6840   48.2570   63.3880 N.3    78  TYR78      -0.1227
      2  CA         6.6220   47.2060   63.8030 C.3    78  TYR78       0.1736
      3  C          8.0820   47.6210   63.8870 C.2    78  TYR78       0.2595
      4  O          8.6940   47.3690   64.9080 O.2    78  TYR78      -0.2718
      5  CB         6.4960   45.9510   62.8950 C.3    78  TYR78       0.0548
      6  CG         7.4660   44.8470   63.2700 C.ar   78  TYR78      -0.0200
      7  CD1        7.2820   44.0940   64.4310 C.ar   78  TYR78      -0.0009
      8  CD2        8.6110   44.6120   62.5130 C.ar   78  TYR78      -0.0009
      9  CE1        8.2000   43.1190   64.8100 C.ar   78  TYR78       0.0417
     10  CE2        9.5370   43.6400   62.8880 C.ar   78  TYR78       0.0417
     11  CZ         9.3220   42.8930   64.0330 C.ar   78  TYR78       0.1957
     12  OH        10.2130   41.9050   64.3870 O.3    78  TYR78      -0.2866
     13  N          8.6620   48.1840   62.8160 N.am   79  HIS79      -0.1975
     14  CA        10.0770   48.5720   62.8340 C.3    79  HIS79       0.1656
     15  C         10.3110   49.8900   63.6150 C.2    79  HIS79       0.2291
     16  O         10.7450   50.9110   63.0890 O.2    79  HIS79      -0.2864
     17  CB        10.6420   48.6050   61.4300 C.3    79  HIS79       0.0771
     18  CG        10.7880   47.2500   60.8170 C.ar   79  HIS79       0.0820
     19  ND1        9.9120   46.8000   59.8370 N.ar   79  HIS79      -0.2267
     20  CD2       11.7110   46.2890   61.0480 C.ar   79  HIS79       0.1154
     21  CE1       10.3340   45.5880   59.5080 C.ar   79  HIS79       0.1986
     22  NE2       11.4070   45.2370   60.2100 N.ar   79  HIS79      -0.2212
     23  N          9.2850   47.8600   52.6920 N.3   125  SER125     -0.1217
     24  CA        10.2630   46.8480   52.2930 C.3   125  SER125      0.1889
     25  C         11.2070   47.4060   51.2500 C.2   125  SER125      0.2288
     26  O         10.9090   48.4370   50.6250 O.2   125  SER125     -0.2866
     27  CB         9.5490   45.6380   51.6960 C.3   125  SER125      0.2089
     28  OG         8.9520   45.9820   50.4550 O.3   125  SER125     -0.2183
     29  N         16.9780   40.1550   55.3440 N.3   189  LEU189     -0.1245
     30  CA        16.5710   38.7340   55.3230 C.3   189  LEU189      0.1561
     31  C         16.9320   37.9810   54.0250 C.2   189  LEU189      0.2260
     32  O         17.2310   36.7830   54.0720 O.2   189  LEU189     -0.2867
     33  CB        15.0870   38.5500   55.6600 C.3   189  LEU189      0.0270
     34  CG        14.6550   37.1430   56.1420 C.3   189  LEU189      0.0019
     35  CD1       15.2540   36.8150   57.5290 C.3   189  LEU189      0.0001
     36  CD2       13.1420   37.0240   56.2110 C.3   189  LEU189      0.0001
     37  N         16.8880   39.3530   65.1480 N.3   228  ASP228     -0.1225
     38  CA        15.8940   40.0730   64.3640 C.3   228  ASP228      0.1805
     39  C         14.5160   39.4010   64.3650 C.2   228  ASP228      0.2597
     40  O         13.4830   40.0760   64.3320 O.2   228  ASP228     -0.2718
     41  CB        16.3840   40.2600   62.9220 C.3   228  ASP228      0.1424
     42  CG        15.8780   41.5350   62.2970 C.2   228  ASP228      0.3668
     43  OD1       15.1430   42.2860   62.9820 O.co2 228  ASP228     -0.2456
     44  OD2       16.2240   41.7960   61.1350 O.co2 228  ASP228     -0.2456
     45  N         14.5100   38.0770   64.4040 N.am  229  LEU229     -0.1979
     46  CA        13.2870   37.2810   64.3740 C.3   229  LEU229      0.1596
     47  C         12.7920   36.8250   65.7310 C.2   229  LEU229      0.2287
     48  O         11.7650   36.1470   65.7630 O.2   229  LEU229     -0.2864
     49  CB        13.5480   36.0160   63.4990 C.3   229  LEU229      0.0297
     50  CG        14.0710   36.1790   62.0640 C.3   229  LEU229      0.0022
     51  CD1       14.1320   34.7970   61.3490 C.3   229  LEU229      0.0001
     52  CD2       13.1830   37.1040   61.2530 C.3   229  LEU229      0.0001
     53  N         10.9360   37.6440   68.0270 N.3   231  SER231     -0.1202
     54  CA         9.5390   37.7250   68.4980 C.3   231  SER231      0.2020
     55  C          8.8570   36.3490   68.4290 C.2   231  SER231      0.2618
     56  O          7.9360   36.0770   69.2020 O.2   231  SER231     -0.2717
     57  CB         8.7570   38.7680   67.7170 C.3   231  SER231      0.2103
     58  OG         8.5120   38.3350   66.3970 O.3   231  SER231     -0.2182
     59  N          9.3510   35.4520   67.5260 N.am  232  VAL232     -0.1979
     60  CA         8.8380   34.1000   67.3960 C.3   232  VAL232      0.1595
     61  C          9.3320   33.2060   68.5620 C.2   232  VAL232      0.2287
     62  O          8.9350   32.0380   68.6420 O.2   232  VAL232     -0.2864
     63  CB         9.1710   33.4550   66.0150 C.3   232  VAL232      0.0276
     64  CG1        8.6700   34.3120   64.8470 C.3   232  VAL232      0.0022
     65  CG2       10.6530   33.1130   65.8690 C.3   232  VAL232      0.0022
     66  N          4.0930   36.7300   71.3480 N.3   239  THR239     -0.1218
     67  CA         4.3050   36.4010   69.9230 C.3   239  THR239      0.1862
     68  C          3.1130   36.8400   69.0590 C.2   239  THR239      0.2287
     69  O          3.3090   37.5070   68.0400 O.2   239  THR239     -0.2866
     70  CB         4.6360   34.9130   69.7850 C.3   239  THR239      0.1770
     71  OG1        5.9030   34.6980   70.3750 O.3   239  THR239     -0.2211
     72  CG2        4.7170   34.4500   68.3520 C.3   239  THR239      0.0375
     73  N          2.8010   39.6850   66.1010 N.3   243  ALA243     -0.1245
     74  CA         2.3790   39.3280   64.7380 C.3   243  ALA243      0.1562
     75  C          1.3820   40.3850   64.2360 C.2   243  ALA243      0.2260
     76  O          1.4890   40.7930   63.0920 O.2   243  ALA243     -0.2867
     77  CB         1.7550   37.9480   64.7080 C.3   243  ALA243      0.0290
     78  N          3.4510   43.3320   63.0540 N.3   246  ILE246     -0.1231
     79  CA         4.1400   42.9830   61.7930 C.3   246  ILE246      0.1692
     80  C          3.1490   43.1200   60.6130 C.2   246  ILE246      0.2592
     81  O          3.4890   43.7050   59.5760 O.2   246  ILE246     -0.2718
     82  CB         4.6390   41.4940   61.9130 C.3   246  ILE246      0.0266
     83  CG1        5.8390   41.3580   62.8950 C.3   246  ILE246      0.0019
     84  CG2        4.9820   40.8670   60.5560 C.3   246  ILE246      0.0020
     85  CD1        6.1730   39.9020   63.3350 C.3   246  ILE246      0.0001
     86  N          1.9380   42.5650   60.7800 N.am  247  TYR247     -0.1976
     87  CA         0.9270   42.6070   59.7180 C.3   247  TYR247      0.1639
     88  C          0.3600   43.9860   59.5090 C.2   247  TYR247      0.2290
     89  O          0.0810   44.3350   58.3590 O.2   247  TYR247     -0.2864
     90  CB        -0.1550   41.5400   59.8780 C.3   247  TYR247      0.0560
     91  CG         0.4150   40.2010   59.4850 C.ar  247  TYR247     -0.0198
     92  CD1        0.9030   39.3210   60.4500 C.ar  247  TYR247     -0.0009
     93  CD2        0.6000   39.8660   58.1470 C.ar  247  TYR247     -0.0009
     94  CE1        1.4890   38.1050   60.0940 C.ar  247  TYR247      0.0417
     95  CE2        1.1800   38.6550   57.7780 C.ar  247  TYR247      0.0417
     96  CZ         1.6210   37.7770   58.7590 C.ar  247  TYR247      0.1957
     97  OH         2.1880   36.5820   58.4270 O.3   247  TYR247     -0.2866
     98  N          2.0950   46.6660   59.6920 N.3   249  GLU249     -0.1231
     99  CA         3.0750   47.2970   58.8080 C.3   249  GLU249      0.1699
    100  C          3.0000   46.7280   57.3830 C.2   249  GLU249      0.2592
    101  O          3.0080   47.5060   56.4300 O.2   249  GLU249     -0.2718
    102  CB         4.4740   47.1790   59.3510 C.3   249  GLU249      0.0402
    103  CG         5.3340   48.3510   58.9400 C.3   249  GLU249      0.1161
    104  CD         6.6900   48.3060   59.6010 C.2   249  GLU249      0.3649
    105  OE1        6.7810   48.5860   60.8140 O.co2 249  GLU249     -0.2457
    106  OE2        7.6710   47.9860   58.8980 O.co2 249  GLU249     -0.2457
    107  N          2.8790   45.3980   57.2410 N.am  250  PHE250     -0.1962
    108  CA         2.7560   44.7800   55.9250 C.3   250  PHE250      0.1771
    109  C          1.5240   45.3400   55.1750 C.2   250  PHE250      0.2619
    110  O          1.6530   45.7360   54.0270 O.2   250  PHE250     -0.2715
    111  CB         2.6530   43.2480   56.0520 C.3   250  PHE250      0.0574
    112  CG         3.9340   42.4860   56.2720 C.ar  250  PHE250     -0.0200
    113  CD1        5.1260   42.9270   55.7220 C.ar  250  PHE250     -0.0042
    114  CD2        3.9310   41.2820   56.9630 C.ar  250  PHE250     -0.0042
    115  CE1        6.2940   42.1700   55.8490 C.ar  250  PHE250     -0.0003
    116  CE2        5.1060   40.5430   57.1190 C.ar  250  PHE250     -0.0003
    117  CZ         6.2780   40.9860   56.5550 C.ar  250  PHE250     -0.0000
    118  N          0.3710   45.3930   55.8410 N.am  251  TRP251     -0.1974
    119  CA        -0.9050   45.8580   55.2720 C.3   251  TRP251      0.1640
    120  C         -0.8980   47.3180   54.9070 C.2   251  TRP251      0.2290
    121  O         -1.4370   47.6650   53.8560 O.2   251  TRP251     -0.2864
    122  CB        -2.0920   45.5140   56.1730 C.3   251  TRP251      0.0576
    123  CG        -2.2800   44.0380   56.3530 C.ar  251  TRP251      0.0006
    124  CD1       -1.8880   43.0450   55.5010 C.ar  251  TRP251      0.0946
    125  CD2       -2.8970   43.3940   57.4640 C.ar  251  TRP251      0.0152
    126  NE1       -2.2200   41.8230   56.0180 N.ar  251  TRP251     -0.2442
    127  CE2       -2.8540   42.0080   57.2200 C.ar  251  TRP251      0.0810
    128  CE3       -3.5000   43.8570   58.6470 C.ar  251  TRP251      0.0012
    129  CZ2       -3.3940   41.0840   58.1100 C.ar  251  TRP251      0.0191
    130  CZ3       -4.0260   42.9360   59.5360 C.ar  251  TRP251      0.0001
    131  CH2       -3.9610   41.5680   59.2690 C.ar  251  TRP251      0.0015
    132  N         -0.2310   38.5570   48.6580 N.3   266  PRO266     -0.2102
    133  CA        -1.1590   38.2640   49.7800 C.3   266  PRO266      0.1504
    134  C         -0.6910   38.7040   51.1680 C.2   266  PRO266      0.2575
    135  O         -1.5050   39.2230   51.9370 O.2   266  PRO266     -0.2718
    136  CB        -1.3160   36.7400   49.7190 C.3   266  PRO266      0.0282
    137  CG        -1.1100   36.4260   48.2840 C.3   266  PRO266      0.0208
    138  CD        -0.0620   37.3740   47.7850 C.3   266  PRO266      0.0893
    139  N          0.6360   38.5020   51.4680 N.am  267  MET267     -0.1980
    140  CA         1.2990   38.8750   52.7410 C.3   267  MET267      0.1605
    141  C          1.0490   40.3560   53.1000 C.2   267  MET267      0.2287
    142  O          0.9030   40.6900   54.2720 O.2   267  MET267     -0.2864
    143  CB         2.8080   38.6250   52.6180 C.3   267  MET267      0.0413
    144  CG         3.5830   38.7560   53.9190 C.3   267  MET267      0.0598
    145  SD         5.3620   38.7360   53.5910 S.3   267  MET267     -0.1393
    146  CE         5.5840   40.2600   52.8240 C.3   267  MET267      0.0692
    147  N         -1.6120   42.1420   51.8160 N.3   269  ASP269     -0.1239
    148  CA        -3.0130   42.4510   51.5010 C.3   269  ASP269      0.1674
    149  C         -3.8980   42.1820   52.6930 C.2   269  ASP269      0.2266
    150  O         -4.0560   41.0260   53.0860 O.2   269  ASP269     -0.2867
    151  CB        -3.4580   41.6390   50.2740 C.3   269  ASP269      0.1410
    152  CG        -4.7740   42.0570   49.6410 C.2   269  ASP269      0.3668
    153  OD1       -5.5800   42.7400   50.3210 O.co2 269  ASP269     -0.2456
    154  OD2       -5.0020   41.6920   48.4740 O.co2 269  ASP269     -0.2456
    155  N         -6.5680   39.5490   52.5970 N.3   272  LYS272     -0.1245
    156  CA        -6.1070   38.1690   52.6540 C.3   272  LYS272      0.1561
    157  C         -5.6490   37.7710   54.0830 C.2   272  LYS272      0.2260
    158  O         -4.7850   36.9010   54.2510 O.2   272  LYS272     -0.2867
    159  CB        -5.0440   37.9060   51.5660 C.3   272  LYS272      0.0271
    160  CG        -5.5930   38.2530   50.1790 C.3   272  LYS272      0.0035
    161  CD        -4.9360   37.5380   49.0350 C.3   272  LYS272      0.0206
    162  CE        -5.7750   37.7100   47.7900 C.3   272  LYS272      0.1093
    163  NZ        -4.9430   37.9430   46.5740 N.3   272  LYS272     -0.1314
    164  N         -5.4080   34.1130   55.5890 N.3   275  GLU275     -0.1231
    165  CA        -4.2570   33.3200   55.1960 C.3   275  GLU275      0.1699
    166  C         -3.0650   33.4620   56.1810 C.2   275  GLU275      0.2592
    167  O         -2.0990   32.7070   56.0660 O.2   275  GLU275     -0.2718
    168  CB        -3.8310   33.7170   53.7680 C.3   275  GLU275      0.0402
    169  CG        -4.8300   33.4540   52.6560 C.3   275  GLU275      0.1161
    170  CD        -4.3530   33.9000   51.2780 C.2   275  GLU275      0.3649
    171  OE1       -3.1690   33.6700   50.9250 O.co2 275  GLU275     -0.2457
    172  OE2       -5.1840   34.4800   50.5420 O.co2 275  GLU275     -0.2457
    173  N         -3.1270   34.4210   57.1290 N.am  276  VAL276     -0.1980
    174  CA        -2.0570   34.6900   58.1030 C.3   276  VAL276      0.1595
    175  C         -1.6130   33.4070   58.8780 C.2   276  VAL276      0.2287
    176  O         -0.4060   33.1360   58.8680 O.2   276  VAL276     -0.2864
    177  CB        -2.3700   35.8850   59.0440 C.3   276  VAL276      0.0276
    178  CG1       -1.3760   35.9650   60.2120 C.3   276  VAL276      0.0022
    179  CG2       -2.3980   37.1950   58.2650 C.3   276  VAL276      0.0022
    180  N          0.3840   31.3690   56.5280 N.3   279  GLY279     -0.1210
    181  CA         1.5330   32.2100   56.1960 C.3   279  GLY279      0.1956
    182  C          2.5950   32.0950   57.2680 C.2   279  GLY279      0.2611
    183  O          3.7690   31.8590   56.9720 O.2   279  GLY279     -0.2717
    184  N          2.1680   32.1970   58.5220 N.am  280  GLN280     -0.1979
    185  CA         3.0330   32.0480   59.6960 C.3   280  GLN280      0.1601
    186  C          3.6480   30.6350   59.7690 C.2   280  GLN280      0.2287
    187  O          4.8400   30.5150   60.0120 O.2   280  GLN280     -0.2864
    188  CB         2.2230   32.3040   60.9740 C.3   280  GLN280      0.0394
    189  CG         1.9250   33.7870   61.1960 C.3   280  GLN280      0.0908
    190  CD         3.1650   34.5290   61.5990 C.2   280  GLN280      0.2608
    191  OE1        3.8360   34.2030   62.5850 O.2   280  GLN280     -0.2717
    192  NE2        3.5020   35.5430   60.8400 N.am  280  GLN280     -0.0878
    193  N          6.4180   30.4220   57.3310 N.3   283  PHE283     -0.1227
    194  CA         7.5550   31.2480   57.7910 C.3   283  PHE283      0.1736
    195  C          8.3460   30.4990   58.8580 C.2   283  PHE283      0.2595
    196  O          9.5860   30.4540   58.7960 O.2   283  PHE283     -0.2718
    197  CB         7.1090   32.6240   58.3100 C.3   283  PHE283      0.0547
    198  CG         8.2360   33.5530   58.7060 C.ar  283  PHE283     -0.0202
    199  CD1        8.9730   34.2320   57.7420 C.ar  283  PHE283     -0.0042
    200  CD2        8.5940   33.7170   60.0450 C.ar  283  PHE283     -0.0042
    201  CE1       10.0390   35.0640   58.1050 C.ar  283  PHE283     -0.0003
    202  CE2        9.6640   34.5450   60.4050 C.ar  283  PHE283     -0.0003
    203  CZ        10.3690   35.2230   59.4310 C.ar  283  PHE283     -0.0000
    204  N          7.6340   29.8990   59.8280 N.am  284  TYR284     -0.1976
    205  CA         8.2970   29.1400   60.8970 C.3   284  TYR284      0.1639
    206  C          9.0140   27.9510   60.3210 C.2   284  TYR284      0.2290
    207  O         10.1560   27.7080   60.6870 O.2   284  TYR284     -0.2864
    208  CB         7.2860   28.6540   61.9450 C.3   284  TYR284      0.0560
    209  CG         6.9590   29.6620   63.0250 C.ar  284  TYR284     -0.0198
    210  CD1        6.2740   30.8420   62.7250 C.ar  284  TYR284     -0.0009
    211  CD2        7.3120   29.4280   64.3460 C.ar  284  TYR284     -0.0009
    212  CE1        5.9660   31.7650   63.7120 C.ar  284  TYR284      0.0417
    213  CE2        7.0010   30.3410   65.3450 C.ar  284  TYR284      0.0417
    214  CZ         6.3250   31.5070   65.0220 C.ar  284  TYR284      0.1957
    215  OH         6.0120   32.4130   65.9900 O.3   284  TYR284     -0.2866
@<TRIPOS>BOND
     1   163   162    1
     2   138   137    1
     3   138   132    1
     4   162   161    1
     5   137   136    1
     6   154   152   ar
     7   132   133    1
     8   161   160    1
     9   152   151    1
    10   152   153   ar
    11   136   133    1
    12   133   134    1
    13   160   159    1
    14   151   148    1
    15    28    27    1
    16   172   170   ar
    17    26    25    2
    18   171   170   ar
    19   134   139   am
    20   134   135    2
    21    25    24    1
    22   170   169    1
    23   139   140    1
    24   148   147    1
    25   148   149    1
    26   159   156    1
    27    27    24    1
    28    24    23    1
    29   155   156    1
    30   143   140    1
    31   143   144    1
    32   156   157    1
    33   169   168    1
    34   149   150    2
    35   140   141    1
    36   146   145    1
    37   141   142    2
    38   145   144    1
    39   168   165    1
    40   121   120    2
    41    31    32    2
    42    31    30    1
    43   110   109    2
    44   157   158    2
    45   120   119    1
    46   109   118   am
    47   109   108    1
    48   165   164    1
    49   165   166    1
    50   119   118    1
    51   119   122    1
    52    30    29    1
    53    30    33    1
    54   124   126   ar
    55   124   123   ar
    56    33    34    1
    57   113   115   ar
    58   113   112   ar
    59   115   117   ar
    60   108   111    1
    61   108   107    1
    62   126   127   ar
    63   111   112    1
    64   167   166    2
    65    34    36    1
    66    34    35    1
    67   122   123    1
    68   166   173   am
    69   181   180    1
    70   181   182    1
    71   112   114   ar
    72   123   125   ar
    73   101   100    2
    74   117   116   ar
    75   114   116   ar
    76   183   182    2
    77   173   174    1
    78   127   125   ar
    79   127   129   ar
    80   107   100   am
    81   182   184   am
    82   193   194    1
    83   100    99    1
    84   125   128   ar
    85   199   201   ar
    86   199   198   ar
    87    95    93   ar
    88    95    96   ar
    89   194   197    1
    90   194   195    1
    91   174   175    1
    92   174   177    1
    93   201   203   ar
    94   129   131   ar
    95    93    91   ar
    96   179   177    1
    97   197   198    1
    98    89    88    2
    99    97    96    1
   100   184   185    1
   101   128   130   ar
   102   198   200   ar
   103    96    94   ar
   104   196   195    2
   105    99   102    1
   106    99    98    1
   107   195   204   am
   108   176   175    2
   109   106   104   ar
   110   103   102    1
   111   103   104    1
   112   177   178    1
   113   131   130   ar
   114   203   202   ar
   115    91    90    1
   116    91    92   ar
   117    21    19   ar
   118    21    22   ar
   119    88    87    1
   120    81    80    2
   121   104   105   ar
   122   185   186    1
   123   185   188    1
   124    87    90    1
   125    87    86    1
   126   186   187    2
   127   204   205    1
   128    19    18   ar
   129   200   202   ar
   130    94    92   ar
   131    22    20   ar
   132   206   207    2
   133   206   205    1
   134    84    82    1
   135    80    86   am
   136    80    79    1
   137    18    20   ar
   138    18    17    1
   139   192   190   am
   140   205   208    1
   141   188   189    1
   142    44    42   ar
   143   189   190    1
   144    52    50    1
   145    51    50    1
   146    17    14    1
   147   190   191    2
   148    79    82    1
   149    79    78    1
   150    82    83    1
   151   208   209    1
   152    50    49    1
   153    42    41    1
   154    42    43   ar
   155     8    10   ar
   156     8     6   ar
   157   210   209   ar
   158   210   212   ar
   159    13    14    1
   160    13     3   am
   161    14    15    1
   162    10    11   ar
   163    83    85    1
   164     5     6    1
   165     5     2    1
   166    41    38    1
   167   209   211   ar
   168    16    15    2
   169    76    75    2
   170     6     7   ar
   171     1     2    1
   172    49    46    1
   173   212   214   ar
   174     2     3    1
   175     3     4    2
   176    11    12    1
   177    11     9   ar
   178    75    74    1
   179    40    39    2
   180   211   213   ar
   181    38    39    1
   182    38    37    1
   183    39    45   am
   184    46    45    1
   185    46    47    1
   186     7     9   ar
   187    77    74    1
   188    74    73    1
   189    64    63    1
   190   214   213   ar
   191   214   215    1
   192    47    48    2
   193    65    63    1
   194    63    60    1
   195    58    57    1
   196    60    59    1
   197    60    61    1
   198    59    55   am
   199    57    54    1
   200    53    54    1
   201    69    68    2
   202    72    70    1
   203    55    54    1
   204    55    56    2
   205    61    62    2
   206    68    67    1
   207    70    67    1
   208    70    71    1
   209    67    66    1
