@<TRIPOS>MOLECULE
tmp/5c2iA00.pdb
 244 231 0 0 0
SMALL
GASTEIGER

@<TRIPOS>ATOM
      1  N        -20.1120  -22.2590  -36.6370 N.3   197  GLU197     -0.1245
      2  CA       -19.9900  -23.2820  -35.5940 C.3   197  GLU197      0.1567
      3  C        -19.0410  -24.3530  -36.1730 C.2   197  GLU197      0.2260
      4  O        -18.6740  -24.3120  -37.3460 O.2   197  GLU197     -0.2867
      5  CB       -21.3630  -23.8050  -35.2030 C.3   197  GLU197      0.0388
      6  CG       -22.2300  -24.2810  -36.3500 C.3   197  GLU197      0.1160
      7  CD       -21.6950  -25.5680  -36.9800 C.2   197  GLU197      0.3649
      8  OE1      -21.2950  -26.4810  -36.2400 O.co2 197  GLU197     -0.2457
      9  OE2      -21.6400  -25.6620  -38.2160 O.co2 197  GLU197     -0.2457
     10  N        -18.9880  -27.3890  -37.2850 N.3   199  PHE199     -0.1241
     11  CA       -19.2430  -28.1420  -38.5140 C.3   199  PHE199      0.1605
     12  C        -19.0800  -27.2890  -39.7600 C.2   199  PHE199      0.2264
     13  O        -19.1130  -27.8180  -40.8740 O.2   199  PHE199     -0.2867
     14  CB       -20.6370  -28.8160  -38.4980 C.3   199  PHE199      0.0534
     15  CG       -20.8450  -29.8200  -37.4030 C.ar  199  PHE199     -0.0203
     16  CD1      -19.8390  -30.6710  -36.9780 C.ar  199  PHE199     -0.0042
     17  CD2      -22.0970  -29.9460  -36.8080 C.ar  199  PHE199     -0.0042
     18  CE1      -20.0710  -31.6400  -36.0020 C.ar  199  PHE199     -0.0003
     19  CE2      -22.3510  -30.9000  -35.8260 C.ar  199  PHE199     -0.0003
     20  CZ       -21.3230  -31.7670  -35.4200 C.ar  199  PHE199     -0.0000
     21  N        -20.7420  -24.3030  -40.5920 N.3   201  PHE201     -0.1227
     22  CA       -21.8770  -23.5230  -41.0360 C.3   201  PHE201      0.1736
     23  C        -21.9670  -22.1760  -40.3250 C.2   201  PHE201      0.2595
     24  O        -21.8120  -22.0750  -39.1100 O.2   201  PHE201     -0.2718
     25  CB       -23.1880  -24.2900  -40.8060 C.3   201  PHE201      0.0547
     26  CG       -23.2930  -25.5600  -41.6230 C.ar  201  PHE201     -0.0202
     27  CD1      -22.5840  -26.6920  -41.2410 C.ar  201  PHE201     -0.0042
     28  CD2      -24.0490  -25.6020  -42.7700 C.ar  201  PHE201     -0.0042
     29  CE1      -22.6770  -27.8670  -41.9720 C.ar  201  PHE201     -0.0003
     30  CE2      -24.1200  -26.7700  -43.5430 C.ar  201  PHE201     -0.0003
     31  CZ       -23.4270  -27.9000  -43.1590 C.ar  201  PHE201     -0.0000
     32  N        -22.2530  -21.1470  -41.0860 N.am  202  VAL202     -0.1966
     33  CA       -22.5060  -19.8180  -40.5200 C.3   202  VAL202      0.1727
     34  C        -23.6160  -19.9310  -39.4870 C.2   202  VAL202      0.2616
     35  O        -24.6000  -20.6600  -39.6930 O.2   202  VAL202     -0.2715
     36  CB       -22.8780  -18.8060  -41.5990 C.3   202  VAL202      0.0290
     37  CG1      -23.1720  -17.4470  -40.9800 C.3   202  VAL202      0.0023
     38  CG2      -21.6890  -18.6430  -42.5100 C.3   202  VAL202      0.0023
     39  N        -23.4500  -19.2260  -38.3840 N.am  203  HIS203     -0.1959
     40  CA       -24.2620  -19.4710  -37.1940 C.3   203  HIS203      0.1787
     41  C        -24.6700  -18.1820  -36.5570 C.2   203  HIS203      0.2621
     42  O        -23.8450  -17.2540  -36.4440 O.2   203  HIS203     -0.2715
     43  CB       -23.4620  -20.3340  -36.2210 C.3   203  HIS203      0.0785
     44  CG       -24.3060  -21.0210  -35.1970 C.ar  203  HIS203      0.0821
     45  ND1      -23.9750  -21.0460  -33.8730 N.ar  203  HIS203     -0.2267
     46  CD2      -25.4690  -21.6920  -35.2960 C.ar  203  HIS203      0.1154
     47  CE1      -24.8830  -21.7370  -33.1990 C.ar  203  HIS203      0.1986
     48  NE2      -25.8070  -22.1210  -34.0380 N.ar  203  HIS203     -0.2212
     49  N        -25.9270  -18.1320  -36.1000 N.am  204  GLY204     -0.1940
     50  CA       -26.4900  -16.9390  -35.4860 C.3   204  GLY204      0.2014
     51  C        -27.2590  -16.0810  -36.4580 C.2   204  GLY204      0.2639
     52  O        -27.5500  -14.9350  -36.1480 O.2   204  GLY204     -0.2714
     53  N        -27.6200  -16.6250  -37.6230 N.am  205  VAL205     -0.1963
     54  CA       -28.2350  -15.8310  -38.6740 C.3   205  VAL205      0.1727
     55  C        -29.6730  -15.3640  -38.2780 C.2   205  VAL205      0.2616
     56  O        -29.9960  -14.1670  -38.3660 O.2   205  VAL205     -0.2715
     57  CB       -28.3140  -16.6080  -40.0010 C.3   205  VAL205      0.0290
     58  CG1      -29.0010  -15.7830  -41.0500 C.3   205  VAL205      0.0023
     59  CG2      -26.9370  -17.0540  -40.4580 C.3   205  VAL205      0.0023
     60  N        -30.5260  -16.3120  -37.8900 N.am  206  SER206     -0.1950
     61  CA       -31.9510  -16.0230  -37.6380 C.3   206  SER206      0.1924
     62  C        -32.2500  -15.8840  -36.1520 C.2   206  SER206      0.2314
     63  O        -32.1720  -16.8730  -35.3840 O.2   206  SER206     -0.2863
     64  CB       -32.8210  -17.1230  -38.2290 C.3   206  SER206      0.2116
     65  OG       -34.1850  -16.7890  -38.0550 O.3   206  SER206     -0.2180
     66  N        -26.1080  -25.1700  -22.1370 N.3   257  ARG257     -0.1245
     67  CA       -25.8130  -26.5650  -22.4580 C.3   257  ARG257      0.1563
     68  C        -24.5020  -26.6500  -23.1790 C.2   257  ARG257      0.2260
     69  O        -24.2970  -25.9250  -24.1750 O.2   257  ARG257     -0.2867
     70  CB       -26.9180  -27.1740  -23.3130 C.3   257  ARG257      0.0307
     71  CG       -28.2520  -27.3370  -22.5510 C.3   257  ARG257      0.0489
     72  CD       -29.4420  -27.5850  -23.4530 C.3   257  ARG257      0.2205
     73  NE       -29.4540  -28.8630  -24.1600 N.pl3 257  ARG257     -0.0865
     74  CZ       -29.7840  -30.0430  -23.6250 C.cat 257  ARG257      0.5346
     75  NH1      -30.0510  -30.1940  -22.3250 N.pl3 257  ARG257      0.1354
     76  NH2      -29.8130  -31.1060  -24.4040 N.pl3 257  ARG257      0.1354
     77  N        -22.3990  -28.5570  -25.6390 N.3   259  LEU259     -0.1245
     78  CA       -22.7360  -29.5200  -26.7060 C.3   259  LEU259      0.1561
     79  C        -21.4710  -29.8420  -27.5020 C.2   259  LEU259      0.2260
     80  O        -21.0150  -29.0500  -28.3200 O.2   259  LEU259     -0.2867
     81  CB       -23.8440  -28.9240  -27.5920 C.3   259  LEU259      0.0270
     82  CG       -25.1510  -28.5460  -26.9130 C.3   259  LEU259      0.0019
     83  CD1      -26.1830  -28.0240  -27.9270 C.3   259  LEU259      0.0001
     84  CD2      -25.7160  -29.7210  -26.1380 C.3   259  LEU259      0.0001
     85  N        -19.2090  -31.5440  -30.3130 N.3   261  GLN261     -0.1245
     86  CA       -19.4360  -31.8050  -31.7180 C.3   261  GLN261      0.1566
     87  C        -18.3410  -32.6630  -32.3080 C.2   261  GLN261      0.2260
     88  O        -17.1940  -32.2680  -32.3050 O.2   261  GLN261     -0.2867
     89  CB       -19.5160  -30.4790  -32.5010 C.3   261  GLN261      0.0367
     90  CG       -20.6850  -29.6040  -32.1360 C.3   261  GLN261      0.0905
     91  CD       -20.6160  -28.2510  -32.8130 C.2   261  GLN261      0.2608
     92  OE1      -20.2300  -27.2480  -32.2080 O.2   261  GLN261     -0.2717
     93  NE2      -20.9800  -28.2190  -34.0950 N.am  261  GLN261     -0.0878
     94  N        -28.7160  -29.1920  -42.4560 N.3   289  VAL289     -0.1245
     95  CA       -28.8350  -27.9890  -41.6550 C.3   289  VAL289      0.1561
     96  C        -30.0180  -27.1160  -42.0450 C.2   289  VAL289      0.2260
     97  O        -30.6430  -26.5170  -41.1570 O.2   289  VAL289     -0.2867
     98  CB       -27.5410  -27.1710  -41.7340 C.3   289  VAL289      0.0252
     99  CG1      -27.7010  -25.8080  -41.0950 C.3   289  VAL289      0.0019
    100  CG2      -26.4010  -27.9450  -41.0650 C.3   289  VAL289      0.0019
    101  N        -29.3740  -24.8410  -44.4350 N.3   291  ARG291     -0.1245
    102  CA       -28.5810  -23.8330  -45.1340 C.3   291  ARG291      0.1563
    103  C        -27.2550  -24.4530  -45.5620 C.2   291  ARG291      0.2260
    104  O        -26.7270  -25.3450  -44.9160 O.2   291  ARG291     -0.2867
    105  CB       -28.2550  -22.6170  -44.2360 C.3   291  ARG291      0.0307
    106  CG       -29.4290  -21.7670  -43.8130 C.3   291  ARG291      0.0489
    107  CD       -28.9360  -20.7610  -42.7880 C.3   291  ARG291      0.2205
    108  NE       -30.0030  -19.9590  -42.2530 N.pl3 291  ARG291     -0.0865
    109  CZ       -30.4000  -18.7730  -42.7160 C.cat 291  ARG291      0.5346
    110  NH1      -29.8650  -18.2150  -43.8090 N.pl3 291  ARG291      0.1354
    111  NH2      -31.3820  -18.1500  -42.0950 N.pl3 291  ARG291      0.1354
    112  N        -32.5150  -28.9420  -39.8710 N.3   330  HIS330     -0.1226
    113  CA       -32.4410  -28.2160  -38.5960 C.3   330  HIS330      0.1752
    114  C        -33.2310  -26.8810  -38.5680 C.2   330  HIS330      0.2596
    115  O        -33.9800  -26.6410  -37.6050 O.2   330  HIS330     -0.2718
    116  CB       -30.9870  -28.0110  -38.2200 C.3   330  HIS330      0.0759
    117  CG       -30.7840  -27.3120  -36.9030 C.ar  330  HIS330      0.0818
    118  ND1      -31.2640  -27.8070  -35.7100 N.ar  330  HIS330     -0.2268
    119  CD2      -30.0740  -26.1990  -36.5940 C.ar  330  HIS330      0.1154
    120  CE1      -30.8480  -27.0340  -34.7180 C.ar  330  HIS330      0.1986
    121  NE2      -30.1150  -26.0670  -35.2300 N.ar  330  HIS330     -0.2212
    122  N        -33.0610  -26.0440  -39.5870 N.am  331  THR331     -0.1953
    123  CA       -33.7520  -24.7480  -39.6160 C.3   331  THR331      0.1897
    124  C        -35.2430  -24.8770  -39.6830 C.2   331  THR331      0.2313
    125  O        -35.9740  -24.1240  -39.0370 O.2   331  THR331     -0.2863
    126  CB       -33.2710  -23.8080  -40.7670 C.3   331  THR331      0.1794
    127  OG1      -33.4270  -24.4650  -42.0100 O.3   331  THR331     -0.2208
    128  CG2      -31.8130  -23.4030  -40.5750 C.3   331  THR331      0.0378
    129  N        -36.5960  -26.3200  -36.1930 N.3   334  THR334     -0.1203
    130  CA       -36.5230  -25.3890  -35.0820 C.3   334  THR334      0.1994
    131  C        -37.3040  -24.1080  -35.3510 C.2   334  THR334      0.2617
    132  O        -37.7270  -23.4420  -34.4010 O.2   334  THR334     -0.2717
    133  CB       -35.0700  -25.0550  -34.7060 C.3   334  THR334      0.1784
    134  OG1      -34.4010  -24.4860  -35.8360 O.3   334  THR334     -0.2211
    135  CG2      -34.3290  -26.2560  -34.2440 C.3   334  THR334      0.0376
    136  N        -37.4830  -23.7480  -36.6200 N.am  335  ASN335     -0.1974
    137  CA       -38.2980  -22.6230  -37.0020 C.3   335  ASN335      0.1688
    138  C        -39.1300  -22.9830  -38.2180 C.2   335  ASN335      0.2292
    139  O        -38.6880  -22.8620  -39.3680 O.2   335  ASN335     -0.2864
    140  CB       -37.5010  -21.3610  -37.2680 C.3   335  ASN335      0.1181
    141  CG       -38.4300  -20.1690  -37.5600 C.2   335  ASN335      0.2629
    142  OD1      -39.6600  -20.3360  -37.6390 O.2   335  ASN335     -0.2716
    143  ND2      -37.8570  -18.9970  -37.7770 N.am  335  ASN335     -0.0877
    144  N        -41.4900  -21.6160  -39.6580 N.3   337  ARG337     -0.1245
    145  CA       -41.9600  -20.4600  -40.4200 C.3   337  ARG337      0.1563
    146  C        -43.3710  -20.6220  -41.0070 C.2   337  ARG337      0.2260
    147  O        -43.6280  -20.2640  -42.1760 O.2   337  ARG337     -0.2867
    148  CB       -40.9540  -20.0870  -41.5410 C.3   337  ARG337      0.0307
    149  CG       -39.5730  -19.8180  -40.9750 C.3   337  ARG337      0.0489
    150  CD       -38.6110  -19.2490  -41.9980 C.3   337  ARG337      0.2205
    151  NE       -37.2970  -19.0960  -41.3780 N.pl3 337  ARG337     -0.0865
    152  CZ       -36.4460  -18.0790  -41.5340 C.cat 337  ARG337      0.5346
    153  NH1      -36.7150  -17.0420  -42.3240 N.pl3 337  ARG337      0.1354
    154  NH2      -35.2700  -18.1400  -40.9040 N.pl3 337  ARG337      0.1354
    155  N        -36.5480  -18.9530  -29.6050 N.3   362  ILE362     -0.1245
    156  CA       -35.5270  -18.7070  -28.6080 C.3   362  ILE362      0.1561
    157  C        -34.5190  -17.6780  -29.1330 C.2   362  ILE362      0.2260
    158  O        -34.3320  -17.5250  -30.3290 O.2   362  ILE362     -0.2867
    159  CB       -34.7640  -19.9940  -28.2540 C.3   362  ILE362      0.0252
    160  CG1      -34.1360  -20.6340  -29.4950 C.3   362  ILE362      0.0019
    161  CG2      -35.7000  -20.9840  -27.5410 C.3   362  ILE362      0.0019
    162  CD1      -33.1170  -21.7290  -29.1590 C.3   362  ILE362      0.0001
    163  N        -30.7210  -16.8040  -29.1980 N.3   364  ARG364     -0.1245
    164  CA       -29.4820  -17.5700  -28.9980 C.3   364  ARG364      0.1563
    165  C        -28.2860  -16.6170  -28.7160 C.2   364  ARG364      0.2260
    166  O        -28.1290  -15.5450  -29.3760 O.2   364  ARG364     -0.2867
    167  CB       -29.2290  -18.4540  -30.2100 C.3   364  ARG364      0.0307
    168  CG       -30.2710  -19.5720  -30.3280 C.3   364  ARG364      0.0489
    169  CD       -30.0810  -20.4200  -31.5840 C.3   364  ARG364      0.2205
    170  NE       -30.3960  -19.5760  -32.7330 N.pl3 364  ARG364     -0.0865
    171  CZ       -29.7420  -19.5790  -33.8880 C.cat 364  ARG364      0.5346
    172  NH1      -28.7410  -20.4060  -34.1000 N.pl3 364  ARG364      0.1354
    173  NH2      -30.0970  -18.7500  -34.8410 N.pl3 364  ARG364      0.1354
    174  N        -20.0460  -26.4090  -28.9490 N.3   384  LEU384     -0.1245
    175  CA       -20.8040  -25.2270  -28.7890 C.3   384  LEU384      0.1561
    176  C        -21.2120  -25.0700  -27.3480 C.2   384  LEU384      0.2260
    177  O        -21.8110  -25.9750  -26.7500 O.2   384  LEU384     -0.2867
    178  CB       -22.0840  -25.2790  -29.6640 C.3   384  LEU384      0.0270
    179  CG       -22.8750  -23.9750  -29.7620 C.3   384  LEU384      0.0019
    180  CD1      -22.1260  -22.9780  -30.6450 C.3   384  LEU384      0.0001
    181  CD2      -24.2910  -24.2290  -30.3090 C.3   384  LEU384      0.0001
    182  N        -23.8960  -23.6380  -25.7900 N.3   386  PHE386     -0.1241
    183  CA       -25.2370  -23.2170  -26.1970 C.3   386  PHE386      0.1605
    184  C        -25.8800  -22.4220  -25.0830 C.2   386  PHE386      0.2264
    185  O        -26.0920  -22.9510  -23.9840 O.2   386  PHE386     -0.2867
    186  CB       -26.0960  -24.4480  -26.5390 C.3   386  PHE386      0.0534
    187  CG       -27.4980  -24.1250  -26.9440 C.ar  386  PHE386     -0.0203
    188  CD1      -27.7950  -23.8170  -28.2750 C.ar  386  PHE386     -0.0042
    189  CD2      -28.5230  -24.0580  -25.9770 C.ar  386  PHE386     -0.0042
    190  CE1      -29.1030  -23.5340  -28.6610 C.ar  386  PHE386     -0.0003
    191  CE2      -29.8360  -23.7680  -26.3620 C.ar  386  PHE386     -0.0003
    192  CZ       -30.1230  -23.4820  -27.7040 C.ar  386  PHE386     -0.0000
    193  N        -37.2060  -23.1170  -25.2570 N.3   397  PHE397     -0.1241
    194  CA       -36.1930  -24.1460  -25.4760 C.3   397  PHE397      0.1605
    195  C        -36.7210  -25.5920  -25.3010 C.2   397  PHE397      0.2264
    196  O        -36.4480  -26.4500  -26.1490 O.2   397  PHE397     -0.2867
    197  CB       -34.9380  -23.9760  -24.6270 C.3   397  PHE397      0.0534
    198  CG       -34.0400  -25.1520  -24.7020 C.ar  397  PHE397     -0.0203
    199  CD1      -33.1750  -25.3070  -25.7780 C.ar  397  PHE397     -0.0042
    200  CD2      -34.1020  -26.1620  -23.7570 C.ar  397  PHE397     -0.0042
    201  CE1      -32.4030  -26.4760  -25.8920 C.ar  397  PHE397     -0.0003
    202  CE2      -33.3320  -27.2910  -23.8690 C.ar  397  PHE397     -0.0003
    203  CZ       -32.4770  -27.4470  -24.9420 C.ar  397  PHE397     -0.0000
    204  N        -38.9820  -26.6170  -28.1190 N.3   400  MET400     -0.1230
    205  CA       -38.2980  -26.7230  -29.3700 C.3   400  MET400      0.1702
    206  C        -37.5440  -28.0670  -29.4540 C.2   400  MET400      0.2592
    207  O        -37.6450  -28.7790  -30.4670 O.2   400  MET400     -0.2718
    208  CB       -37.3720  -25.5450  -29.5520 C.3   400  MET400      0.0401
    209  CG       -36.7050  -25.4320  -30.8850 C.3   400  MET400      0.0596
    210  SD       -35.7550  -23.9050  -31.0110 S.3   400  MET400     -0.1393
    211  CE       -37.0860  -22.7390  -31.2270 C.3   400  MET400      0.0692
    212  N        -36.8030  -28.4050  -28.3970 N.am  401  GLN401     -0.1979
    213  CA       -36.0510  -29.6730  -28.3780 C.3   401  GLN401      0.1601
    214  C        -37.0010  -30.8740  -28.3460 C.2   401  GLN401      0.2287
    215  O        -36.8560  -31.8200  -29.1500 O.2   401  GLN401     -0.2864
    216  CB       -35.1110  -29.7220  -27.1830 C.3   401  GLN401      0.0394
    217  CG       -34.2090  -30.9540  -27.1360 C.3   401  GLN401      0.0908
    218  CD       -33.0250  -30.8610  -28.0680 C.2   401  GLN401      0.2608
    219  OE1      -32.2700  -29.8760  -28.0590 O.2   401  GLN401     -0.2717
    220  NE2      -32.8570  -31.8660  -28.8950 N.am  401  GLN401     -0.0878
    221  N        -29.3130  -33.0120  -36.9960 N.3   420  LEU420     -0.1231
    222  CA       -28.2550  -32.3130  -36.2970 C.3   420  LEU420      0.1693
    223  C        -28.3340  -32.4730  -34.7880 C.2   420  LEU420      0.2591
    224  O        -27.3470  -32.8350  -34.1660 O.2   420  LEU420     -0.2718
    225  CB       -28.3230  -30.8120  -36.6920 C.3   420  LEU420      0.0284
    226  CG       -27.1190  -29.9640  -36.3400 C.3   420  LEU420      0.0019
    227  CD1      -25.8890  -30.4230  -37.1150 C.3   420  LEU420      0.0001
    228  CD2      -27.3960  -28.4750  -36.6170 C.3   420  LEU420      0.0001
    229  N        -29.5150  -32.2340  -34.1790 N.am  421  ILE421     -0.1980
    230  CA       -29.6400  -32.1840  -32.7230 C.3   421  ILE421      0.1595
    231  C        -30.7240  -33.0950  -32.1350 C.2   421  ILE421      0.2287
    232  O        -30.8780  -33.1800  -30.9030 O.2   421  ILE421     -0.2864
    233  CB       -29.9540  -30.7410  -32.2070 C.3   421  ILE421      0.0276
    234  CG1      -31.3310  -30.2790  -32.6750 C.3   421  ILE421      0.0022
    235  CG2      -28.8970  -29.7730  -32.6050 C.3   421  ILE421      0.0022
    236  CD1      -31.9280  -29.1180  -31.8920 C.3   421  ILE421      0.0001
    237  N        -23.6660  -34.7700  -31.9720 N.3   448  ILE448     -0.1245
    238  CA       -23.6450  -33.7950  -30.8730 C.3   448  ILE448      0.1561
    239  C        -23.9690  -34.5120  -29.5660 C.2   448  ILE448      0.2260
    240  O        -24.9170  -35.3200  -29.5270 O.2   448  ILE448     -0.2867
    241  CB       -24.6380  -32.6630  -31.1800 C.3   448  ILE448      0.0252
    242  CG1      -24.1190  -31.8910  -32.3960 C.3   448  ILE448      0.0019
    243  CG2      -24.8330  -31.7620  -29.9780 C.3   448  ILE448      0.0019
    244  CD1      -25.1070  -30.9040  -33.0250 C.3   448  ILE448      0.0001
@<TRIPOS>BOND
     1   103   102    1
     2   103   104    2
     3   102   101    1
     4   102   105    1
     5   105   106    1
     6   106   107    1
     7   110   109    1
     8    30    31   ar
     9    30    28   ar
    10    31    29   ar
    11   107   108    1
    12    28    26   ar
    13   109   108    2
    14   109   111    1
    15    38    36    1
    16    94    95    1
    17   153   152    1
    18   147   146    2
    19    96    95    1
    20    96    97    2
    21   127   126    1
    22   150   151    1
    23   150   149    1
    24    29    27   ar
    25    98    95    1
    26    98    99    1
    27    98   100    1
    28    26    27   ar
    29    26    25    1
    30    36    37    1
    31    36    33    1
    32   148   149    1
    33   148   145    1
    34   152   151    2
    35   152   154    1
    36    32    33    1
    37    32    23   am
    38    58    57    1
    39    22    25    1
    40    22    21    1
    41    22    23    1
    42   146   145    1
    43    13    12    2
    44   126   128    1
    45   126   123    1
    46    33    34    1
    47    59    57    1
    48   145   144    1
    49    23    24    2
    50    57    54    1
    51   112   113    1
    52    12    11    1
    53    35    34    2
    54   124   123    1
    55   124   125    2
    56   123   122    1
    57   122   114   am
    58    34    39   am
    59   139   138    2
    60    54    55    1
    61    54    53    1
    62   113   114    1
    63   113   116    1
    64   114   115    2
    65    11    14    1
    66    11    10    1
    67    14    15    1
    68    39    40    1
    69    56    55    2
    70    55    60   am
    71    64    65    1
    72    64    61    1
    73   116   117    1
    74   138   137    1
    75     9     7   ar
    76    60    61    1
    77   143   141   am
    78   142   141    2
    79    61    62    1
    80    53    51   am
    81   141   140    1
    82    15    16   ar
    83    15    17   ar
    84     4     3    2
    85   140   137    1
    86    40    41    1
    87    40    43    1
    88   227   226    1
    89   137   136    1
    90   221   222    1
    91     7     6    1
    92     7     8   ar
    93    16    18   ar
    94   117   119   ar
    95   117   118   ar
    96    17    19   ar
    97   225   226    1
    98   225   222    1
    99     1     2    1
   100   136   131   am
   101   228   226    1
   102   119   121   ar
   103    41    42    2
   104    41    49   am
   105    51    52    2
   106    51    50    1
   107     6     5    1
   108   222   223    1
   109    43    44    1
   110   129   130    1
   111     3     2    1
   112    62    63    2
   113    49    50    1
   114    18    20   ar
   115   134   133    1
   116    19    20   ar
   117   118   120   ar
   118     2     5    1
   119   131   130    1
   120   131   132    2
   121    46    44   ar
   122    46    48   ar
   123   121   120   ar
   124    44    45   ar
   125   130   133    1
   126   173   171    1
   127   223   229   am
   128   223   224    2
   129   133   135    1
   130   229   230    1
   131   172   171    1
   132    93    91   am
   133    48    47   ar
   134   171   170    2
   135    45    47   ar
   136   244   242    1
   137    91    92    2
   138    91    90    1
   139   170   169    1
   140   230   233    1
   141   230   231    1
   142   234   233    1
   143   234   236    1
   144   235   233    1
   145    89    90    1
   146    89    86    1
   147   242   241    1
   148    87    88    2
   149    87    86    1
   150   231   232    2
   151   237   238    1
   152    86    85    1
   153   169   168    1
   154   211   210    1
   155   241   238    1
   156   241   243    1
   157   210   209    1
   158   209   208    1
   159   238   239    1
   160   180   179    1
   161   207   206    2
   162   158   157    2
   163   168   167    1
   164   181   179    1
   165   167   164    1
   166   179   178    1
   167   178   175    1
   168   155   156    1
   169   239   240    2
   170   208   205    1
   171   160   162    1
   172   160   159    1
   173   206   205    1
   174   206   212   am
   175   166   165    2
   176   205   204    1
   177   163   164    1
   178   215   214    2
   179   157   156    1
   180   164   165    1
   181   174   175    1
   182   220   218   am
   183   175   176    1
   184   190   188   ar
   185   190   192   ar
   186   156   159    1
   187   212   213    1
   188   213   214    1
   189   213   216    1
   190    80    79    2
   191   188   187   ar
   192   159   161    1
   193   218   219    2
   194   218   217    1
   195    83    82    1
   196   192   191   ar
   197    81    82    1
   198    81    78    1
   199    79    78    1
   200   176   177    2
   201   216   217    1
   202   187   186    1
   203   187   189   ar
   204    82    84    1
   205    78    77    1
   206   186   183    1
   207   191   189   ar
   208   183   182    1
   209   183   184    1
   210   196   195    2
   211   201   199   ar
   212   201   203   ar
   213   199   198   ar
   214   194   195    1
   215   194   193    1
   216   194   197    1
   217   184   185    2
   218   203   202   ar
   219   198   197    1
   220   198   200   ar
   221    76    74    1
   222    69    68    2
   223    73    74    2
   224    73    72    1
   225   202   200   ar
   226    74    75    1
   227    72    71    1
   228    70    71    1
   229    70    67    1
   230    68    67    1
   231    67    66    1
