@<TRIPOS>MOLECULE
tmp/5c2kA00.pdb
 196 191 0 0 0
SMALL
GASTEIGER

@<TRIPOS>ATOM
      1  N         -0.4510   -0.0580   20.2540 N.3    13  GLY13      -0.1210
      2  CA        -1.8130    0.1570   19.8120 C.3    13  GLY13       0.1956
      3  C         -2.8130   -0.1570   20.9130 C.2    13  GLY13       0.2612
      4  O         -2.6680   -1.1390   21.6500 O.2    13  GLY13      -0.2717
      5  N         -3.8310    0.6930   21.0230 N.am   14  ALA14      -0.1965
      6  CA        -4.9000    0.5500   22.0070 C.3    14  ALA14       0.1728
      7  C         -4.4880    0.7280   23.4670 C.2    14  ALA14       0.2616
      8  O         -5.2420    0.3580   24.3660 O.2    14  ALA14      -0.2715
      9  CB        -5.6080   -0.8060   21.8230 C.3    14  ALA14       0.0334
     10  N         -3.3210    1.3130   23.7250 N.am   15  CYS15      -0.1954
     11  CA        -2.9140    1.4890   25.1180 C.3    15  CYS15       0.1843
     12  C         -3.4760    2.7580   25.7760 C.2    15  CYS15       0.2626
     13  O         -3.1950    3.0260   26.9460 O.2    15  CYS15      -0.2714
     14  CB        -1.3820    1.4280   25.2630 C.3    15  CYS15       0.0997
     15  SG        -0.4410    2.8930   24.7920 S.3    15  CYS15      -0.0797
     16  N         -4.2630    3.5350   25.0280 N.am   16  GLY16      -0.1940
     17  CA        -4.8940    4.7210   25.5930 C.3    16  GLY16       0.2014
     18  C         -4.3510    6.0940   25.2480 C.2    16  GLY16       0.2639
     19  O         -4.6950    7.0770   25.9100 O.2    16  GLY16      -0.2714
     20  N         -3.5250    6.1790   24.2120 N.am   17  LYS17      -0.1963
     21  CA        -2.9290    7.4540   23.8120 C.3    17  LYS17       0.1728
     22  C         -3.9380    8.5330   23.4170 C.2    17  LYS17       0.2617
     23  O         -3.8930    9.6570   23.9260 O.2    17  LYS17      -0.2715
     24  CB        -1.9490    7.2290   22.6550 C.3    17  LYS17       0.0311
     25  CG        -0.7960    6.2930   23.0120 C.3    17  LYS17       0.0038
     26  CD         0.1830    6.1160   21.8550 C.3    17  LYS17       0.0206
     27  CE        -0.4730    5.4920   20.6270 C.3    17  LYS17       0.1093
     28  NZ        -1.0030    4.1150   20.8720 N.3    17  LYS17      -0.1314
     29  N         -4.8510    8.1970   22.5140 N.am   18  THR18      -0.1937
     30  CA        -5.8240    9.1780   22.0590 C.3    18  THR18       0.2028
     31  C         -6.7630    9.6170   23.1780 C.2    18  THR18       0.2642
     32  O         -7.0510   10.8090   23.3190 O.2    18  THR18      -0.2714
     33  CB        -6.6360    8.6280   20.8710 C.3    18  THR18       0.1808
     34  OG1       -5.7400    8.3510   19.7830 O.3    18  THR18      -0.2208
     35  CG2       -7.6750    9.6430   20.4050 C.3    18  THR18       0.0379
     36  N         -7.2250    8.6740   23.9890 N.am   19  CYS19      -0.1967
     37  CA        -8.1260    9.0390   25.0750 C.3    19  CYS19       0.1712
     38  C         -7.4340    9.9960   26.0330 C.2    19  CYS19       0.2296
     39  O         -8.0620   10.9110   26.5660 O.2    19  CYS19      -0.2864
     40  CB        -8.6130    7.7960   25.8180 C.3    19  CYS19       0.0983
     41  SG        -9.8700    6.8720   24.8990 S.3    19  CYS19      -0.0798
     42  N        -14.1250   12.0990   27.3710 N.3    29  PHE29      -0.1228
     43  CA       -13.5850   10.7690   27.0990 C.3    29  PHE29       0.1721
     44  C        -14.2460   10.1650   25.8610 C.2    29  PHE29       0.2437
     45  O        -15.4610    9.9600   25.8380 O.2    29  PHE29      -0.2733
     46  CB       -13.8290    9.8570   28.3040 C.3    29  PHE29       0.0547
     47  CG       -13.1960    8.4950   28.1800 C.ar   29  PHE29      -0.0202
     48  CD1      -11.8350    8.3210   28.4100 C.ar   29  PHE29      -0.0042
     49  CD2      -13.9640    7.3880   27.8360 C.ar   29  PHE29      -0.0042
     50  CE1      -11.2460    7.0630   28.3020 C.ar   29  PHE29      -0.0003
     51  CE2      -13.3860    6.1210   27.7240 C.ar   29  PHE29      -0.0003
     52  CZ       -12.0230    5.9610   27.9580 C.ar   29  PHE29      -0.0000
     53  N        -13.4560    9.8750   24.8110 N.am   30  PRO30      -0.2718
     54  CA       -13.9980    9.2900   23.5790 C.3    30  PRO30       0.1535
     55  C        -14.5100    7.8850   23.8780 C.2    30  PRO30       0.2598
     56  O        -13.8480    7.1250   24.5800 O.2    30  PRO30      -0.2715
     57  CB       -12.7880    9.2540   22.6420 C.3    30  PRO30       0.0310
     58  CG       -11.8690   10.3020   23.1940 C.3    30  PRO30       0.0237
     59  CD       -12.0110   10.1250   24.6780 C.3    30  PRO30       0.0939
     60  N        -15.6750    7.5330   23.3450 N.am   31  GLU31      -0.1964
     61  CA       -16.2360    6.2100   23.5960 C.3    31  GLU31       0.1733
     62  C        -16.0460    5.2220   22.4510 C.2    31  GLU31       0.2616
     63  O        -16.1720    4.0120   22.6430 O.2    31  GLU31      -0.2715
     64  CB       -17.7280    6.3210   23.9200 C.3    31  GLU31       0.0429
     65  CG       -18.0380    6.9770   25.2570 C.3    31  GLU31       0.1163
     66  CD       -17.4180    6.2380   26.4280 C.2    31  GLU31       0.3649
     67  OE1      -17.5510    4.9980   26.4900 O.co2  31  GLU31      -0.2457
     68  OE2      -16.8050    6.8990   27.2920 O.co2  31  GLU31      -0.2457
     69  N        -15.7360    5.7310   21.2640 N.am   32  VAL32      -0.1963
     70  CA       -15.5570    4.8700   20.0990 C.3    32  VAL32       0.1727
     71  C        -14.2690    4.0530   20.1170 C.2    32  VAL32       0.2616
     72  O        -13.2980    4.4050   20.7900 O.2    32  VAL32      -0.2715
     73  CB       -15.5840    5.6910   18.7910 C.3    32  VAL32       0.0290
     74  CG1      -16.9240    6.3930   18.6450 C.3    32  VAL32       0.0023
     75  CG2      -14.4440    6.6990   18.7850 C.3    32  VAL32       0.0023
     76  N        -14.2790    2.9460   19.3810 N.am   33  TYR33      -0.1960
     77  CA       -13.1140    2.0780   19.2700 C.3    33  TYR33       0.1771
     78  C        -12.5980    2.2770   17.8510 C.2    33  TYR33       0.2619
     79  O        -13.0390    1.6080   16.9120 O.2    33  TYR33      -0.2715
     80  CB       -13.5020    0.6140   19.4800 C.3    33  TYR33       0.0574
     81  CG       -12.3210   -0.2770   19.7920 C.ar   33  TYR33      -0.0198
     82  CD1      -11.7590   -0.2940   21.0670 C.ar   33  TYR33      -0.0009
     83  CD2      -11.7560   -1.0900   18.8110 C.ar   33  TYR33      -0.0009
     84  CE1      -10.6670   -1.0980   21.3610 C.ar   33  TYR33       0.0417
     85  CE2      -10.6560   -1.8990   19.0930 C.ar   33  TYR33       0.0417
     86  CZ       -10.1180   -1.9000   20.3710 C.ar   33  TYR33       0.1957
     87  OH        -9.0400   -2.7020   20.6720 O.3    33  TYR33      -0.2866
     88  N        -11.6680    3.2130   17.7030 N.am   34  VAL34      -0.1964
     89  CA       -11.1080    3.5460   16.4010 C.3    34  VAL34       0.1712
     90  C         -9.6150    3.8350   16.4930 C.2    34  VAL34       0.2458
     91  O         -9.1900    4.7020   17.2570 O.2    34  VAL34      -0.2730
     92  CB       -11.7990    4.8000   15.8200 C.3    34  VAL34       0.0289
     93  CG1      -11.1660    5.1870   14.4970 C.3    34  VAL34       0.0023
     94  CG2      -13.2870    4.5400   15.6460 C.3    34  VAL34       0.0023
     95  N         -8.7970    3.1090   15.7180 N.am   35  PRO35      -0.2716
     96  CA        -7.3520    3.3550   15.7630 C.3    35  PRO35       0.1536
     97  C         -6.9880    4.6410   15.0220 C.2    35  PRO35       0.2599
     98  O         -7.5920    4.9820   14.0070 O.2    35  PRO35      -0.2715
     99  CB        -6.7690    2.1170   15.0910 C.3    35  PRO35       0.0310
    100  CG        -7.8190    1.7610   14.0890 C.3    35  PRO35       0.0237
    101  CD        -9.1120    1.9580   14.8530 C.3    35  PRO35       0.0939
    102  N         -5.9960    5.3470   15.5510 N.am   36  THR36      -0.1951
    103  CA        -5.4990    6.5930   14.9780 C.3    36  THR36       0.1897
    104  C         -4.4640    6.2950   13.8980 C.2    36  THR36       0.2313
    105  O         -3.7480    5.2980   13.9870 O.2    36  THR36      -0.2863
    106  CB        -4.7630    7.4220   16.0600 C.3    36  THR36       0.1794
    107  OG1       -5.6160    7.5940   17.1930 O.3    36  THR36      -0.2208
    108  CG2       -4.3400    8.7840   15.5210 C.3    36  THR36       0.0378
    109  N         -0.6840   13.0390   17.6650 N.3    58  ASP58      -0.1239
    110  CA        -1.1710   11.6820   17.9100 C.3    58  ASP58       0.1674
    111  C         -0.6680   10.7470   16.8130 C.2    58  ASP58       0.2266
    112  O         -0.6810   11.1000   15.6320 O.2    58  ASP58      -0.2867
    113  CB        -2.7040   11.6820   17.9330 C.3    58  ASP58       0.1410
    114  CG        -3.2810   10.5680   18.7910 C.2    58  ASP58       0.3668
    115  OD1       -2.5050    9.7230   19.2900 O.co2  58  ASP58      -0.2456
    116  OD2       -4.5210   10.5400   18.9660 O.co2  58  ASP58      -0.2456
    117  N          0.1530    3.2500   16.9800 N.3    61  GLY61      -0.1210
    118  CA         1.0960    2.3910   17.6750 C.3    61  GLY61       0.1956
    119  C          1.3950    1.0780   16.9740 C.2    61  GLY61       0.2611
    120  O          2.3180    0.3620   17.3620 O.2    61  GLY61      -0.2717
    121  N          0.6230    0.7530   15.9400 N.am   62  GLN62      -0.1979
    122  CA         0.8270   -0.4960   15.2080 C.3    62  GLN62       0.1601
    123  C          2.1750   -0.5590   14.4960 C.2    62  GLN62       0.2287
    124  O          2.6720    0.4480   13.9920 O.2    62  GLN62      -0.2864
    125  CB        -0.2740   -0.7040   14.1600 C.3    62  GLN62       0.0394
    126  CG        -1.6610   -1.0320   14.6920 C.3    62  GLN62       0.0908
    127  CD        -2.3220    0.1500   15.3670 C.2    62  GLN62       0.2608
    128  OE1       -2.1660    1.2910   14.9320 O.2    62  GLN62      -0.2717
    129  NE2       -3.0780   -0.1180   16.4250 N.am   62  GLN62      -0.0878
    130  N         -0.9390    4.2140   31.4830 N.3   116  ASN116     -0.1225
    131  CA        -2.3590    4.5100   31.2960 C.3   116  ASN116      0.1785
    132  C         -3.2910    3.4720   31.9190 C.2   116  ASN116      0.2597
    133  O         -2.8640    2.3890   32.3270 O.2   116  ASN116     -0.2718
    134  CB        -2.7000    4.6010   29.8020 C.3   116  ASN116      0.1169
    135  CG        -2.1110    5.8240   29.1280 C.2   116  ASN116      0.2627
    136  OD1       -1.9370    6.8700   29.7490 O.2   116  ASN116     -0.2716
    137  ND2       -1.8320    5.7050   27.8320 N.am  116  ASN116     -0.0877
    138  N         -4.5760    3.8220   31.9590 N.am  117  LYS117     -0.1980
    139  CA        -5.6350    2.9630   32.4830 C.3   117  LYS117      0.1596
    140  C         -5.4000    2.5000   33.9170 C.2   117  LYS117      0.2287
    141  O         -5.6230    1.3380   34.2490 O.2   117  LYS117     -0.2864
    142  CB        -5.8280    1.7480   31.5610 C.3   117  LYS117      0.0298
    143  CG        -5.8690    2.1020   30.0730 C.3   117  LYS117      0.0038
    144  CD        -6.3090    0.9240   29.2060 C.3   117  LYS117      0.0206
    145  CE        -6.1210    1.2260   27.7240 C.3   117  LYS117      0.1093
    146  NZ        -6.6320    0.1130   26.8650 N.3   117  LYS117     -0.1314
    147  N         -7.1240    2.9450   36.3680 N.3   119  ASP119     -0.1225
    148  CA        -8.3900    2.5050   36.9510 C.3   119  ASP119      0.1805
    149  C         -8.6000    0.9960   36.8670 C.2   119  ASP119      0.2597
    150  O         -9.4540    0.4430   37.5650 O.2   119  ASP119     -0.2718
    151  CB        -9.5690    3.2190   36.2710 C.3   119  ASP119      0.1424
    152  CG        -9.6100    2.9900   34.7680 C.2   119  ASP119      0.3668
    153  OD1       -8.7440    3.5360   34.0500 O.co2 119  ASP119     -0.2456
    154  OD2      -10.5130    2.2630   34.2980 O.co2 119  ASP119     -0.2456
    155  N         -7.8230    0.3290   36.0200 N.am  120  LEU120     -0.1979
    156  CA        -7.9560   -1.1140   35.8450 C.3   120  LEU120      0.1596
    157  C         -7.0590   -1.9500   36.7530 C.2   120  LEU120      0.2287
    158  O         -7.2110   -3.1700   36.8220 O.2   120  LEU120     -0.2864
    159  CB        -7.6950   -1.4870   34.3810 C.3   120  LEU120      0.0297
    160  CG        -8.6790   -0.8870   33.3710 C.3   120  LEU120      0.0022
    161  CD1       -8.3240   -1.3380   31.9590 C.3   120  LEU120      0.0001
    162  CD2      -10.0990   -1.3190   33.7270 C.3   120  LEU120      0.0001
    163  N         -7.4560    8.1590   31.9190 N.3   160  ALA160     -0.1231
    164  CA        -8.2120    9.1070   31.1190 C.3   160  ALA160      0.1694
    165  C         -9.6960    8.9170   31.4160 C.2   160  ALA160      0.2591
    166  O        -10.4770    9.8690   31.3830 O.2   160  ALA160     -0.2718
    167  CB        -7.9410    8.8760   29.6390 C.3   160  ALA160      0.0304
    168  N        -10.0780    7.6830   31.7260 N.am  161  LYS161     -0.1980
    169  CA       -11.4750    7.3720   32.0050 C.3   161  LYS161      0.1596
    170  C        -11.9980    8.0710   33.2590 C.2   161  LYS161      0.2287
    171  O        -13.1230    8.5700   33.2630 O.2   161  LYS161     -0.2864
    172  CB       -11.6590    5.8560   32.1300 C.3   161  LYS161      0.0298
    173  CG       -13.1080    5.4000   32.0340 C.3   161  LYS161      0.0038
    174  CD       -13.2180    3.8850   32.1340 C.3   161  LYS161      0.0206
    175  CE       -14.5960    3.4000   31.7130 C.3   161  LYS161      0.1093
    176  NZ       -14.8440    3.6470   30.2630 N.3   161  LYS161     -0.1314
    177  N         -5.3240   -4.8100   15.7760 N.3   222  ARG222     -0.1245
    178  CA        -5.0640   -3.4660   16.2820 C.3   222  ARG222      0.1563
    179  C         -4.0130   -3.5780   17.3860 C.2   222  ARG222      0.2260
    180  O         -3.1410   -2.7160   17.5350 O.2   222  ARG222     -0.2867
    181  CB        -6.3340   -2.8400   16.8630 C.3   222  ARG222      0.0307
    182  CG        -6.0660   -1.4800   17.4770 C.3   222  ARG222      0.0489
    183  CD        -7.3030   -0.7960   18.0200 C.3   222  ARG222      0.2205
    184  NE        -6.9430    0.5280   18.5240 N.pl3 222  ARG222     -0.0865
    185  CZ        -7.7880    1.3900   19.0780 C.cat 222  ARG222      0.5346
    186  NH1       -9.0750    1.0840   19.2110 N.pl3 222  ARG222      0.1354
    187  NH2       -7.3450    2.5650   19.5060 N.pl3 222  ARG222      0.1354
    188  N        -14.6220   -5.7030   17.4830 N.3   327  LYS327     -0.1245
    189  CA       -14.7700   -4.2470   17.4210 C.3   327  LYS327      0.1561
    190  C        -13.8950   -3.7000   16.2960 C.2   327  LYS327      0.2260
    191  O        -13.5220   -2.5260   16.2950 O.2   327  LYS327     -0.2867
    192  CB       -14.3630   -3.5880   18.7440 C.3   327  LYS327      0.0271
    193  CG       -15.1930   -3.9980   19.9470 C.3   327  LYS327      0.0035
    194  CD       -14.7540   -3.2240   21.1830 C.3   327  LYS327      0.0206
    195  CE       -15.5600   -3.6160   22.4090 C.3   327  LYS327      0.1093
    196  NZ       -15.1430   -2.8360   23.6100 N.3   327  LYS327     -0.1314
@<TRIPOS>BOND
     1   104   105    2
     2   104   103    1
     3   124   123    2
     4    98    97    2
     5   100   101    1
     6   100    99    1
     7   125   126    1
     8   125   122    1
     9   123   122    1
    10    93    92    1
    11   126   127    1
    12   101    95    1
    13   128   127    2
    14   103   102    1
    15   103   106    1
    16    97   102   am
    17    97    96    1
    18    99    96    1
    19   122   121    1
    20   127   129   am
    21   108   106    1
    22   112   111    2
    23    94    92    1
    24    95    96    1
    25    95    90   am
    26   177   178    1
    27    92    89    1
    28   121   119   am
    29   106   107    1
    30   178   181    1
    31   178   179    1
    32   191   190    2
    33   190   189    1
    34    89    90    1
    35    89    88    1
    36    90    91    2
    37   111   110    1
    38   181   182    1
    39    79    78    2
    40   119   120    2
    41   119   118    1
    42   117   118    1
    43   179   180    2
    44   189   188    1
    45   189   192    1
    46   182   183    1
    47   109   110    1
    48    88    78   am
    49    78    77    1
    50   110   113    1
    51   113   114    1
    52   183   184    1
    53   184   185    2
    54    74    73    1
    55   192   193    1
    56    75    73    1
    57   114   116   ar
    58   114   115   ar
    59    73    70    1
    60    83    85   ar
    61    83    81   ar
    62   185   186    1
    63   185   187    1
    64    85    86   ar
    65    77    76    1
    66    77    80    1
    67    76    71   am
    68    80    81    1
    69    34    33    1
    70    81    82   ar
    71     2     1    1
    72     2     3    1
    73   193   194    1
    74    70    71    1
    75    70    69    1
    76    71    72    2
    77    86    87    1
    78    86    84   ar
    79    35    33    1
    80    27    28    1
    81    27    26    1
    82    33    30    1
    83     3     5   am
    84     3     4    2
    85     5     6    1
    86    82    84   ar
    87   194   195    1
    88    69    62   am
    89     9     6    1
    90    26    25    1
    91     6     7    1
    92    30    29    1
    93    30    31    1
    94   195   196    1
    95    62    63    2
    96    62    61    1
    97    29    22   am
    98    57    58    1
    99    57    54    1
   100    24    25    1
   101    24    21    1
   102    31    32    2
   103    31    36   am
   104    58    59    1
   105    60    61    1
   106    60    55   am
   107    22    21    1
   108    22    23    2
   109     7    10   am
   110     7     8    2
   111    54    55    1
   112    54    53    1
   113    61    64    1
   114    10    11    1
   115    21    20    1
   116    55    56    2
   117    64    65    1
   118    36    37    1
   119    20    18   am
   120    59    53    1
   121    15    14    1
   122    53    44   am
   123    41    40    1
   124    16    17    1
   125    16    12   am
   126    37    40    1
   127    37    38    1
   128    11    14    1
   129    11    12    1
   130    18    17    1
   131    18    19    2
   132    65    66    1
   133    12    13    2
   134    45    44    2
   135    44    43    1
   136    38    39    2
   137    66    67   ar
   138    66    68   ar
   139   146   145    1
   140    43    42    1
   141    43    46    1
   142   145   144    1
   143    51    49   ar
   144    51    52   ar
   145   137   135   am
   146    49    47   ar
   147    52    50   ar
   148    47    46    1
   149    47    48   ar
   150    50    48   ar
   151   135   136    2
   152   135   134    1
   153   144   143    1
   154   167   164    1
   155   134   131    1
   156   143   142    1
   157   176   175    1
   158   164   165    1
   159   164   163    1
   160   131   130    1
   161   131   132    1
   162   166   165    2
   163   165   168   am
   164   142   139    1
   165   175   174    1
   166   168   169    1
   167   132   138   am
   168   132   133    2
   169   138   139    1
   170   161   160    1
   171   169   172    1
   172   169   170    1
   173   173   172    1
   174   173   174    1
   175   139   140    1
   176   170   171    2
   177   160   162    1
   178   160   159    1
   179   140   141    2
   180   153   152   ar
   181   154   152   ar
   182   159   156    1
   183   152   151    1
   184   156   155    1
   185   156   157    1
   186   155   149   am
   187   151   148    1
   188   147   148    1
   189   157   158    2
   190   149   148    1
   191   149   150    2
