@<TRIPOS>MOLECULE
tmp/5c2vD01.pdb
 218 209 0 0 0
SMALL
GASTEIGER

@<TRIPOS>ATOM
      1  N         10.3770 -149.2080   -6.2390 N.3   643  LEU643     -0.1245
      2  CA         8.9490 -149.4820   -6.3780 C.3   643  LEU643      0.1561
      3  C          8.6910 -150.8250   -7.0580 C.2   643  LEU643      0.2260
      4  O          7.7910 -151.5650   -6.6690 O.2   643  LEU643     -0.2867
      5  CB         8.2610 -148.3600   -7.1570 C.3   643  LEU643      0.0270
      6  CG         8.2480 -146.9890   -6.4810 C.3   643  LEU643      0.0019
      7  CD1        7.4700 -145.9860   -7.3170 C.3   643  LEU643      0.0001
      8  CD2        7.6690 -147.0910   -5.0780 C.3   643  LEU643      0.0001
      9  N          9.9750 -153.6930   -4.2450 N.3   646  LYS646     -0.1231
     10  CA         9.2670 -153.8520   -2.9710 C.3   646  LYS646      0.1693
     11  C          7.7590 -153.5730   -2.9810 C.2   646  LYS646      0.2592
     12  O          7.0930 -153.7650   -1.9640 O.2   646  LYS646     -0.2718
     13  CB         9.9120 -152.9490   -1.9200 C.3   646  LYS646      0.0285
     14  CG        11.4140 -153.1070   -1.7960 C.3   646  LYS646      0.0035
     15  CD        11.7890 -154.5120   -1.3670 C.3   646  LYS646      0.0206
     16  CE        13.2680 -154.5990   -1.0350 C.3   646  LYS646      0.1093
     17  NZ        13.6520 -153.6040    0.0050 N.3   646  LYS646     -0.1314
     18  N          7.2160 -153.1310   -4.1100 N.am  647  CYS647     -0.1970
     19  CA         5.8640 -152.5670   -4.1130 C.3   647  CYS647      0.1712
     20  C          4.9240 -153.1980   -5.1380 C.2   647  CYS647      0.2296
     21  O          3.8750 -153.7320   -4.7770 O.2   647  CYS647     -0.2864
     22  CB         5.9250 -151.0550   -4.3370 C.3   647  CYS647      0.0983
     23  SG         6.8150 -150.1480   -3.0530 S.3   647  CYS647     -0.0798
     24  N          4.2730 -155.6990   -6.6560 N.3   649  MET649     -0.1230
     25  CA         3.6800 -157.0220   -6.4910 C.3   649  MET649      0.1702
     26  C          2.2360 -156.9570   -5.9770 C.2   649  MET649      0.2592
     27  O          1.3530 -157.6180   -6.5260 O.2   649  MET649     -0.2718
     28  CB         4.5430 -157.8810   -5.5560 C.3   649  MET649      0.0401
     29  CG         4.7550 -157.3110   -4.1590 C.3   649  MET649      0.0596
     30  SD         5.9220 -158.2650   -3.1700 S.3   649  MET649     -0.1393
     31  CE         7.4460 -157.9550   -4.0580 C.3   649  MET649      0.0692
     32  N          1.9940 -156.1710   -4.9320 N.am  650  CYS650     -0.1956
     33  CA         0.6500 -156.0510   -4.3770 C.3   650  CYS650      0.1843
     34  C         -0.1240 -154.8520   -4.9150 C.2   650  CYS650      0.2625
     35  O         -1.3160 -154.7110   -4.6420 O.2   650  CYS650     -0.2714
     36  CB         0.7090 -155.9660   -2.8510 C.3   650  CYS650      0.0997
     37  SG         1.3580 -157.4340   -2.0280 S.3   650  CYS650     -0.0797
     38  N          0.5370 -153.9930   -5.6830 N.am  651  HIS651     -0.1973
     39  CA        -0.1590 -152.8380   -6.2320 C.3   651  HIS651      0.1656
     40  C         -0.2770 -152.9180   -7.7470 C.2   651  HIS651      0.2291
     41  O          0.6890 -152.7180   -8.4840 O.2   651  HIS651     -0.2864
     42  CB         0.5360 -151.5410   -5.8120 C.3   651  HIS651      0.0771
     43  CG         0.3510 -151.2040   -4.3660 C.ar  651  HIS651      0.0820
     44  ND1       -0.5240 -150.2300   -3.9340 N.ar  651  HIS651     -0.2267
     45  CD2        0.9200 -151.7190   -3.2500 C.ar  651  HIS651      0.1154
     46  CE1       -0.4820 -150.1580   -2.6140 C.ar  651  HIS651      0.1986
     47  NE2        0.3860 -151.0500   -2.1770 N.ar  651  HIS651     -0.2212
     48  N         -5.5660 -152.4940   -6.8520 N.3   655  ASN655     -0.1226
     49  CA        -5.1760 -152.0360   -5.5200 C.3   655  ASN655      0.1770
     50  C         -4.3920 -150.7270   -5.5580 C.2   655  ASN655      0.2439
     51  O         -3.1610 -150.7410   -5.5660 O.2   655  ASN655     -0.2733
     52  CB        -4.3580 -153.1090   -4.7990 C.3   655  ASN655      0.1168
     53  CG        -4.0940 -152.7610   -3.3440 C.2   655  ASN655      0.2627
     54  OD1       -4.7790 -151.9210   -2.7600 O.2   655  ASN655     -0.2716
     55  ND2       -3.0970 -153.4080   -2.7520 N.am  655  ASN655     -0.0877
     56  N         -5.1060 -149.5900   -5.5860 N.am  656  PRO656     -0.2718
     57  CA        -4.4900 -148.2600   -5.6580 C.3   656  PRO656      0.1520
     58  C         -3.5550 -147.9730   -4.4830 C.2   656  PRO656      0.2440
     59  O         -3.8080 -148.4510   -3.3770 O.2   656  PRO656     -0.2731
     60  CB        -5.6950 -147.3130   -5.6370 C.3   656  PRO656      0.0310
     61  CG        -6.7780 -148.0950   -4.9810 C.3   656  PRO656      0.0237
     62  CD        -6.5690 -149.5070   -5.4370 C.3   656  PRO656      0.0939
     63  N         -2.4760 -147.2070   -4.7240 N.am  657  PRO657     -0.2727
     64  CA        -2.1040 -146.6590   -6.0330 C.3   657  PRO657      0.1402
     65  C         -1.4930 -147.7260   -6.9360 C.2   657  PRO657      0.2269
     66  O         -0.9910 -148.7270   -6.4260 O.2   657  PRO657     -0.2865
     67  CB        -1.0760 -145.5850   -5.6790 C.3   657  PRO657      0.0296
     68  CG        -0.4310 -146.1030   -4.4420 C.3   657  PRO657      0.0237
     69  CD        -1.5170 -146.8150   -3.6740 C.3   657  PRO657      0.0939
     70  N          1.2870 -149.1470   -8.8860 N.3   659  LEU659     -0.1245
     71  CA         2.7340 -148.9890   -8.9670 C.3   659  LEU659      0.1561
     72  C          3.3870 -149.8940  -10.0110 C.2   659  LEU659      0.2260
     73  O          4.6040 -149.8680  -10.1860 O.2   659  LEU659     -0.2867
     74  CB         3.3520 -149.2270   -7.5900 C.3   659  LEU659      0.0270
     75  CG         2.7510 -148.3320   -6.5010 C.3   659  LEU659      0.0019
     76  CD1        3.4020 -148.5790   -5.1510 C.3   659  LEU659      0.0001
     77  CD2        2.8570 -146.8640   -6.8930 C.3   659  LEU659      0.0001
     78  N          1.2920 -141.6820   -8.0980 N.3   681  LEU681     -0.1245
     79  CA         1.7450 -141.0130   -6.8820 C.3   681  LEU681      0.1561
     80  C          1.5540 -139.4960   -6.9160 C.2   681  LEU681      0.2260
     81  O          1.4120 -138.8620   -5.8720 O.2   681  LEU681     -0.2867
     82  CB         3.2160 -141.3450   -6.6230 C.3   681  LEU681      0.0270
     83  CG         3.4920 -142.8000   -6.2350 C.3   681  LEU681      0.0019
     84  CD1        4.9830 -143.0980   -6.2530 C.3   681  LEU681      0.0001
     85  CD2        2.8950 -143.1050   -4.8690 C.3   681  LEU681      0.0001
     86  N         -1.1890 -138.9530   -2.5520 N.3   696  TYR696     -0.1241
     87  CA        -0.0560 -139.5470   -1.8460 C.3   696  TYR696      0.1605
     88  C          1.1960 -138.6780   -1.6960 C.2   696  TYR696      0.2264
     89  O          2.1290 -139.0680   -0.9960 O.2   696  TYR696     -0.2867
     90  CB         0.3370 -140.8500   -2.5440 C.3   696  TYR696      0.0534
     91  CG        -0.8290 -141.7810   -2.7570 C.ar  696  TYR696     -0.0201
     92  CD1       -1.2570 -142.6290   -1.7470 C.ar  696  TYR696     -0.0009
     93  CD2       -1.5120 -141.8040   -3.9660 C.ar  696  TYR696     -0.0009
     94  CE1       -2.3270 -143.4780   -1.9350 C.ar  696  TYR696      0.0417
     95  CE2       -2.5830 -142.6490   -4.1640 C.ar  696  TYR696      0.0417
     96  CZ        -2.9860 -143.4850   -3.1450 C.ar  696  TYR696      0.1957
     97  OH        -4.0530 -144.3300   -3.3360 O.3   696  TYR696     -0.2866
     98  N          1.0160 -138.3810    2.5280 N.3   706  LEU706     -0.1231
     99  CA         0.3340 -139.5920    2.9780 C.3   706  LEU706      0.1693
    100  C          1.1950 -140.8310    2.7510 C.2   706  LEU706      0.2591
    101  O          1.1970 -141.7540    3.5680 O.2   706  LEU706     -0.2718
    102  CB        -1.0140 -139.7400    2.2620 C.3   706  LEU706      0.0284
    103  CG        -2.0270 -140.7640    2.7870 C.3   706  LEU706      0.0019
    104  CD1       -3.4420 -140.2890    2.5030 C.3   706  LEU706      0.0001
    105  CD2       -1.8080 -142.1410    2.1740 C.3   706  LEU706      0.0001
    106  N          1.9190 -140.8440    1.6360 N.am  707  LEU707     -0.1980
    107  CA         2.8200 -141.9440    1.3130 C.3   707  LEU707      0.1596
    108  C          3.8530 -142.1420    2.4150 C.2   707  LEU707      0.2287
    109  O          4.0990 -143.2640    2.8580 O.2   707  LEU707     -0.2864
    110  CB         3.5210 -141.6890   -0.0220 C.3   707  LEU707      0.0297
    111  CG         4.5910 -142.6990   -0.4320 C.3   707  LEU707      0.0022
    112  CD1        3.9800 -144.0800   -0.5650 C.3   707  LEU707      0.0001
    113  CD2        5.2650 -142.2770   -1.7300 C.3   707  LEU707      0.0001
    114  N          2.3860 -143.3890    5.6600 N.3   710  ARG710     -0.1231
    115  CA         2.1760 -144.8320    5.6470 C.3   710  ARG710      0.1694
    116  C          3.4870 -145.6050    5.7330 C.2   710  ARG710      0.2591
    117  O          3.5600 -146.6410    6.3930 O.2   710  ARG710     -0.2718
    118  CB         1.4060 -145.2500    4.3930 C.3   710  ARG710      0.0321
    119  CG        -0.0380 -144.7770    4.3710 C.3   710  ARG710      0.0489
    120  CD        -0.7400 -145.1140    5.6770 C.3   710  ARG710      0.2205
    121  NE        -0.6350 -146.5320    6.0090 N.pl3 710  ARG710     -0.0865
    122  CZ        -1.4870 -147.4620    5.5920 C.cat 710  ARG710      0.5346
    123  NH1       -2.5120 -147.1250    4.8220 N.pl3 710  ARG710      0.1354
    124  NH2       -1.3130 -148.7290    5.9430 N.pl3 710  ARG710      0.1354
    125  N          4.5190 -145.1030    5.0630 N.am  711  LEU711     -0.1980
    126  CA         5.8190 -145.7610    5.0800 C.3   711  LEU711      0.1596
    127  C          6.4410 -145.7320    6.4750 C.2   711  LEU711      0.2287
    128  O          7.2220 -146.6130    6.8270 O.2   711  LEU711     -0.2864
    129  CB         6.7640 -145.1170    4.0630 C.3   711  LEU711      0.0297
    130  CG         6.4890 -145.4700    2.5990 C.3   711  LEU711      0.0022
    131  CD1        7.3590 -144.6440    1.6660 C.3   711  LEU711      0.0001
    132  CD2        6.7030 -146.9570    2.3580 C.3   711  LEU711      0.0001
    133  N         -5.6500 -136.2540    4.6590 N.3   722  ARG722     -0.1245
    134  CA        -7.0840 -136.4520    4.4730 C.3   722  ARG722      0.1563
    135  C         -7.7600 -136.9260    5.7580 C.2   722  ARG722      0.2260
    136  O         -7.1010 -137.1320    6.7780 O.2   722  ARG722     -0.2867
    137  CB        -7.3440 -137.4470    3.3400 C.3   722  ARG722      0.0307
    138  CG        -6.9790 -138.8780    3.6720 C.3   722  ARG722      0.0489
    139  CD        -7.1110 -139.7820    2.4560 C.3   722  ARG722      0.2205
    140  NE        -6.9990 -141.1910    2.8260 N.pl3 722  ARG722     -0.0865
    141  CZ        -6.6490 -142.1630    1.9910 C.cat 722  ARG722      0.5346
    142  NH1       -6.3670 -141.8850    0.7260 N.pl3 722  ARG722      0.1354
    143  NH2       -6.5760 -143.4140    2.4240 N.pl3 722  ARG722      0.1354
    144  N         -7.2510 -141.8760    6.9530 N.3   725  ILE725     -0.1245
    145  CA        -5.8630 -142.1670    6.6180 C.3   725  ILE725      0.1561
    146  C         -5.5450 -143.6390    6.8430 C.2   725  ILE725      0.2260
    147  O         -5.2220 -144.3650    5.9030 O.2   725  ILE725     -0.2867
    148  CB        -4.8910 -141.2980    7.4370 C.3   725  ILE725      0.0252
    149  CG1       -5.1890 -139.8150    7.2100 C.3   725  ILE725      0.0019
    150  CG2       -3.4500 -141.6150    7.0660 C.3   725  ILE725      0.0019
    151  CD1       -4.2730 -138.8820    7.9650 C.3   725  ILE725      0.0001
    152  N         -6.7900 -147.2560    7.6440 N.3   727  PRO727     -0.2116
    153  CA        -7.9540 -148.1480    7.6260 C.3   727  PRO727      0.1372
    154  C         -8.0840 -148.9480    8.9170 C.2   727  PRO727      0.2244
    155  O         -7.0830 -149.4440    9.4340 O.2   727  PRO727     -0.2868
    156  CB        -7.6700 -149.0780    6.4410 C.3   727  PRO727      0.0268
    157  CG        -6.7130 -148.3250    5.5850 C.3   727  PRO727      0.0207
    158  CD        -5.8650 -147.5390    6.5330 C.3   727  PRO727      0.0892
    159  N         -8.6430 -154.4950    7.5130 N.3   730  GLY730     -0.1210
    160  CA        -7.7700 -155.0080    6.4740 C.3   730  GLY730      0.1956
    161  C         -6.5020 -154.1970    6.3020 C.2   730  GLY730      0.2612
    162  O         -5.9010 -154.1900    5.2280 O.2   730  GLY730     -0.2717
    163  N         -6.0910 -153.5110    7.3650 N.am  731  ARG731     -0.1965
    164  CA        -4.8860 -152.6920    7.3250 C.3   731  ARG731      0.1729
    165  C         -3.6390 -153.5650    7.2220 C.2   731  ARG731      0.2616
    166  O         -3.6180 -154.6940    7.7090 O.2   731  ARG731     -0.2715
    167  CB        -4.8040 -151.7930    8.5630 C.3   731  ARG731      0.0348
    168  CG        -3.6660 -150.7830    8.5230 C.3   731  ARG731      0.0492
    169  CD        -3.5900 -149.9610    9.7970 C.3   731  ARG731      0.2205
    170  NE        -2.4380 -149.0650    9.7880 N.pl3 731  ARG731     -0.0865
    171  CZ        -2.1280 -148.2330   10.7770 C.cat 731  ARG731      0.5346
    172  NH1       -2.8870 -148.1770   11.8630 N.pl3 731  ARG731      0.1354
    173  NH2       -1.0580 -147.4560   10.6820 N.pl3 731  ARG731      0.1354
    174  N         -2.6070 -153.0370    6.5730 N.am  732  LEU732     -0.1977
    175  CA        -1.3340 -153.7320    6.4480 C.3   732  LEU732      0.1596
    176  C         -0.1890 -152.7780    6.7700 C.2   732  LEU732      0.2287
    177  O         -0.0880 -151.7040    6.1780 O.2   732  LEU732     -0.2864
    178  CB        -1.1750 -154.3070    5.0400 C.3   732  LEU732      0.0297
    179  CG        -0.0430 -155.3100    4.8230 C.3   732  LEU732      0.0022
    180  CD1       -0.2370 -156.5350    5.7000 C.3   732  LEU732      0.0001
    181  CD2        0.0250 -155.7040    3.3630 C.3   732  LEU732      0.0001
    182  N          3.0850 -150.9760    6.5880 N.3   734  HIS734     -0.1241
    183  CA         4.0160 -150.7320    5.4900 C.3   734  HIS734      0.1621
    184  C          5.4120 -150.2820    5.9220 C.2   734  HIS734      0.2264
    185  O          6.2670 -150.0250    5.0760 O.2   734  HIS734     -0.2867
    186  CB         3.4250 -149.6930    4.5350 C.3   734  HIS734      0.0745
    187  CG         2.3660 -150.2420    3.6310 C.ar  734  HIS734      0.0817
    188  ND1        1.2590 -150.9130    4.1040 N.ar  734  HIS734     -0.2268
    189  CD2        2.2520 -150.2300    2.2820 C.ar  734  HIS734      0.1154
    190  CE1        0.5060 -151.2860    3.0850 C.ar  734  HIS734      0.1986
    191  NE2        1.0860 -150.8860    1.9680 N.ar  734  HIS734     -0.2212
    192  N          8.5730 -152.7090    4.9840 N.3   737  PHE737     -0.1227
    193  CA         8.7710 -153.1160    3.5920 C.3   737  PHE737      0.1736
    194  C         10.0880 -152.6110    3.0040 C.2   737  PHE737      0.2595
    195  O         10.6870 -153.2700    2.1540 O.2   737  PHE737     -0.2718
    196  CB         7.6100 -152.6300    2.7210 C.3   737  PHE737      0.0547
    197  CG         6.3530 -153.4330    2.8820 C.ar  737  PHE737     -0.0202
    198  CD1        6.4120 -154.7950    3.1270 C.ar  737  PHE737     -0.0042
    199  CD2        5.1120 -152.8280    2.7840 C.ar  737  PHE737     -0.0042
    200  CE1        5.2570 -155.5380    3.2750 C.ar  737  PHE737     -0.0003
    201  CE2        3.9520 -153.5650    2.9310 C.ar  737  PHE737     -0.0003
    202  CZ         4.0250 -154.9220    3.1770 C.ar  737  PHE737     -0.0000
    203  N         10.5310 -151.4430    3.4560 N.am  738  LEU738     -0.1980
    204  CA        11.7280 -150.8130    2.9080 C.3   738  LEU738      0.1596
    205  C         12.8460 -150.7230    3.9350 C.2   738  LEU738      0.2287
    206  O         12.5940 -150.7160    5.1400 O.2   738  LEU738     -0.2864
    207  CB        11.4070 -149.4080    2.3910 C.3   738  LEU738      0.0297
    208  CG        10.3690 -149.2600    1.2800 C.3   738  LEU738      0.0022
    209  CD1       10.1660 -147.7920    0.9360 C.3   738  LEU738      0.0001
    210  CD2       10.7940 -150.0410    0.0530 C.3   738  LEU738      0.0001
    211  N         13.0220 -142.0370   -0.9190 N.3   746  ILE746     -0.1245
    212  CA        11.6960 -141.5250   -1.2560 C.3   746  ILE746      0.1561
    213  C         11.4490 -140.1750   -0.5770 C.2   746  ILE746      0.2260
    214  O         10.9480 -139.2340   -1.2050 O.2   746  ILE746     -0.2867
    215  CB        10.5880 -142.5180   -0.8540 C.3   746  ILE746      0.0252
    216  CG1       10.7580 -143.8360   -1.6110 C.3   746  ILE746      0.0019
    217  CG2        9.2130 -141.9260   -1.1240 C.3   746  ILE746      0.0019
    218  CD1        9.6990 -144.8660   -1.2900 C.3   746  ILE746      0.0001
@<TRIPOS>BOND
     1    73    72    2
     2    72    71    1
     3    71    70    1
     4    71    74    1
     5    41    40    2
     6    78    79    1
     7    40    39    1
     8    74    75    1
     9     7     6    1
    10     5     6    1
    11     5     2    1
    12     3     4    2
    13     3     2    1
    14    65    66    2
    15    65    64    1
    16    80    79    1
    17    80    81    2
    18    77    75    1
    19    79    82    1
    20    48    49    1
    21    24    25    1
    22    82    83    1
    23    27    26    2
    24    75    76    1
    25    25    26    1
    26    25    28    1
    27     6     8    1
    28     2     1    1
    29    84    83    1
    30    83    85    1
    31    39    42    1
    32    39    38    1
    33    64    67    1
    34    64    63    1
    35    26    32   am
    36    42    43    1
    37    38    34   am
    38    67    68    1
    39    57    60    1
    40    57    56    1
    41    57    58    1
    42    60    61    1
    43    56    50   am
    44    56    62    1
    45    51    50    2
    46    50    49    1
    47    28    29    1
    48    49    52    1
    49    62    61    1
    50    20    21    2
    51    20    19    1
    52    32    33    1
    53    34    35    2
    54    34    33    1
    55    52    53    1
    56    63    58   am
    57    63    69    1
    58    58    59    2
    59    68    69    1
    60    33    36    1
    61    43    44   ar
    62    43    45   ar
    63    22    19    1
    64    22    23    1
    65     9    10    1
    66    95    93   ar
    67    95    96   ar
    68    29    30    1
    69    19    18    1
    70    18    11   am
    71    31    30    1
    72    93    91   ar
    73    44    46   ar
    74    53    54    2
    75    53    55   am
    76    97    96    1
    77    45    47   ar
    78    96    94   ar
    79    11    10    1
    80    11    12    2
    81    10    13    1
    82    36    37    1
    83    91    90    1
    84    91    92   ar
    85    46    47   ar
    86    86    87    1
    87    90    87    1
    88    94    92   ar
    89    13    14    1
    90    87    88    1
    91    14    15    1
    92   113   111    1
    93    88    89    2
    94   216   218    1
    95   216   215    1
    96    15    16    1
    97   212   211    1
    98   212   215    1
    99   212   213    1
   100   214   213    2
   101   217   215    1
   102    16    17    1
   103   112   111    1
   104   111   110    1
   105   110   107    1
   106   210   208    1
   107   142   141    1
   108   209   208    1
   109   208   207    1
   110   107   106    1
   111   107   108    1
   112   106   100   am
   113   131   130    1
   114   191   189   ar
   115   191   190   ar
   116   141   143    1
   117   141   140    2
   118   195   194    2
   119   105   103    1
   120   102   103    1
   121   102    99    1
   122   189   187   ar
   123   132   130    1
   124   207   204    1
   125   108   109    2
   126   139   140    1
   127   139   138    1
   128   104   103    1
   129    98    99    1
   130   130   129    1
   131   196   197    1
   132   196   193    1
   133   100    99    1
   134   100   101    2
   135   199   197   ar
   136   199   201   ar
   137   197   198   ar
   138   204   203    1
   139   204   205    1
   140   201   202   ar
   141   194   203   am
   142   194   193    1
   143   190   188   ar
   144   198   200   ar
   145   202   200   ar
   146   137   138    1
   147   137   134    1
   148   181   179    1
   149   193   192    1
   150   187   188   ar
   151   187   186    1
   152   205   206    2
   153   129   126    1
   154   119   118    1
   155   119   120    1
   156   118   115    1
   157   134   133    1
   158   134   135    1
   159   186   183    1
   160   123   122    1
   161   179   178    1
   162   179   180    1
   163   178   175    1
   164   125   126    1
   165   125   116   am
   166   185   184    2
   167   126   127    1
   168   162   161    2
   169   183   184    1
   170   183   182    1
   171   157   156    1
   172   157   158    1
   173   122   124    1
   174   122   121    2
   175   115   114    1
   176   115   116    1
   177   120   121    1
   178   116   117    2
   179   135   136    2
   180   147   146    2
   181   177   176    2
   182   161   160    1
   183   161   163   am
   184   156   153    1
   185   175   174    1
   186   175   176    1
   187   160   159    1
   188   127   128    2
   189   158   152    1
   190   174   165   am
   191   145   146    1
   192   145   144    1
   193   145   148    1
   194   150   148    1
   195   149   148    1
   196   149   151    1
   197   165   164    1
   198   165   166    2
   199   164   163    1
   200   164   167    1
   201   153   152    1
   202   153   154    1
   203   168   167    1
   204   168   169    1
   205   154   155    2
   206   170   169    1
   207   170   171    2
   208   173   171    1
   209   171   172    1
