@<TRIPOS>MOLECULE
tmp/5c2vD02.pdb
 82 79 0 0 0
SMALL
GASTEIGER

@<TRIPOS>ATOM
      1  N         12.7190 -102.1350  -34.2330 N.3    56  GLY56      -0.1210
      2  CA        12.3820 -100.9790  -35.0420 C.3    56  GLY56       0.1956
      3  C         12.1960  -99.7100  -34.2310 C.2    56  GLY56       0.2613
      4  O         11.5320  -98.7750  -34.6760 O.2    56  GLY56      -0.2717
      5  N         12.7890  -99.6730  -33.0410 N.am   57  SER57      -0.1938
      6  CA        12.6520  -98.5200  -32.1560 C.3    57  SER57       0.2055
      7  C         13.8890  -97.6360  -32.1710 C.2    57  SER57       0.2642
      8  O         15.0110  -98.1190  -32.3270 O.2    57  SER57      -0.2714
      9  CB        12.3640  -98.9680  -30.7260 C.3    57  SER57       0.2130
     10  OG        11.2120  -99.7860  -30.6860 O.3    57  SER57      -0.2179
     11  N         13.6760  -96.3360  -32.0050 N.am   58  ARG58      -0.1977
     12  CA        14.7750  -95.3800  -32.0390 C.3    58  ARG58       0.1597
     13  C         14.8340  -94.5410  -30.7660 C.2    58  ARG58       0.2287
     14  O         13.8100  -94.2710  -30.1410 O.2    58  ARG58      -0.2864
     15  CB        14.6440  -94.4700  -33.2610 C.3    58  ARG58       0.0334
     16  CG        13.4080  -93.5860  -33.2370 C.3    58  ARG58       0.0492
     17  CD        13.1670  -92.9300  -34.5830 C.3    58  ARG58       0.2205
     18  NE        12.1610  -91.8760  -34.5000 N.pl3  58  ARG58      -0.0865
     19  CZ        11.6760  -91.2220  -35.5500 C.cat  58  ARG58       0.5346
     20  NH1       12.1000  -91.5190  -36.7710 N.pl3  58  ARG58       0.1354
     21  NH2       10.7640  -90.2740  -35.3810 N.pl3  58  ARG58       0.1354
     22  N         17.1400  -87.7240  -34.1240 N.3    71  VAL71      -0.1245
     23  CA        17.3840  -89.1560  -33.9680 C.3    71  VAL71       0.1561
     24  C         18.8780  -89.4650  -33.8750 C.2    71  VAL71       0.2260
     25  O         19.6220  -89.2690  -34.8350 O.2    71  VAL71      -0.2867
     26  CB        16.7880  -89.9660  -35.1370 C.3    71  VAL71       0.0252
     27  CG1       17.1240  -91.4420  -34.9860 C.3    71  VAL71       0.0019
     28  CG2       15.2830  -89.7590  -35.2210 C.3    71  VAL71       0.0019
     29  N         20.1540  -92.5900  -32.8950 N.3    73  THR73      -0.1203
     30  CA        20.4180  -94.0210  -33.0550 C.3    73  THR73       0.1994
     31  C         20.2690  -94.5550  -34.4790 C.2    73  THR73       0.2617
     32  O         20.2250  -95.7690  -34.6780 O.2    73  THR73      -0.2717
     33  CB        19.5270  -94.8520  -32.1230 C.3    73  THR73       0.1784
     34  OG1       18.1670  -94.4170  -32.2390 O.3    73  THR73      -0.2211
     35  CG2       19.9920  -94.6850  -30.6850 C.3    73  THR73       0.0376
     36  N         20.1730  -93.6560  -35.4560 N.am   74  ASN74      -0.1974
     37  CA        19.9090  -94.0200  -36.8520 C.3    74  ASN74       0.1688
     38  C         20.7930  -95.1500  -37.3940 C.2    74  ASN74       0.2292
     39  O         20.4320  -95.8080  -38.3690 O.2    74  ASN74      -0.2864
     40  CB        20.0820  -92.7890  -37.7490 C.3    74  ASN74       0.1181
     41  CG        18.7620  -92.2330  -38.2470 C.2    74  ASN74       0.2629
     42  OD1       17.7980  -92.9720  -38.4480 O.2    74  ASN74      -0.2716
     43  ND2       18.7150  -90.9220  -38.4570 N.am   74  ASN74      -0.0877
     44  N         21.3190  -97.7490  -35.6560 N.3    76  PHE76      -0.1227
     45  CA        20.7840  -98.9470  -35.0120 C.3    76  PHE76       0.1736
     46  C         19.3950  -99.3110  -35.5260 C.2    76  PHE76       0.2595
     47  O         18.5230  -98.4510  -35.6460 O.2    76  PHE76      -0.2718
     48  CB        20.7300  -98.7610  -33.4940 C.3    76  PHE76       0.0547
     49  CG        22.0800  -98.7010  -32.8400 C.ar   76  PHE76      -0.0202
     50  CD1       22.7140  -99.8610  -32.4280 C.ar   76  PHE76      -0.0042
     51  CD2       22.7100  -97.4870  -32.6290 C.ar   76  PHE76      -0.0042
     52  CE1       23.9560  -99.8120  -31.8230 C.ar   76  PHE76      -0.0003
     53  CE2       23.9520  -97.4300  -32.0240 C.ar   76  PHE76      -0.0003
     54  CZ        24.5750  -98.5950  -31.6210 C.ar   76  PHE76      -0.0000
     55  N         19.1930 -100.5920  -35.8180 N.am   77  ALA77      -0.1980
     56  CA        17.8800 -101.0860  -36.2120 C.3    77  ALA77       0.1597
     57  C         16.9270 -101.0300  -35.0230 C.2    77  ALA77       0.2287
     58  O         15.7630 -100.6550  -35.1600 O.2    77  ALA77      -0.2864
     59  CB        17.9800 -102.5040  -36.7530 C.3    77  ALA77       0.0319
     60  N         22.7330 -102.1660  -37.0160 N.3    98  LYS98      -0.1245
     61  CA        22.2450 -102.5350  -38.3420 C.3    98  LYS98       0.1561
     62  C         23.1630 -103.5520  -39.0140 C.2    98  LYS98       0.2260
     63  O         22.7660 -104.2290  -39.9620 O.2    98  LYS98      -0.2867
     64  CB        22.0990 -101.2950  -39.2280 C.3    98  LYS98       0.0271
     65  CG        20.8470 -100.4760  -38.9520 C.3    98  LYS98       0.0035
     66  CD        20.7120  -99.3210  -39.9330 C.3    98  LYS98       0.0206
     67  CE        19.4170  -98.5570  -39.7110 C.3    98  LYS98       0.1093
     68  NZ        19.2610  -97.4290  -40.6720 N.3    98  LYS98      -0.1314
     69  N          4.0320  -93.1430  -33.0580 N.3   377  TRP377     -0.1241
     70  CA         4.9970  -93.8100  -32.1890 C.3   377  TRP377      0.1605
     71  C          4.5060  -93.9810  -30.7540 C.2   377  TRP377      0.2264
     72  O          3.8430  -93.1080  -30.1960 O.2   377  TRP377     -0.2867
     73  CB         6.3210  -93.0360  -32.1640 C.3   377  TRP377      0.0550
     74  CG         7.0190  -92.9340  -33.4870 C.ar  377  TRP377      0.0003
     75  CD1        6.8720  -91.9460  -34.4170 C.ar  377  TRP377      0.0946
     76  CD2        7.9930  -93.8420  -34.0180 C.ar  377  TRP377      0.0152
     77  NE1        7.6850  -92.1870  -35.4970 N.ar  377  TRP377     -0.2442
     78  CE2        8.3840  -93.3450  -35.2770 C.ar  377  TRP377      0.0810
     79  CE3        8.5680  -95.0290  -33.5530 C.ar  377  TRP377      0.0012
     80  CZ2        9.3220  -93.9940  -36.0770 C.ar  377  TRP377      0.0191
     81  CZ3        9.5000  -95.6720  -34.3490 C.ar  377  TRP377      0.0001
     82  CH2        9.8680  -95.1520  -35.5970 C.ar  377  TRP377      0.0015
@<TRIPOS>BOND
     1    68    67    1
     2    63    62    2
     3    66    67    1
     4    66    65    1
     5    64    65    1
     6    64    61    1
     7    62    61    1
     8    43    41   am
     9    42    41    2
    10    39    38    2
    11    61    60    1
    12    41    40    1
    13    40    37    1
    14    38    37    1
    15    37    36    1
    16    20    19    1
    17    59    56    1
    18    56    55    1
    19    56    57    1
    20    80    82   ar
    21    80    78   ar
    22    55    46   am
    23    44    45    1
    24    47    46    2
    25    82    81   ar
    26    19    21    1
    27    19    18    2
    28    46    45    1
    29    77    78   ar
    30    77    75   ar
    31    36    31   am
    32    78    76   ar
    33    28    26    1
    34    58    57    2
    35    26    27    1
    36    26    23    1
    37     2     1    1
    38     2     3    1
    39    45    48    1
    40    25    24    2
    41    32    31    2
    42     4     3    2
    43    17    18    1
    44    17    16    1
    45    31    30    1
    46    75    74   ar
    47    81    79   ar
    48     3     5   am
    49    22    23    1
    50    76    79   ar
    51    76    74   ar
    52    23    24    1
    53    48    49    1
    54    74    73    1
    55    15    16    1
    56    15    12    1
    57    69    70    1
    58    30    29    1
    59    30    33    1
    60     5     6    1
    61    49    51   ar
    62    49    50   ar
    63    51    53   ar
    64    50    52   ar
    65     8     7    2
    66    34    33    1
    67    70    73    1
    68    70    71    1
    69     7     6    1
    70     7    11   am
    71     6     9    1
    72    33    35    1
    73    12    11    1
    74    12    13    1
    75    53    54   ar
    76    52    54   ar
    77    13    14    2
    78    71    72    2
    79     9    10    1
