@<TRIPOS>MOLECULE
tmp/5c2wF00.pdb
 244 238 0 0 0
SMALL
GASTEIGER

@<TRIPOS>ATOM
      1  N         34.0650  -87.7060   13.7950 N.3    50  PHE50      -0.1241
      2  CA        33.9560  -88.6220   14.9160 C.3    50  PHE50       0.1605
      3  C         32.5040  -88.7550   15.3700 C.2    50  PHE50       0.2264
      4  O         32.0360  -89.8550   15.6620 O.2    50  PHE50      -0.2867
      5  CB        34.8410  -88.1510   16.0690 C.3    50  PHE50       0.0534
      6  CG        34.9930  -89.1560   17.1690 C.ar   50  PHE50      -0.0203
      7  CD1       35.8700  -90.2200   17.0350 C.ar   50  PHE50      -0.0042
      8  CD2       34.2710  -89.0300   18.3440 C.ar   50  PHE50      -0.0042
      9  CE1       36.0180  -91.1450   18.0490 C.ar   50  PHE50      -0.0003
     10  CE2       34.4140  -89.9510   19.3620 C.ar   50  PHE50      -0.0003
     11  CZ        35.2890  -91.0090   19.2140 C.ar   50  PHE50      -0.0000
     12  N         24.9720  -95.4960   13.1550 N.3    61  TYR61      -0.1227
     13  CA        25.8460  -95.1020   14.2550 C.3    61  TYR61       0.1736
     14  C         27.1340  -94.4500   13.7640 C.2    61  TYR61       0.2596
     15  O         27.4990  -94.5720   12.5950 O.2    61  TYR61      -0.2718
     16  CB        26.1810  -96.3140   15.1260 C.3    61  TYR61       0.0548
     17  CG        26.8940  -97.4230   14.3870 C.ar   61  TYR61      -0.0200
     18  CD1       26.1810  -98.3980   13.7030 C.ar   61  TYR61      -0.0009
     19  CD2       28.2810  -97.5000   14.3780 C.ar   61  TYR61      -0.0009
     20  CE1       26.8260  -99.4140   13.0270 C.ar   61  TYR61       0.0417
     21  CE2       28.9360  -98.5150   13.7040 C.ar   61  TYR61       0.0417
     22  CZ        28.2020  -99.4690   13.0320 C.ar   61  TYR61       0.1957
     23  OH        28.8470 -100.4810   12.3600 O.3    61  TYR61      -0.2866
     24  N         27.8160  -93.7610   14.6720 N.am   62  SER62      -0.1938
     25  CA        29.0900  -93.1170   14.3700 C.3    62  SER62       0.2055
     26  C         30.2140  -93.7530   15.1800 C.2    62  SER62       0.2643
     27  O         29.9880  -94.7160   15.9130 O.2    62  SER62      -0.2714
     28  CB        29.0110  -91.6150   14.6570 C.3    62  SER62       0.2130
     29  OG        28.6470  -91.3690   16.0040 O.3    62  SER62      -0.2179
     30  N         31.4250  -93.2170   15.0450 N.am   63  CYS63      -0.1967
     31  CA        32.5410  -93.6370   15.8880 C.3    63  CYS63       0.1712
     32  C         32.2010  -93.3280   17.3370 C.2    63  CYS63       0.2296
     33  O         32.6870  -93.9780   18.2630 O.2    63  CYS63      -0.2864
     34  CB        33.8380  -92.9250   15.4960 C.3    63  CYS63       0.0983
     35  SG        34.1730  -92.8440   13.7280 S.3    63  CYS63      -0.0798
     36  N         30.6130  -96.2790   19.8680 N.3    66  CYS66      -0.1221
     37  CA        31.4990  -97.1510   20.6410 C.3    66  CYS66       0.1808
     38  C         32.4810  -96.4060   21.5670 C.2    66  CYS66       0.2601
     39  O         32.7630  -96.8570   22.6740 O.2    66  CYS66      -0.2717
     40  CB        32.2870  -98.0640   19.6930 C.3    66  CYS66       0.0970
     41  SG        31.3220  -99.3960   18.9270 S.3    66  CYS66      -0.0800
     42  N         33.0180  -95.2880   21.0840 N.am   67  HIS67      -0.1975
     43  CA        34.1560  -94.5820   21.6990 C.3    67  HIS67       0.1656
     44  C         33.8090  -93.3690   22.6150 C.2    67  HIS67       0.2291
     45  O         34.6730  -92.5460   22.9180 O.2    67  HIS67      -0.2864
     46  CB        35.1360  -94.1710   20.5970 C.3    67  HIS67       0.0771
     47  CG        35.9260  -95.3190   20.0390 C.ar   67  HIS67       0.0820
     48  ND1       36.8160  -96.0490   20.7980 N.ar   67  HIS67      -0.2267
     49  CD2       35.9510  -95.8700   18.8020 C.ar   67  HIS67       0.1154
     50  CE1       37.3590  -96.9950   20.0520 C.ar   67  HIS67       0.1986
     51  NE2       36.8520  -96.9070   18.8350 N.ar   67  HIS67      -0.2212
     52  N         32.8690 -106.1460   21.2160 N.3    78  TRP78      -0.1241
     53  CA        32.3860 -106.4920   19.8840 C.3    78  TRP78       0.1605
     54  C         33.1410 -107.6560   19.2510 C.2    78  TRP78       0.2264
     55  O         34.2470 -107.9990   19.6690 O.2    78  TRP78      -0.2867
     56  CB        32.4660 -105.2740   18.9620 C.3    78  TRP78       0.0550
     57  CG        31.6570 -104.1070   19.4320 C.ar   78  TRP78       0.0003
     58  CD1       32.0930 -103.0570   20.1880 C.ar   78  TRP78       0.0946
     59  CD2       30.2680 -103.8670   19.1770 C.ar   78  TRP78       0.0152
     60  NE1       31.0620 -102.1790   20.4180 N.ar   78  TRP78      -0.2442
     61  CE2       29.9310 -102.6530   19.8080 C.ar   78  TRP78       0.0810
     62  CE3       29.2780 -104.5610   18.4760 C.ar   78  TRP78       0.0012
     63  CZ2       28.6460 -102.1190   19.7600 C.ar   78  TRP78       0.0191
     64  CZ3       28.0030 -104.0280   18.4280 C.ar   78  TRP78       0.0001
     65  CH2       27.6980 -102.8190   19.0660 C.ar   78  TRP78       0.0015
     66  N         34.6100 -108.5590   15.6480 N.3    80  LEU80      -0.1245
     67  CA        34.9010 -107.9810   14.3390 C.3    80  LEU80       0.1561
     68  C         35.2260 -109.0610   13.3090 C.2    80  LEU80       0.2260
     69  O         35.3410 -110.2380   13.6520 O.2    80  LEU80      -0.2867
     70  CB        36.0570 -106.9860   14.4490 C.3    80  LEU80       0.0270
     71  CG        35.8790 -105.8890   15.5020 C.3    80  LEU80       0.0019
     72  CD1       37.1070 -104.9980   15.5680 C.3    80  LEU80       0.0001
     73  CD2       34.6310 -105.0670   15.2180 C.3    80  LEU80       0.0001
     74  N         36.5000 -108.4270   21.4550 N.3    89  LYS89      -0.1231
     75  CA        37.3890 -107.2990   21.6680 C.3    89  LYS89       0.1693
     76  C         36.7130 -106.1630   22.4220 C.2    89  LYS89       0.2592
     77  O         35.6320 -105.7020   22.0500 O.2    89  LYS89      -0.2718
     78  CB        37.9170 -106.8000   20.3290 C.3    89  LYS89       0.0285
     79  CG        38.8820 -107.7650   19.6710 C.3    89  LYS89       0.0035
     80  CD        40.1150 -107.9730   20.5370 C.3    89  LYS89       0.0206
     81  CE        41.1380 -108.8610   19.8450 C.3    89  LYS89       0.1093
     82  NZ        41.5960 -108.2880   18.5460 N.3    89  LYS89      -0.1314
     83  N         37.3620 -105.7330   23.4970 N.am   90  ASN90      -0.1960
     84  CA        36.9400 -104.5650   24.2540 C.3    90  ASN90       0.1819
     85  C         37.1270 -103.3000   23.4250 C.2    90  ASN90       0.2622
     86  O         38.1560 -103.1300   22.7690 O.2    90  ASN90      -0.2715
     87  CB        37.7300 -104.4910   25.5680 C.3    90  ASN90       0.1195
     88  CG        37.8300 -103.0840   26.1250 C.2    90  ASN90       0.2630
     89  OD1       36.8270 -102.4590   26.4640 O.2    90  ASN90      -0.2716
     90  ND2       39.0550 -102.5840   26.2350 N.am   90  ASN90      -0.0877
     91  N         36.1280 -102.4230   23.4360 N.am   91  THR91      -0.1937
     92  CA        36.2610 -101.1410   22.7560 C.3    91  THR91       0.2028
     93  C         37.3040 -100.3440   23.5170 C.2    91  THR91       0.2642
     94  O         37.1630 -100.1180   24.7190 O.2    91  THR91      -0.2714
     95  CB        34.9330 -100.3650   22.7010 C.3    91  THR91       0.1808
     96  OG1       33.9530 -101.1400   22.0010 O.3    91  THR91      -0.2208
     97  CG2       35.1220  -99.0340   21.9890 C.3    91  THR91       0.0379
     98  N         38.3540  -99.9200   22.8260 N.am   92  LYS92      -0.1963
     99  CA        39.5250  -99.4230   23.5300 C.3    92  LYS92       0.1728
    100  C         39.4430  -97.9670   23.9430 C.2    92  LYS92       0.2616
    101  O         38.4990  -97.2620   23.5990 O.2    92  LYS92      -0.2715
    102  CB        40.7790  -99.6260   22.6920 C.3    92  LYS92       0.0311
    103  CG        41.7570 -100.5300   23.3860 C.3    92  LYS92       0.0038
    104  CD        42.9470 -100.8610   22.5340 C.3    92  LYS92       0.0206
    105  CE        44.1580 -101.0180   23.4330 C.3    92  LYS92       0.1093
    106  NZ        45.4280 -100.7840   22.7040 N.3    92  LYS92      -0.1314
    107  N         40.4790  -97.5290   24.6510 N.am   93  TYR93      -0.1960
    108  CA        40.5230  -96.2110   25.2660 C.3    93  TYR93       0.1771
    109  C         41.3780  -95.2850   24.4060 C.2    93  TYR93       0.2619
    110  O         42.6000  -95.4290   24.3540 O.2    93  TYR93      -0.2715
    111  CB        41.0830  -96.3280   26.6870 C.3    93  TYR93       0.0574
    112  CG        40.8060  -95.1620   27.6080 C.ar   93  TYR93      -0.0198
    113  CD1       39.5970  -95.0560   28.2850 C.ar   93  TYR93      -0.0009
    114  CD2       41.7640  -94.1830   27.8260 C.ar   93  TYR93      -0.0009
    115  CE1       39.3510  -94.0000   29.1440 C.ar   93  TYR93       0.0417
    116  CE2       41.5220  -93.1240   28.6790 C.ar   93  TYR93       0.0417
    117  CZ        40.3130  -93.0320   29.3290 C.ar   93  TYR93       0.1957
    118  OH        40.0710  -91.9730   30.1750 O.3    93  TYR93      -0.2866
    119  N         40.7390  -94.3320   23.7340 N.am   94  ILE94      -0.1977
    120  CA        41.4430  -93.5270   22.7390 C.3    94  ILE94       0.1596
    121  C         41.9950  -92.2050   23.2870 C.2    94  ILE94       0.2287
    122  O         42.5480  -91.4050   22.5320 O.2    94  ILE94      -0.2864
    123  CB        40.5440  -93.2310   21.5110 C.3    94  ILE94       0.0276
    124  CG1       39.2000  -92.6500   21.9380 C.3    94  ILE94       0.0022
    125  CG2       40.3150  -94.4970   20.7010 C.3    94  ILE94       0.0022
    126  CD1       38.3100  -92.2490   20.7790 C.3    94  ILE94       0.0001
    127  N         46.3210  -91.8400   22.7560 N.3    97  GLY97      -0.1225
    128  CA        46.7240  -92.9360   21.8960 C.3    97  GLY97       0.1811
    129  C         47.9900  -92.5880   21.1410 C.2    97  GLY97       0.2280
    130  O         48.6650  -93.4640   20.6000 O.2    97  GLY97      -0.2866
    131  N         51.6540  -94.2770   22.4190 N.3   100  LEU100     -0.1245
    132  CA        51.9880  -95.6980   22.4900 C.3   100  LEU100      0.1561
    133  C         51.6780  -96.5100   21.2370 C.2   100  LEU100      0.2260
    134  O         50.6610  -97.1990   21.1790 O.2   100  LEU100     -0.2867
    135  CB        51.2670  -96.3310   23.6810 C.3   100  LEU100      0.0270
    136  CG        51.8200  -95.9580   25.0550 C.3   100  LEU100      0.0019
    137  CD1       50.8120  -96.2860   26.1350 C.3   100  LEU100      0.0001
    138  CD2       53.1340  -96.6790   25.3060 C.3   100  LEU100      0.0001
    139  N         49.3220 -100.0570   17.6820 N.3   103  PHE103     -0.1227
    140  CA        47.9410  -99.8240   18.0550 C.3   103  PHE103      0.1736
    141  C         47.2050 -101.1540   18.1600 C.2   103  PHE103      0.2595
    142  O         47.8370 -102.2160   18.1370 O.2   103  PHE103     -0.2718
    143  CB        47.2820  -98.8650   17.0610 C.3   103  PHE103      0.0547
    144  CG        47.9670  -97.5220   16.9890 C.ar  103  PHE103     -0.0202
    145  CD1       47.9140  -96.6470   18.0630 C.ar  103  PHE103     -0.0042
    146  CD2       48.6820  -97.1450   15.8620 C.ar  103  PHE103     -0.0042
    147  CE1       48.5510  -95.4160   18.0130 C.ar  103  PHE103     -0.0003
    148  CE2       49.3200  -95.9130   15.8050 C.ar  103  PHE103     -0.0003
    149  CZ        49.2550  -95.0500   16.8820 C.ar  103  PHE103     -0.0000
    150  N         45.8830 -101.0730   18.2960 N.am  104  ARG104     -0.1966
    151  CA        45.0030 -102.1910   18.6480 C.3   104  ARG104      0.1729
    152  C         45.1880 -102.7990   20.0190 C.2   104  ARG104      0.2616
    153  O         45.5440 -102.1340   20.9820 O.2   104  ARG104     -0.2715
    154  CB        45.2330 -103.3270   17.6620 C.3   104  ARG104      0.0348
    155  CG        45.0060 -102.9350   16.2700 C.3   104  ARG104      0.0492
    156  CD        43.5730 -103.0600   15.9340 C.3   104  ARG104      0.2205
    157  NE        43.2360 -104.4740   15.9760 N.pl3 104  ARG104     -0.0865
    158  CZ        42.0340 -104.9610   15.7160 C.cat 104  ARG104      0.5346
    159  NH1       41.0550 -104.1420   15.3680 N.pl3 104  ARG104      0.1354
    160  NH2       41.8200 -106.2670   15.7850 N.pl3 104  ARG104      0.1354
    161  N         44.9910 -104.1100   20.0440 N.am  105  HIS105     -0.1973
    162  CA        45.1320 -104.9520   21.2160 C.3   105  HIS105      0.1656
    163  C         46.2630 -105.8970   20.8870 C.2   105  HIS105      0.2291
    164  O         47.2810 -105.9440   21.5700 O.2   105  HIS105     -0.2864
    165  CB        43.8450 -105.7300   21.5230 C.3   105  HIS105      0.0771
    166  CG        42.9170 -105.0340   22.4710 C.ar  105  HIS105      0.0820
    167  ND1       43.3630 -104.2500   23.5100 N.ar  105  HIS105     -0.2267
    168  CD2       41.5620 -105.0260   22.5460 C.ar  105  HIS105      0.1154
    169  CE1       42.3210 -103.7790   24.1810 C.ar  105  HIS105      0.1986
    170  NE2       41.2240 -104.2310   23.6140 N.ar  105  HIS105     -0.2212
    171  N         47.3750  -95.0330   12.8440 N.3   122  LEU122     -0.1245
    172  CA        46.0070  -94.7640   13.2600 C.3   122  LEU122      0.1561
    173  C         45.1010  -94.6950   12.0380 C.2   122  LEU122      0.2260
    174  O         43.8940  -94.9080   12.1330 O.2   122  LEU122     -0.2867
    175  CB        45.9250  -93.4660   14.0610 C.3   122  LEU122      0.0270
    176  CG        46.4360  -93.5620   15.4970 C.3   122  LEU122      0.0019
    177  CD1       46.3450  -92.2190   16.1980 C.3   122  LEU122      0.0001
    178  CD2       45.6530  -94.6180   16.2550 C.3   122  LEU122      0.0001
    179  N         43.2700  -97.9430   11.0480 N.3   125  VAL125     -0.1231
    180  CA        42.1300  -98.3520   11.8570 C.3   125  VAL125      0.1692
    181  C         40.8800  -97.5980   11.4140 C.2   125  VAL125      0.2592
    182  O         39.9290  -98.1900   10.8980 O.2   125  VAL125     -0.2718
    183  CB        42.3810  -98.1060   13.3560 C.3   125  VAL125      0.0266
    184  CG1       41.1450  -98.4610   14.1670 C.3   125  VAL125      0.0020
    185  CG2       43.5830  -98.9080   13.8290 C.3   125  VAL125      0.0020
    186  N         40.8990  -96.2840   11.6100 N.am  126  CYS126     -0.1970
    187  CA        39.7750  -95.4300   11.2480 C.3   126  CYS126      0.1712
    188  C         39.5220  -95.3950    9.7440 C.2   126  CYS126      0.2296
    189  O         38.4140  -95.0900    9.3070 O.2   126  CYS126     -0.2864
    190  CB        40.0070  -94.0110   11.7600 C.3   126  CYS126      0.0983
    191  SG        40.0280  -93.8720   13.5520 S.3   126  CYS126     -0.0798
    192  N         37.6260  -98.8150    9.2160 N.3   129  ASP129     -0.1239
    193  CA        36.2760  -98.8690    9.7830 C.3   129  ASP129      0.1674
    194  C         35.1090  -98.6270    8.8050 C.2   129  ASP129      0.2266
    195  O         34.0690  -99.2730    8.9410 O.2   129  ASP129     -0.2867
    196  CB        36.1630  -97.8760   10.9450 C.3   129  ASP129      0.1410
    197  CG        36.9450  -98.3180   12.1690 C.2   129  ASP129      0.3668
    198  OD1       37.2780  -99.5180   12.2630 O.co2 129  ASP129     -0.2456
    199  OD2       37.2170  -97.4660   13.0420 O.co2 129  ASP129     -0.2456
    200  N         33.5480 -102.1210    9.1810 N.3   133  VAL133     -0.1231
    201  CA        32.6010 -102.0280   10.2900 C.3   133  VAL133      0.1692
    202  C         31.3140 -101.3280    9.8660 C.2   133  VAL133      0.2592
    203  O         30.2460 -101.9390    9.8200 O.2   133  VAL133     -0.2718
    204  CB        33.2060 -101.2860   11.5010 C.3   133  VAL133      0.0266
    205  CG1       32.1520 -101.0770   12.5770 C.3   133  VAL133      0.0020
    206  CG2       34.3910 -102.0590   12.0630 C.3   133  VAL133      0.0020
    207  N         31.4300 -100.0390    9.5570 N.am  134  PHE134     -0.1976
    208  CA        30.2780  -99.2190    9.1970 C.3   134  PHE134      0.1639
    209  C         29.6240  -99.6840    7.9000 C.2   134  PHE134      0.2290
    210  O         28.4320  -99.4570    7.6860 O.2   134  PHE134     -0.2864
    211  CB        30.6910  -97.7500    9.0690 C.3   134  PHE134      0.0560
    212  CG        31.0960  -97.1140   10.3700 C.ar  134  PHE134     -0.0200
    213  CD1       32.3790  -97.2730   10.8660 C.ar  134  PHE134     -0.0042
    214  CD2       30.1940  -96.3470   11.0900 C.ar  134  PHE134     -0.0042
    215  CE1       32.7540  -96.6850   12.0610 C.ar  134  PHE134     -0.0003
    216  CE2       30.5630  -95.7560   12.2840 C.ar  134  PHE134     -0.0003
    217  CZ        31.8440  -95.9250   12.7690 C.ar  134  PHE134     -0.0000
    218  N         36.4740  -92.8750    3.5780 N.3   139  PHE139     -0.1241
    219  CA        36.8340  -91.4890    3.8450 C.3   139  PHE139      0.1605
    220  C         37.7060  -90.9000    2.7430 C.2   139  PHE139      0.2264
    221  O         38.3990  -91.6250    2.0290 O.2   139  PHE139     -0.2867
    222  CB        37.5670  -91.3810    5.1840 C.3   139  PHE139      0.0534
    223  CG        36.7200  -91.7260    6.3740 C.ar  139  PHE139     -0.0203
    224  CD1       35.3940  -91.3300    6.4370 C.ar  139  PHE139     -0.0042
    225  CD2       37.2500  -92.4500    7.4300 C.ar  139  PHE139     -0.0042
    226  CE1       34.6150  -91.6460    7.5340 C.ar  139  PHE139     -0.0003
    227  CE2       36.4770  -92.7680    8.5280 C.ar  139  PHE139     -0.0003
    228  CZ        35.1580  -92.3660    8.5800 C.ar  139  PHE139     -0.0000
    229  N         40.4610  -86.6910   11.0430 N.3   147  LEU147     -0.1245
    230  CA        40.0290  -87.6340   12.0680 C.3   147  LEU147      0.1561
    231  C         41.2120  -88.1520   12.8860 C.2   147  LEU147      0.2260
    232  O         41.1620  -88.1780   14.1190 O.2   147  LEU147     -0.2867
    233  CB        39.2750  -88.7970   11.4200 C.3   147  LEU147      0.0270
    234  CG        38.7610  -89.9410   12.2940 C.3   147  LEU147      0.0019
    235  CD1       37.7340  -89.4410   13.2940 C.3   147  LEU147      0.0001
    236  CD2       38.1640  -91.0210   11.4120 C.3   147  LEU147      0.0001
    237  N         42.2880  -87.7920   16.8000 N.3   151  ILE151     -0.1245
    238  CA        42.6010  -88.9290   17.6620 C.3   151  ILE151      0.1561
    239  C         43.9020  -88.7180   18.4350 C.2   151  ILE151      0.2260
    240  O         43.9590  -88.9480   19.6440 O.2   151  ILE151     -0.2867
    241  CB        42.7030  -90.2370   16.8510 C.3   151  ILE151      0.0252
    242  CG1       41.3570  -90.5640   16.2050 C.3   151  ILE151      0.0019
    243  CG2       43.1480  -91.3870   17.7400 C.3   151  ILE151      0.0019
    244  CD1       40.2200  -90.6800   17.1960 C.3   151  ILE151      0.0001
@<TRIPOS>BOND
     1   221   220    2
     2   220   219    1
     3   218   219    1
     4   219   222    1
     5   222   223    1
     6   223   224   ar
     7   223   225   ar
     8   224   226   ar
     9   225   227   ar
    10   226   228   ar
    11   210   209    2
    12   209   208    1
    13   227   228   ar
    14   194   195    2
    15   194   193    1
    16   211   208    1
    17   211   212    1
    18   200   201    1
    19   208   207    1
    20   192   193    1
    21   189   188    2
    22   207   202   am
    23   188   187    1
    24   193   196    1
    25   203   202    2
    26   202   201    1
    27   201   204    1
    28   212   213   ar
    29   212   214   ar
    30   213   215   ar
    31   182   181    2
    32   196   197    1
    33   229   230    1
    34   179   180    1
    35   214   216   ar
    36   187   186    1
    37   187   190    1
    38   236   234    1
    39   181   186   am
    40   181   180    1
    41   233   230    1
    42   233   234    1
    43   204   206    1
    44   204   205    1
    45   190   191    1
    46   180   183    1
    47   173   174    2
    48   173   172    1
    49   215   217   ar
    50   230   231    1
    51   197   198   ar
    52   197   199   ar
    53   216   217   ar
    54   234   235    1
    55    23    22    1
    56    15    14    2
    57   171   172    1
    58   231   232    2
    59    20    22   ar
    60    20    18   ar
    61    22    21   ar
    62    12    13    1
    63   172   175    1
    64    68    69    2
    65    68    67    1
    66   183   185    1
    67   183   184    1
    68    18    17   ar
    69    21    19   ar
    70    35    34    1
    71    14    13    1
    72    14    24   am
    73     1     2    1
    74   175   176    1
    75    13    16    1
    76    67    70    1
    77    67    66    1
    78    25    28    1
    79    25    24    1
    80    25    26    1
    81    19    17   ar
    82    17    16    1
    83    70    71    1
    84    28    29    1
    85     2     3    1
    86     2     5    1
    87    30    26   am
    88    30    31    1
    89    26    27    2
    90    73    71    1
    91   159   158    1
    92     3     4    2
    93    34    31    1
    94   176   177    1
    95   176   178    1
    96    71    72    1
    97   158   160    1
    98   158   157    2
    99   148   146   ar
   100   148   149   ar
   101   146   144   ar
   102    31    32    1
   103   156   157    1
   104   156   155    1
   105     5     6    1
   106   242   241    1
   107   242   244    1
   108   155   154    1
   109   237   238    1
   110   241   238    1
   111   241   243    1
   112   149   147   ar
   113   144   143    1
   114   144   145   ar
   115     7     6   ar
   116     7     9   ar
   117   143   140    1
   118     6     8   ar
   119    32    33    2
   120   154   151    1
   121   238   239    1
   122   139   140    1
   123   147   145   ar
   124     9    11   ar
   125   140   141    1
   126   142   141    2
   127   141   150   am
   128   150   151    1
   129     8    10   ar
   130    64    62   ar
   131    64    65   ar
   132   239   240    2
   133    62    59   ar
   134    82    81    1
   135   151   152    1
   136    49    51   ar
   137    49    47   ar
   138    51    50   ar
   139    41    40    1
   140    56    57    1
   141    56    53    1
   142    65    63   ar
   143    59    57   ar
   144    59    61   ar
   145    11    10   ar
   146    54    55    2
   147    54    53    1
   148    57    58   ar
   149    79    78    1
   150    79    80    1
   151    40    37    1
   152    63    61   ar
   153    61    60   ar
   154    81    80    1
   155    36    37    1
   156    53    52    1
   157   152   161   am
   158   152   153    2
   159    47    46    1
   160    47    48   ar
   161   161   162    1
   162    50    48   ar
   163    58    60   ar
   164    78    75    1
   165    46    43    1
   166   130   129    2
   167    37    38    1
   168   125   123    1
   169   126   124    1
   170   163   162    1
   171   163   164    2
   172    42    38   am
   173    42    43    1
   174   129   128    1
   175   134   133    2
   176   162   165    1
   177   133   132    1
   178    74    75    1
   179   123   124    1
   180   123   120    1
   181   165   166    1
   182    38    39    2
   183    75    76    1
   184    43    44    1
   185   128   127    1
   186    97    95    1
   187    96    95    1
   188    77    76    2
   189   131   132    1
   190    76    83   am
   191   166   168   ar
   192   166   167   ar
   193   132   135    1
   194   122   121    2
   195   104   103    1
   196   104   105    1
   197   168   170   ar
   198    44    45    2
   199   102   103    1
   200   102    99    1
   201    95    92    1
   202   106   105    1
   203   120   121    1
   204   120   119    1
   205    92    91    1
   206    92    93    1
   207    86    85    2
   208    98    93   am
   209    98    99    1
   210    85    91   am
   211    85    84    1
   212    83    84    1
   213   167   169   ar
   214    93    94    2
   215    99   100    1
   216   101   100    2
   217   170   169   ar
   218   135   136    1
   219   119   109   am
   220   100   107   am
   221    84    87    1
   222   110   109    2
   223   109   108    1
   224   107   108    1
   225   136   138    1
   226   136   137    1
   227   108   111    1
   228    87    88    1
   229    88    90   am
   230    88    89    2
   231   111   112    1
   232   112   114   ar
   233   112   113   ar
   234   114   116   ar
   235   113   115   ar
   236   116   117   ar
   237   115   117   ar
   238   117   118    1
