@<TRIPOS>MOLECULE
tmp/5c37A01.pdb
 189 183 0 0 0
SMALL
GASTEIGER

@<TRIPOS>ATOM
      1  N         10.2410   19.2760    3.9040 N.3     8  GLU8       -0.1245
      2  CA        11.5690   19.1260    4.4810 C.3     8  GLU8        0.1567
      3  C         11.6810   19.8060    5.8380 C.2     8  GLU8        0.2260
      4  O         10.9480   20.7480    6.1350 O.2     8  GLU8       -0.2867
      5  CB        12.6240   19.7040    3.5350 C.3     8  GLU8        0.0388
      6  CG        12.6970   19.0230    2.1810 C.3     8  GLU8        0.1160
      7  CD        13.7210   19.6690    1.2640 C.2     8  GLU8        0.3649
      8  OE1       13.4420   20.7660    0.7320 O.co2   8  GLU8       -0.2457
      9  OE2       14.8070   19.0810    1.0790 O.co2   8  GLU8       -0.2457
     10  N         15.6290   17.9030   -6.6620 N.3   140  PRO140     -0.2102
     11  CA        14.6540   18.8460   -6.0950 C.3   140  PRO140      0.1504
     12  C         15.0730   20.3080   -6.2260 C.2   140  PRO140      0.2576
     13  O         14.2150   21.1910   -6.2400 O.2   140  PRO140     -0.2718
     14  CB        14.5850   18.4370   -4.6200 C.3   140  PRO140      0.0282
     15  CG        14.9860   17.0140   -4.6060 C.3   140  PRO140      0.0208
     16  CD        16.0460   16.9030   -5.6610 C.3   140  PRO140      0.0893
     17  N         16.3730   20.5690   -6.3350 N.am  141  HIS141     -0.1963
     18  CA        16.8340   21.9330   -6.5640 C.3   141  HIS141      0.1772
     19  C         16.3050   22.4010   -7.9190 C.2   141  HIS141      0.2462
     20  O         16.7050   21.8700   -8.9530 O.2   141  HIS141     -0.2730
     21  CB        18.3600   22.0160   -6.5210 C.3   141  HIS141      0.0785
     22  CG        18.8840   23.4060   -6.3200 C.ar  141  HIS141      0.0821
     23  ND1       18.5060   24.4670   -7.1130 N.ar  141  HIS141     -0.2267
     24  CD2       19.7570   23.9060   -5.4140 C.ar  141  HIS141      0.1154
     25  CE1       19.1230   25.5620   -6.7050 C.ar  141  HIS141      0.1986
     26  NE2       19.8870   25.2490   -5.6750 N.ar  141  HIS141     -0.2212
     27  N         15.3950   23.3900   -7.9250 N.am  142  PRO142     -0.2716
     28  CA        14.7270   23.7330   -9.1880 C.3   142  PRO142      0.1536
     29  C         15.6210   24.4040  -10.2370 C.2   142  PRO142      0.2598
     30  O         15.2740   24.3690  -11.4170 O.2   142  PRO142     -0.2715
     31  CB        13.6230   24.6920   -8.7390 C.3   142  PRO142      0.0310
     32  CG        14.1640   25.3340   -7.5160 C.3   142  PRO142      0.0237
     33  CD        14.9670   24.2710   -6.8230 C.3   142  PRO142      0.0939
     34  N         16.7380   24.9970   -9.8220 N.am  143  LEU143     -0.1978
     35  CA        17.5810   25.7720  -10.7360 C.3   143  LEU143      0.1596
     36  C         18.9390   25.1160  -11.0100 C.2   143  LEU143      0.2287
     37  O         19.5580   25.3570  -12.0430 O.2   143  LEU143     -0.2864
     38  CB        17.7960   27.1790  -10.1730 C.3   143  LEU143      0.0297
     39  CG        16.5230   27.9900   -9.9020 C.3   143  LEU143      0.0022
     40  CD1       16.8650   29.3050   -9.2190 C.3   143  LEU143      0.0001
     41  CD2       15.7430   28.2420  -11.1850 C.3   143  LEU143      0.0001
     42  N          4.1060   41.3240    6.8490 N.3   492  VAL492     -0.1245
     43  CA         5.2680   41.4870    5.9840 C.3   492  VAL492      0.1561
     44  C          5.2540   42.8450    5.2950 C.2   492  VAL492      0.2260
     45  O          4.2010   43.3510    4.9010 O.2   492  VAL492     -0.2867
     46  CB         5.3400   40.3680    4.9110 C.3   492  VAL492      0.0252
     47  CG1        4.0540   40.3030    4.1190 C.3   492  VAL492      0.0019
     48  CG2        6.5380   40.5720    3.9760 C.3   492  VAL492      0.0019
     49  N          7.6240   44.6760    2.1600 N.3   494  LEU494     -0.1245
     50  CA         8.6410   44.4320    1.1460 C.3   494  LEU494      0.1561
     51  C          9.3440   45.7190    0.7400 C.2   494  LEU494      0.2260
     52  O          8.7180   46.7660    0.5820 O.2   494  LEU494     -0.2867
     53  CB         8.0220   43.7680   -0.0840 C.3   494  LEU494      0.0270
     54  CG         7.5050   42.3430    0.1120 C.3   494  LEU494      0.0019
     55  CD1        6.8250   41.8560   -1.1520 C.3   494  LEU494      0.0001
     56  CD2        8.6290   41.3970    0.5050 C.3   494  LEU494      0.0001
     57  N         10.1160   31.9190    4.2860 N.3   540  SER540     -0.1202
     58  CA        10.0860   31.7710    2.8390 C.3   540  SER540      0.2020
     59  C         11.3340   31.0810    2.2970 C.2   540  SER540      0.2619
     60  O         12.3720   31.0260    2.9640 O.2   540  SER540     -0.2717
     61  CB         9.9160   33.1500    2.1910 C.3   540  SER540      0.2103
     62  OG        10.4150   33.1910    0.8650 O.3   540  SER540     -0.2182
     63  N         11.2140   30.5410    1.0870 N.am  541  VAL541     -0.1965
     64  CA        12.3520   29.9660    0.3750 C.3   541  VAL541      0.1727
     65  C         13.3780   31.0430    0.0610 C.2   541  VAL541      0.2616
     66  O         14.5440   30.7500   -0.2220 O.2   541  VAL541     -0.2715
     67  CB        11.9290   29.2900   -0.9480 C.3   541  VAL541      0.0290
     68  CG1       11.0970   28.0540   -0.6750 C.3   541  VAL541      0.0023
     69  CG2       11.1690   30.2680   -1.8400 C.3   541  VAL541      0.0023
     70  N         12.9380   32.2950    0.0920 N.am  542  SER542     -0.1950
     71  CA        13.8450   33.4090   -0.1270 C.3   542  SER542      0.1924
     72  C         14.8960   33.4070    0.9760 C.2   542  SER542      0.2314
     73  O         16.0680   33.6640    0.7290 O.2   542  SER542     -0.2863
     74  CB        13.0770   34.7270   -0.1640 C.3   542  SER542      0.2116
     75  OG        12.1000   34.6870   -1.1910 O.3   542  SER542     -0.2180
     76  N         16.5400   29.4250    0.9370 N.3   545  ARG545     -0.1231
     77  CA        17.2690   29.0790   -0.2840 C.3   545  ARG545      0.1694
     78  C         18.0280   30.2780   -0.8480 C.2   545  ARG545      0.2593
     79  O         19.1520   30.1340   -1.3280 O.2   545  ARG545     -0.2718
     80  CB        16.3130   28.5360   -1.3510 C.3   545  ARG545      0.0321
     81  CG        15.2930   27.5260   -0.8410 C.3   545  ARG545      0.0489
     82  CD        15.9310   26.1990   -0.4660 C.3   545  ARG545      0.2205
     83  NE        14.9550   25.2980    0.1420 N.pl3 545  ARG545     -0.0865
     84  CZ        15.1430   23.9950    0.3330 C.cat 545  ARG545      0.5346
     85  NH1       16.2770   23.4170   -0.0440 N.pl3 545  ARG545      0.1354
     86  NH2       14.1890   23.2660    0.8970 N.pl3 545  ARG545      0.1354
     87  N         17.4070   31.4540   -0.7960 N.am  546  GLY546     -0.1942
     88  CA        18.0070   32.6610   -1.3400 C.3   546  GLY546      0.2014
     89  C         17.2480   33.2050   -2.5350 C.2   546  GLY546      0.2638
     90  O         16.7070   32.4460   -3.3400 O.2   546  GLY546     -0.2714
     91  N         17.2020   34.5290   -2.6500 N.am  547  ASN547     -0.1972
     92  CA        16.5900   35.1710   -3.8070 C.3   547  ASN547      0.1688
     93  C         17.1500   36.5700   -4.0390 C.2   547  ASN547      0.2292
     94  O         17.0050   37.4630   -3.1980 O.2   547  ASN547     -0.2864
     95  CB        15.0720   35.2430   -3.6400 C.3   547  ASN547      0.1181
     96  CG        14.3710   35.7020   -4.9030 C.2   547  ASN547      0.2629
     97  OD1       14.8750   35.5120   -6.0120 O.2   547  ASN547     -0.2716
     98  ND2       13.2030   36.3150   -4.7430 N.am  547  ASN547     -0.0877
     99  N         16.2270   40.3970   -2.4890 N.3   550  GLN550     -0.1245
    100  CA        15.4200   40.2850   -1.2740 C.3   550  GLN550      0.1566
    101  C         16.2690   39.9670   -0.0440 C.2   550  GLN550      0.2260
    102  O         15.8510   39.2000    0.8210 O.2   550  GLN550     -0.2867
    103  CB        14.3440   39.2090   -1.4470 C.3   550  GLN550      0.0367
    104  CG        13.2300   39.5830   -2.4060 C.3   550  GLN550      0.0905
    105  CD        12.0340   38.6660   -2.2680 C.2   550  GLN550      0.2608
    106  OE1       12.1720   37.4420   -2.2740 O.2   550  GLN550     -0.2717
    107  NE2       10.8510   39.2530   -2.1180 N.am  550  GLN550     -0.0878
    108  N         14.6970   40.9330    3.2710 N.3   553  TYR553     -0.1241
    109  CA        13.6050   39.9930    3.5030 C.3   553  TYR553      0.1605
    110  C         14.1390   38.6570    4.0240 C.2   553  TYR553      0.2264
    111  O         13.6120   38.0980    4.9870 O.2   553  TYR553     -0.2867
    112  CB        12.8240   39.8130    2.1990 C.3   553  TYR553      0.0534
    113  CG        11.6150   38.9070    2.2600 C.ar  553  TYR553     -0.0201
    114  CD1       10.4620   39.2830    2.9420 C.ar  553  TYR553     -0.0009
    115  CD2       11.6120   37.6910    1.5920 C.ar  553  TYR553     -0.0009
    116  CE1        9.3500   38.4540    2.9750 C.ar  553  TYR553      0.0417
    117  CE2       10.5140   36.8630    1.6170 C.ar  553  TYR553      0.0417
    118  CZ         9.3860   37.2450    2.3060 C.ar  553  TYR553      0.1957
    119  OH         8.3000   36.4040    2.3210 O.3   553  TYR553     -0.2866
    120  N          7.7810   28.8560    3.2800 N.3   579  TRP579     -0.1227
    121  CA         6.8940   28.6410    2.1390 C.3   579  TRP579      0.1737
    122  C          7.5730   28.9880    0.8170 C.2   579  TRP579      0.2596
    123  O          8.3280   29.9540    0.7300 O.2   579  TRP579     -0.2718
    124  CB         5.6170   29.4750    2.2750 C.3   579  TRP579      0.0564
    125  CG         4.7080   29.0480    3.3860 C.ar  579  TRP579      0.0003
    126  CD1        4.5110   29.6880    4.5770 C.ar  579  TRP579      0.0946
    127  CD2        3.8670   27.8890    3.4090 C.ar  579  TRP579      0.0152
    128  NE1        3.6020   28.9980    5.3390 N.ar  579  TRP579     -0.2442
    129  CE2        3.1900   27.8910    4.6460 C.ar  579  TRP579      0.0810
    130  CE3        3.6210   26.8500    2.5080 C.ar  579  TRP579      0.0012
    131  CZ2        2.2850   26.8930    5.0020 C.ar  579  TRP579      0.0191
    132  CZ3        2.7220   25.8610    2.8630 C.ar  579  TRP579      0.0001
    133  CH2        2.0650   25.8890    4.0990 C.ar  579  TRP579      0.0015
    134  N          7.2980   28.1920   -0.2100 N.am  580  GLY580     -0.1942
    135  CA         7.6080   28.5750   -1.5750 C.3   580  GLY580      0.2014
    136  C          6.4760   29.4380   -2.1010 C.2   580  GLY580      0.2638
    137  O          5.6390   29.8960   -1.3220 O.2   580  GLY580     -0.2714
    138  N          6.4370   29.6500   -3.4140 N.am  581  ALA581     -0.1977
    139  CA         5.3660   30.4210   -4.0430 C.3   581  ALA581      0.1597
    140  C          3.9840   29.9200   -3.6110 C.2   581  ALA581      0.2287
    141  O          3.7560   28.7160   -3.5220 O.2   581  ALA581     -0.2864
    142  CB         5.5000   30.3580   -5.5550 C.3   581  ALA581      0.0319
    143  N          0.5980   38.0920   -2.0820 N.3   587  ILE587     -0.1231
    144  CA         1.2570   39.1310   -2.8660 C.3   587  ILE587      0.1692
    145  C          1.5900   38.6380   -4.2720 C.2   587  ILE587      0.2591
    146  O          1.3790   39.3500   -5.2560 O.2   587  ILE587     -0.2718
    147  CB         2.5590   39.6140   -2.1820 C.3   587  ILE587      0.0266
    148  CG1        2.2730   40.0720   -0.7480 C.3   587  ILE587      0.0019
    149  CG2        3.2000   40.7480   -2.9830 C.3   587  ILE587      0.0020
    150  CD1        3.5170   40.3770    0.0690 C.3   587  ILE587      0.0001
    151  N          2.1110   37.4180   -4.3550 N.am  588  LEU588     -0.1980
    152  CA         2.6010   36.8680   -5.6160 C.3   588  LEU588      0.1596
    153  C          1.5220   36.8320   -6.6960 C.2   588  LEU588      0.2287
    154  O          1.7180   37.3620   -7.7890 O.2   588  LEU588     -0.2864
    155  CB         3.1570   35.4610   -5.3930 C.3   588  LEU588      0.0297
    156  CG         3.7000   34.7490   -6.6330 C.3   588  LEU588      0.0022
    157  CD1        4.8460   35.5260   -7.2620 C.3   588  LEU588      0.0001
    158  CD2        4.1430   33.3500   -6.2680 C.3   588  LEU588      0.0001
    159  N          7.5430   29.8090  -11.2900 N.3   599  VAL599     -0.1231
    160  CA         8.4150   30.7180  -10.5450 C.3   599  VAL599      0.1692
    161  C          9.7440   30.0450  -10.1990 C.2   599  VAL599      0.2592
    162  O          9.8190   29.2770   -9.2450 O.2   599  VAL599     -0.2718
    163  CB         7.7370   31.1950   -9.2340 C.3   599  VAL599      0.0266
    164  CG1        8.6100   32.2060   -8.5080 C.3   599  VAL599      0.0020
    165  CG2        6.3690   31.7950   -9.5210 C.3   599  VAL599      0.0020
    166  N         10.7890   30.3470  -10.9660 N.am  600  SER600     -0.1952
    167  CA        12.1100   29.7510  -10.7550 C.3   600  SER600      0.1924
    168  C         12.0520   28.2280  -10.6790 C.2   600  SER600      0.2314
    169  O         12.6070   27.6270   -9.7640 O.2   600  SER600     -0.2863
    170  CB        12.7510   30.2990   -9.4770 C.3   600  SER600      0.2116
    171  OG        13.0110   31.6870   -9.5820 O.3   600  SER600     -0.2180
    172  N          9.5280   26.3440  -10.0370 N.3   602  THR602     -0.1218
    173  CA         8.5540   25.8530   -9.0660 C.3   602  THR602      0.1862
    174  C          7.1810   26.4400   -9.3780 C.2   602  THR602      0.2287
    175  O          7.0710   27.4170  -10.1200 O.2   602  THR602     -0.2866
    176  CB         8.9490   26.2070   -7.6070 C.3   602  THR602      0.1770
    177  OG1        8.6950   27.5920   -7.3460 O.3   602  THR602     -0.2211
    178  CG2       10.4080   25.8980   -7.3510 C.3   602  THR602      0.0375
    179  N          7.3590   23.4470   -0.7650 N.3   628  PHE628     -0.1241
    180  CA         7.2860   24.0470   -2.0910 C.3   628  PHE628      0.1605
    181  C          6.9050   22.9800   -3.1110 C.2   628  PHE628      0.2264
    182  O          6.9480   21.7870   -2.8120 O.2   628  PHE628     -0.2867
    183  CB         8.6150   24.7130   -2.4680 C.3   628  PHE628      0.0534
    184  CG         9.6610   23.7570   -2.9790 C.ar  628  PHE628     -0.0203
    185  CD1       10.4090   22.9910   -2.1020 C.ar  628  PHE628     -0.0042
    186  CD2        9.9060   23.6410   -4.3350 C.ar  628  PHE628     -0.0042
    187  CE1       11.3790   22.1190   -2.5720 C.ar  628  PHE628     -0.0003
    188  CE2       10.8710   22.7720   -4.8110 C.ar  628  PHE628     -0.0003
    189  CZ        11.6070   22.0090   -3.9260 C.ar  628  PHE628     -0.0000
@<TRIPOS>BOND
     1    37    36    2
     2    30    29    2
     3   159   160    1
     4    41    39    1
     5    36    35    1
     6   166   167    1
     7   166   161   am
     8   167   168    1
     9   167   170    1
    10    35    38    1
    11    35    34    1
    12   168   169    2
    13   160   161    1
    14   160   163    1
    15    29    34   am
    16    29    28    1
    17   161   162    2
    18    38    39    1
    19   175   174    2
    20   172   173    1
    21    39    40    1
    22   171   170    1
    23   165   163    1
    24   174   173    1
    25   163   164    1
    26    28    31    1
    27    28    27    1
    28   173   176    1
    29    20    19    2
    30    31    32    1
    31    27    19   am
    32    27    33    1
    33    19    18    1
    34   154   153    2
    35   176   178    1
    36   176   177    1
    37    32    33    1
    38   157   156    1
    39    23    25   ar
    40    23    22   ar
    41    25    26   ar
    42   153   152    1
    43    10    11    1
    44    10    16    1
    45   156   158    1
    46   156   155    1
    47    18    21    1
    48    18    17    1
    49    21    22    1
    50    17    12   am
    51    22    24   ar
    52    13    12    2
    53    12    11    1
    54    11    14    1
    55    97    96    2
    56    26    24   ar
    57    16    15    1
    58   152   155    1
    59   152   151    1
    60   142   139    1
    61   146   145    2
    62    96    98   am
    63    96    95    1
    64   188   186   ar
    65   188   189   ar
    66    14    15    1
    67   151   145   am
    68   186   184   ar
    69   145   144    1
    70   139   140    1
    71   139   138    1
    72    93    92    1
    73    93    94    2
    74   189   187   ar
    75    92    95    1
    76    92    91    1
    77   140   141    2
    78   138   136   am
    79    90    89    2
    80   181   182    2
    81   181   180    1
    82   149   147    1
    83   184   183    1
    84   184   185   ar
    85   144   147    1
    86   144   143    1
    87    91    89   am
    88   187   185   ar
    89    89    88    1
    90    99   100    1
    91   183   180    1
    92   104   105    1
    93   104   103    1
    94   106   105    2
    95   105   107   am
    96   147   148    1
    97   136   135    1
    98   136   137    2
    99   180   179    1
   100    69    67    1
   101   135   134    1
   102   103   100    1
   103    80    81    1
   104    80    77    1
   105    88    87    1
   106    79    78    2
   107   100   101    1
   108    75    74    1
   109    55    54    1
   110    67    68    1
   111    67    64    1
   112    78    87   am
   113    78    77    1
   114    81    82    1
   115   148   150    1
   116    82    83    1
   117    77    76    1
   118    66    65    2
   119   134   122   am
   120    74    71    1
   121    71    70    1
   122    71    72    1
   123    53    54    1
   124    53    50    1
   125   101   102    2
   126    85    84    1
   127    65    70   am
   128    65    64    1
   129    54    56    1
   130    83    84    2
   131    84    86    1
   132    64    63    1
   133    52    51    2
   134    73    72    2
   135   123   122    2
   136     8     7   ar
   137    51    50    1
   138   122   121    1
   139    62    61    1
   140     9     7   ar
   141    63    59   am
   142    50    49    1
   143     7     6    1
   144   115   117   ar
   145   115   113   ar
   146   117   118   ar
   147   121   124    1
   148   121   120    1
   149     6     5    1
   150    61    58    1
   151   112   113    1
   152   112   109    1
   153   113   114   ar
   154   124   125    1
   155    59    58    1
   156    59    60    2
   157   118   119    1
   158   118   116   ar
   159   130   132   ar
   160   130   127   ar
   161    58    57    1
   162   132   133   ar
   163   114   116   ar
   164   108   109    1
   165   125   127   ar
   166   125   126   ar
   167   127   129   ar
   168   109   110    1
   169     5     2    1
   170     1     2    1
   171    48    46    1
   172   110   111    2
   173   133   131   ar
   174    47    46    1
   175     2     3    1
   176   126   128   ar
   177   129   131   ar
   178   129   128   ar
   179    45    44    2
   180    46    43    1
   181    44    43    1
   182     3     4    2
   183    43    42    1
