@<TRIPOS>MOLECULE
tmp/5c3aA00.pdb
 184 176 0 0 0
SMALL
GASTEIGER

@<TRIPOS>ATOM
      1  N          9.0230   26.3750   -1.6490 N.3    60  PHE60      -0.1241
      2  CA         8.7860   26.9260   -2.9890 C.3    60  PHE60       0.1605
      3  C          7.7620   26.0780   -3.7000 C.2    60  PHE60       0.2264
      4  O          7.8240   24.8490   -3.7070 O.2    60  PHE60      -0.2867
      5  CB        10.0960   27.0110   -3.7880 C.3    60  PHE60       0.0534
      6  CG        11.0100   28.0520   -3.2750 C.ar   60  PHE60      -0.0203
      7  CD1       11.6830   27.8720   -2.0660 C.ar   60  PHE60      -0.0042
      8  CD2       11.1650   29.2580   -3.9480 C.ar   60  PHE60      -0.0042
      9  CE1       12.4940   28.8610   -1.5570 C.ar   60  PHE60      -0.0003
     10  CE2       11.9730   30.2450   -3.4330 C.ar   60  PHE60      -0.0003
     11  CZ        12.6380   30.0430   -2.2380 C.ar   60  PHE60      -0.0000
     12  N          6.2440   26.4650   -7.3290 N.3    62  ILE62      -0.1231
     13  CA         6.3090   27.1610   -8.6080 C.3    62  ILE62       0.1692
     14  C          5.6950   26.2440   -9.6640 C.2    62  ILE62       0.2591
     15  O          5.9220   25.0330   -9.6700 O.2    62  ILE62      -0.2718
     16  CB         7.7910   27.4680   -8.9730 C.3    62  ILE62       0.0266
     17  CG1        8.5140   28.2440   -7.8690 C.3    62  ILE62       0.0019
     18  CG2        7.9180   28.2040  -10.3030 C.3    62  ILE62       0.0020
     19  CD1        8.0070   29.6320   -7.6360 C.3    62  ILE62       0.0001
     20  N          4.9150   26.8400  -10.5630 N.am   63  LYS63      -0.1980
     21  CA         4.2700   26.1310  -11.6690 C.3    63  LYS63       0.1596
     22  C          3.3940   25.0000  -11.1140 C.2    63  LYS63       0.2287
     23  O          2.6000   25.2680  -10.2160 O.2    63  LYS63      -0.2864
     24  CB         5.2910   25.6970  -12.7430 C.3    63  LYS63       0.0298
     25  CG         5.9580   26.8790  -13.4350 C.3    63  LYS63       0.0038
     26  CD         6.8350   26.4410  -14.5990 C.3    63  LYS63       0.0206
     27  CE         8.0700   25.6870  -14.1380 C.3    63  LYS63       0.1093
     28  NZ         9.0340   25.4850  -15.2580 N.3    63  LYS63      -0.1314
     29  N          3.8350   22.6650   -9.1130 N.3    65  TYR65      -0.1241
     30  CA         4.0960   22.2180   -7.7430 C.3    65  TYR65       0.1605
     31  C          3.2110   22.8910   -6.7120 C.2    65  TYR65       0.2264
     32  O          3.1800   22.4550   -5.5660 O.2    65  TYR65      -0.2867
     33  CB         5.5770   22.4000   -7.3760 C.3    65  TYR65       0.0534
     34  CG         6.4990   21.3350   -7.9420 C.ar   65  TYR65      -0.0201
     35  CD1        6.6480   21.1700   -9.3200 C.ar   65  TYR65      -0.0009
     36  CD2        7.2610   20.5300   -7.1070 C.ar   65  TYR65      -0.0009
     37  CE1        7.4970   20.2070   -9.8410 C.ar   65  TYR65       0.0417
     38  CE2        8.1230   19.5670   -7.6230 C.ar   65  TYR65       0.0417
     39  CZ         8.2380   19.4050   -8.9850 C.ar   65  TYR65       0.1957
     40  OH         9.0980   18.4430   -9.4850 O.3    65  TYR65      -0.2866
     41  N         15.4590   22.8420  -13.5440 N.3   118  GLN118     -0.1245
     42  CA        16.7350   23.0060  -12.8520 C.3   118  GLN118      0.1566
     43  C         16.8130   24.3720  -12.1780 C.2   118  GLN118      0.2260
     44  O         17.0290   24.4540  -10.9650 O.2   118  GLN118     -0.2867
     45  CB        17.9020   22.8280  -13.8320 C.3   118  GLN118      0.0367
     46  CG        17.8900   21.4790  -14.4840 C.3   118  GLN118      0.0905
     47  CD        18.4910   21.5020  -15.8450 C.2   118  GLN118      0.2608
     48  OE1       19.0730   22.5010  -16.2530 O.2   118  GLN118     -0.2717
     49  NE2       18.3500   20.4030  -16.5780 N.am  118  GLN118     -0.0878
     50  N         14.5370   26.6170  -11.4450 N.3   120  VAL120     -0.1231
     51  CA        13.5500   26.8040  -10.3750 C.3   120  VAL120      0.1692
     52  C         14.1610   26.3290   -9.0560 C.2   120  VAL120      0.2592
     53  O         14.1180   27.0520   -8.0550 O.2   120  VAL120     -0.2718
     54  CB        12.2160   26.0510  -10.6390 C.3   120  VAL120      0.0266
     55  CG1       11.2900   26.1410   -9.4260 C.3   120  VAL120      0.0020
     56  CG2       11.5170   26.6030  -11.8790 C.3   120  VAL120      0.0020
     57  N         14.7320   25.1240   -9.0740 N.am  121  SER121     -0.1952
     58  CA        15.3570   24.5490   -7.8800 C.3   121  SER121      0.1924
     59  C         16.5660   25.3750   -7.4180 C.2   121  SER121      0.2314
     60  O         16.7280   25.5950   -6.2160 O.2   121  SER121     -0.2863
     61  CB        15.7540   23.0870   -8.1230 C.3   121  SER121      0.2116
     62  OG        16.2820   22.4910   -6.9450 O.3   121  SER121     -0.2180
     63  N         16.2310   29.1540   -5.5530 N.3   124  ARG124     -0.1245
     64  CA        15.8610   29.1670   -4.1290 C.3   124  ARG124      0.1563
     65  C         16.9560   29.7870   -3.2400 C.2   124  ARG124      0.2260
     66  O         16.6660   30.5250   -2.3050 O.2   124  ARG124     -0.2867
     67  CB        15.5540   27.7450   -3.6680 C.3   124  ARG124      0.0307
     68  CG        14.3930   27.0790   -4.4000 C.3   124  ARG124      0.0489
     69  CD        13.9730   25.7730   -3.7630 C.3   124  ARG124      0.2205
     70  NE        14.9920   24.7330   -3.9130 N.pl3 124  ARG124     -0.0865
     71  CZ        14.8740   23.5240   -3.3840 C.cat 124  ARG124      0.5346
     72  NH1       13.8220   23.2200   -2.6570 N.pl3 124  ARG124      0.1354
     73  NH2       15.8340   22.6160   -3.5640 N.pl3 124  ARG124      0.1354
     74  N         11.7630   21.0460    0.4500 N.3   147  ASP147     -0.1225
     75  CA        11.0170   20.7330   -0.7580 C.3   147  ASP147      0.1805
     76  C          9.5210   20.6190   -0.4320 C.2   147  ASP147      0.2598
     77  O          9.1480   20.2460    0.6790 O.2   147  ASP147     -0.2718
     78  CB        11.4960   19.3840   -1.3020 C.3   147  ASP147      0.1424
     79  CG        12.7120   19.4740   -2.1910 C.2   147  ASP147      0.3668
     80  OD1       13.4280   20.4730   -2.2770 O.co2 147  ASP147     -0.2456
     81  OD2       12.9520   18.4390   -2.8840 O.co2 147  ASP147     -0.2456
     82  N          8.6850   20.9260   -1.4360 N.am  148  VAL148     -0.1966
     83  CA         7.2330   20.9410   -1.2810 C.3   148  VAL148      0.1727
     84  C          6.5540   19.6190   -1.6380 C.2   148  VAL148      0.2616
     85  O          5.4390   19.3480   -1.1700 O.2   148  VAL148     -0.2715
     86  CB         6.5930   22.0720   -2.1220 C.3   148  VAL148      0.0290
     87  CG1        6.5550   21.7250   -3.6110 C.3   148  VAL148      0.0023
     88  CG2        5.2080   22.4470   -1.5780 C.3   148  VAL148      0.0023
     89  N          7.2540   18.7950   -2.4190 N.am  149  ASP149     -0.1971
     90  CA         6.7090   17.5260   -2.9250 C.3   149  ASP149      0.1709
     91  C          6.8020   16.4060   -1.9040 C.2   149  ASP149      0.2293
     92  O          7.3100   15.3250   -2.1760 O.2   149  ASP149     -0.2864
     93  CB         7.3790   17.1110   -4.2610 C.3   149  ASP149      0.1436
     94  CG         8.8680   16.9240   -4.1520 C.2   149  ASP149      0.3671
     95  OD1        9.5330   17.6660   -3.4060 O.co2 149  ASP149     -0.2456
     96  OD2        9.4610   16.0110   -4.7870 O.co2 149  ASP149     -0.2456
     97  N         20.6790   12.2370    2.6250 N.3   169  HIS169     -0.1241
     98  CA        19.9010   11.7810    1.4660 C.3   169  HIS169      0.1621
     99  C         19.5970   10.2900    1.6260 C.2   169  HIS169      0.2264
    100  O         20.5120    9.4950    1.9370 O.2   169  HIS169     -0.2867
    101  CB        20.7270   12.0310    0.2280 C.3   169  HIS169      0.0745
    102  CG        19.9870   11.8940   -1.0560 C.ar  169  HIS169      0.0817
    103  ND1       19.4170   10.7080   -1.4620 N.ar  169  HIS169     -0.2268
    104  CD2       19.8010   12.7680   -2.0580 C.ar  169  HIS169      0.1154
    105  CE1       18.8770   10.8770   -2.6550 C.ar  169  HIS169      0.1986
    106  NE2       19.1110   12.1150   -3.0430 N.ar  169  HIS169     -0.2212
    107  N         21.7210    7.3700   -0.1040 N.3   172  PHE172     -0.1241
    108  CA        23.1990    7.3210    0.0310 C.3   172  PHE172      0.1605
    109  C         23.7220    7.1270    1.4290 C.2   172  PHE172      0.2264
    110  O         24.9470    7.0840    1.6160 O.2   172  PHE172     -0.2867
    111  CB        23.8510    8.5820   -0.5730 C.3   172  PHE172      0.0534
    112  CG        23.5480    8.7600   -2.0160 C.ar  172  PHE172     -0.0203
    113  CD1       24.2020    7.9780   -2.9600 C.ar  172  PHE172     -0.0042
    114  CD2       22.6000    9.6730   -2.4450 C.ar  172  PHE172     -0.0042
    115  CE1       23.9240    8.1170   -4.3060 C.ar  172  PHE172     -0.0003
    116  CE2       22.3000    9.8050   -3.7890 C.ar  172  PHE172     -0.0003
    117  CZ        22.9660    9.0270   -4.7220 C.ar  172  PHE172     -0.0000
    118  N         26.8300   11.2030   -5.4390 N.3   181  THR181     -0.1218
    119  CA        26.6990   11.9740   -6.6750 C.3   181  THR181      0.1862
    120  C         27.1160   13.4300   -6.5100 C.2   181  THR181      0.2287
    121  O         26.4370   14.3380   -6.9700 O.2   181  THR181     -0.2866
    122  CB        25.2660   11.8860   -7.2370 C.3   181  THR181      0.1770
    123  OG1       24.3210   12.3760   -6.2770 O.3   181  THR181     -0.2211
    124  CG2       24.9340   10.4400   -7.6080 C.3   181  THR181      0.0375
    125  N         26.4060   12.4980    1.9090 N.3   200  TYR200     -0.1241
    126  CA        25.6340   13.1380    0.8550 C.3   200  TYR200      0.1605
    127  C         24.3500   13.7230    1.4360 C.2   200  TYR200      0.2264
    128  O         23.4430   12.9940    1.8540 O.2   200  TYR200     -0.2867
    129  CB        25.3320   12.2140   -0.3340 C.3   200  TYR200      0.0534
    130  CG        24.9020   12.9820   -1.5570 C.ar  200  TYR200     -0.0201
    131  CD1       25.8270   13.6070   -2.3520 C.ar  200  TYR200     -0.0009
    132  CD2       23.5560   13.1400   -1.8700 C.ar  200  TYR200     -0.0009
    133  CE1       25.4570   14.3390   -3.4570 C.ar  200  TYR200      0.0417
    134  CE2       23.1620   13.8550   -2.9830 C.ar  200  TYR200      0.0417
    135  CZ        24.1180   14.4680   -3.7670 C.ar  200  TYR200      0.1957
    136  OH        23.7480   15.1800   -4.8760 O.3   200  TYR200     -0.2866
    137  N         20.8460   15.9400    1.4320 N.3   202  MET202     -0.1230
    138  CA        19.7360   16.1290    0.5090 C.3   202  MET202      0.1702
    139  C         19.4300   17.6260    0.4080 C.2   202  MET202      0.2593
    140  O         19.2250   18.2870    1.4330 O.2   202  MET202     -0.2718
    141  CB        18.5390   15.3420    1.0520 C.3   202  MET202      0.0401
    142  CG        17.7030   14.6520    0.0270 C.3   202  MET202      0.0596
    143  SD        16.7560   15.7820   -0.9250 S.3   202  MET202     -0.1393
    144  CE        15.6690   16.3160    0.2690 C.3   202  MET202      0.0692
    145  N         19.3000   18.1440   -0.8130 N.am  203  GLY203     -0.1942
    146  CA        19.0350   19.5700   -0.9990 C.3   203  GLY203      0.2014
    147  C         17.6730   20.0070   -0.5090 C.2   203  GLY203      0.2639
    148  O         17.4580   21.1980   -0.3390 O.2   203  GLY203     -0.2714
    149  N         16.7600   19.0660   -0.3070 N.am  204  GLY204     -0.1954
    150  CA        15.3870   19.3710    0.1210 C.3   204  GLY204      0.1869
    151  C         15.0720   19.4760    1.5860 C.2   204  GLY204      0.2309
    152  O         13.9050   19.5340    1.9610 O.2   204  GLY204     -0.2863
    153  N         23.7910   18.1560   -9.6980 N.3   236  TRP236     -0.1241
    154  CA        22.5490   18.2540   -8.9280 C.3   236  TRP236      0.1605
    155  C         22.2670   19.6820   -8.4580 C.2   236  TRP236      0.2264
    156  O         21.5930   19.9020   -7.4600 O.2   236  TRP236     -0.2867
    157  CB        22.5050   17.1970   -7.8030 C.3   236  TRP236      0.0550
    158  CG        22.2730   15.8510   -8.3850 C.ar  236  TRP236      0.0003
    159  CD1       23.1540   14.8360   -8.5050 C.ar  236  TRP236      0.0946
    160  CD2       21.0500   15.4080   -8.9970 C.ar  236  TRP236      0.0152
    161  NE1       22.5600   13.7660   -9.1610 N.ar  236  TRP236     -0.2442
    162  CE2       21.2670   14.0980   -9.4620 C.ar  236  TRP236      0.0810
    163  CE3       19.7880   15.9890   -9.1710 C.ar  236  TRP236      0.0012
    164  CZ2       20.2600   13.3490  -10.1090 C.ar  236  TRP236      0.0191
    165  CZ3       18.7940   15.2480   -9.8170 C.ar  236  TRP236      0.0001
    166  CH2       19.0370   13.9480  -10.2650 C.ar  236  TRP236      0.0015
    167  N         21.7900   21.3930   -4.8430 N.3   239  GLU239     -0.1245
    168  CA        22.2140   20.3160   -3.9410 C.3   239  GLU239      0.1567
    169  C         23.7050   20.0730   -4.0360 C.2   239  GLU239      0.2260
    170  O         24.3510   19.7640   -3.0070 O.2   239  GLU239     -0.2867
    171  CB        21.4750   19.0270   -4.2460 C.3   239  GLU239      0.0388
    172  CG        21.8650   17.8080   -3.4380 C.3   239  GLU239      0.1160
    173  CD        20.9240   16.6710   -3.7380 C.2   239  GLU239      0.3649
    174  OE1       21.2060   15.8810   -4.6710 O.co2 239  GLU239     -0.2457
    175  OE2       19.9040   16.5590   -3.0410 O.co2 239  GLU239     -0.2457
    176  N          5.3210   12.2850   -7.7330 N.3   282  LYS282     -0.1245
    177  CA         5.2790   13.4340   -8.6440 C.3   282  LYS282      0.1561
    178  C          5.5280   13.0090  -10.0920 C.2   282  LYS282      0.2260
    179  O          5.0030   11.9890  -10.5420 O.2   282  LYS282     -0.2867
    180  CB         6.2820   14.5040   -8.2070 C.3   282  LYS282      0.0271
    181  CG         7.7490   14.1110   -8.2240 C.3   282  LYS282      0.0035
    182  CD         8.5860   15.3490   -7.9470 C.3   282  LYS282      0.0206
    183  CE        10.0680   15.0460   -7.8680 C.3   282  LYS282      0.1093
    184  NZ        10.4420   14.3010   -6.6390 N.3   282  LYS282     -0.1314
@<TRIPOS>BOND
     1    49    47   am
     2    48    47    2
     3    47    46    1
     4    28    27    1
     5    26    27    1
     6    26    25    1
     7    46    45    1
     8    45    42    1
     9    41    42    1
    10    25    24    1
    11    42    43    1
    12    24    21    1
    13    43    44    2
    14    56    54    1
    15    21    22    1
    16    21    20    1
    17    50    51    1
    18    22    23    2
    19    54    51    1
    20    54    55    1
    21    20    14   am
    22   179   178    2
    23    51    52    1
    24    18    16    1
    25   166   164   ar
    26   166   165   ar
    27   164   162   ar
    28   178   177    1
    29    37    35   ar
    30    37    39   ar
    31   165   163   ar
    32   153   154    1
    33    15    14    2
    34    14    13    1
    35    40    39    1
    36   162   161   ar
    37   162   160   ar
    38    35    34   ar
    39   163   160   ar
    40   161   159   ar
    41    29    30    1
    42    57    52   am
    43    57    58    1
    44    52    53    2
    45   160   158   ar
    46    39    38   ar
    47    16    13    1
    48    16    17    1
    49   154   155    1
    50   154   157    1
    51   177   180    1
    52   177   176    1
    53    13    12    1
    54   159   158   ar
    55   155   156    2
    56   158   157    1
    57   181   180    1
    58   181   182    1
    59    61    58    1
    60    61    62    1
    61   182   183    1
    62    34    33    1
    63    34    36   ar
    64    58    59    1
    65    17    19    1
    66   183   184    1
    67    30    33    1
    68    30    31    1
    69    38    36   ar
    70   124   122    1
    71    59    60    2
    72   122   119    1
    73   122   123    1
    74   121   120    2
    75    31    32    2
    76   119   120    1
    77   119   118    1
    78    63    64    1
    79   136   135    1
    80   167   168    1
    81    96    94   ar
    82   117   115   ar
    83   117   116   ar
    84   174   173   ar
    85    68    69    1
    86    68    67    1
    87   115   113   ar
    88    93    94    1
    89    93    90    1
    90   171   168    1
    91   171   172    1
    92    94    95   ar
    93    64    67    1
    94    64    65    1
    95   169   168    1
    96   169   170    2
    97     8    10   ar
    98     8     6   ar
    99    70    69    1
   100    70    71    2
   101   116   114   ar
   102     5     6    1
   103     5     2    1
   104   135   133   ar
   105   135   134   ar
   106   173   172    1
   107   173   175   ar
   108     4     3    2
   109     3     2    1
   110    87    86    1
   111    73    71    1
   112   133   131   ar
   113    10    11   ar
   114    71    72    1
   115     6     7   ar
   116    65    66    2
   117   106   105   ar
   118   106   104   ar
   119     2     1    1
   120   134   132   ar
   121   113   112   ar
   122    90    89    1
   123    90    91    1
   124    81    79   ar
   125   105   103   ar
   126   114   112   ar
   127    89    84   am
   128   131   130   ar
   129    80    79   ar
   130    11     9   ar
   131    79    78    1
   132    92    91    2
   133    86    88    1
   134    86    83    1
   135     7     9   ar
   136   104   102   ar
   137   112   111    1
   138   132   130   ar
   139    84    83    1
   140    84    85    2
   141   130   129    1
   142   103   102   ar
   143    82    83    1
   144    82    76   am
   145    78    75    1
   146   102   101    1
   147   146   145    1
   148   146   147    1
   149   143   142    1
   150   143   144    1
   151   145   139   am
   152    75    76    1
   153    75    74    1
   154   111   108    1
   155   147   148    2
   156   147   149   am
   157    76    77    2
   158   129   126    1
   159   149   150    1
   160   107   108    1
   161   142   141    1
   162   108   109    1
   163   150   151    1
   164   101    98    1
   165   139   138    1
   166   139   140    2
   167   138   141    1
   168   138   137    1
   169   126   127    1
   170   126   125    1
   171   109   110    2
   172   127   128    2
   173    98    99    1
   174    98    97    1
   175   151   152    2
   176    99   100    2
