@<TRIPOS>MOLECULE
tmp/5c3cB00.pdb
 146 140 0 0 0
SMALL
GASTEIGER

@<TRIPOS>ATOM
      1  N        227.4180  180.0090   -5.5150 N.3     4  TYR4       -0.1227
      2  CA       226.8850  180.4530   -4.2340 C.3     4  TYR4        0.1736
      3  C        227.9010  180.3100   -3.1070 C.2     4  TYR4        0.2595
      4  O        228.3300  179.2030   -2.7780 O.2     4  TYR4       -0.2718
      5  CB       225.6130  179.6820   -3.8780 C.3     4  TYR4        0.0548
      6  CG       225.0210  180.1010   -2.5530 C.ar    4  TYR4       -0.0200
      7  CD1      225.1940  179.3250   -1.4140 C.ar    4  TYR4       -0.0009
      8  CD2      224.3020  181.2820   -2.4370 C.ar    4  TYR4       -0.0009
      9  CE1      224.6600  179.7110   -0.1990 C.ar    4  TYR4        0.0417
     10  CE2      223.7640  181.6760   -1.2280 C.ar    4  TYR4        0.0417
     11  CZ       223.9460  180.8880   -0.1120 C.ar    4  TYR4        0.1957
     12  OH       223.4100  181.2780    1.0940 O.3     4  TYR4       -0.2866
     13  N        228.2820  181.4390   -2.5200 N.am    5  TYR5       -0.1962
     14  CA       229.1510  181.4310   -1.3530 C.3     5  TYR5        0.1771
     15  C        228.7650  182.5280   -0.3690 C.2     5  TYR5        0.2619
     16  O        228.6370  183.6930   -0.7410 O.2     5  TYR5       -0.2715
     17  CB       230.6180  181.5930   -1.7580 C.3     5  TYR5        0.0574
     18  CG       231.5640  181.4930   -0.5820 C.ar    5  TYR5       -0.0198
     19  CD1      232.0100  180.2570   -0.1290 C.ar    5  TYR5       -0.0009
     20  CD2      231.9960  182.6300    0.0870 C.ar    5  TYR5       -0.0009
     21  CE1      232.8640  180.1590    0.9520 C.ar    5  TYR5        0.0417
     22  CE2      232.8500  182.5420    1.1680 C.ar    5  TYR5        0.0417
     23  CZ       233.2800  181.3050    1.5960 C.ar    5  TYR5        0.1957
     24  OH       234.1320  181.2170    2.6720 O.3     5  TYR5       -0.2866
     25  N        228.5840  182.1440    0.8900 N.am    6  ARG6       -0.1977
     26  CA       228.3150  183.1020    1.9530 C.3     6  ARG6        0.1597
     27  C        229.5310  183.2560    2.8580 C.2     6  ARG6        0.2287
     28  O        229.9940  182.2900    3.4630 O.2     6  ARG6       -0.2864
     29  CB       227.0980  182.6770    2.7770 C.3     6  ARG6        0.0334
     30  CG       225.7990  183.3470    2.3580 C.3     6  ARG6        0.0492
     31  CD       225.9190  184.8620    2.4280 C.3     6  ARG6        0.2205
     32  NE       226.4880  185.3070    3.6970 N.pl3   6  ARG6       -0.0865
     33  CZ       225.7730  185.5870    4.7820 C.cat   6  ARG6        0.5346
     34  NH1      224.4520  185.4710    4.7570 N.pl3   6  ARG6        0.1354
     35  NH2      226.3800  185.9840    5.8930 N.pl3   6  ARG6        0.1354
     36  N        231.7930  184.0090    5.9930 N.3     8  VAL8       -0.1245
     37  CA       231.6550  183.8920    7.4380 C.3     8  VAL8        0.1561
     38  C        232.5020  184.9640    8.1160 C.2     8  VAL8        0.2260
     39  O        232.1920  185.4180    9.2180 O.2     8  VAL8       -0.2867
     40  CB       232.0760  182.4970    7.9370 C.3     8  VAL8        0.0252
     41  CG1      231.6310  182.2880    9.3780 C.3     8  VAL8        0.0019
     42  CG2      231.4950  181.4190    7.0370 C.3     8  VAL8        0.0019
     43  N        236.7150  169.2010    6.7890 N.3    31  THR31      -0.1203
     44  CA       236.1650  168.8100    5.4970 C.3    31  THR31       0.1994
     45  C        234.7250  169.2960    5.3480 C.2    31  THR31       0.2618
     46  O        233.9740  169.3610    6.3240 O.2    31  THR31      -0.2717
     47  CB       236.2180  167.2770    5.3010 C.3    31  THR31       0.1784
     48  OG1      235.6760  166.9340    4.0190 O.3    31  THR31      -0.2211
     49  CG2      235.4300  166.5630    6.3900 C.3    31  THR31       0.0376
     50  N        234.3520  169.6490    4.1220 N.am   32  GLY32      -0.1942
     51  CA       233.0120  170.1240    3.8330 C.3    32  GLY32       0.2014
     52  C        232.6260  171.3720    4.6050 C.2    32  GLY32       0.2639
     53  O        231.5620  171.4220    5.2210 O.2    32  GLY32      -0.2714
     54  N        233.4910  172.3820    4.5780 N.am   33  CYS33      -0.1953
     55  CA       233.2040  173.6380    5.2620 C.3    33  CYS33       0.1843
     56  C        233.2180  174.8100    4.2880 C.2    33  CYS33       0.2626
     57  O        233.1060  175.9660    4.6950 O.2    33  CYS33      -0.2714
     58  CB       234.2050  173.8870    6.3920 C.3    33  CYS33       0.0997
     59  SG       235.8320  174.4480    5.8480 S.3    33  CYS33      -0.0797
     60  N        233.3650  174.5090    3.0020 N.am   34  GLY34      -0.1940
     61  CA       233.2620  175.5240    1.9700 C.3    34  GLY34       0.2014
     62  C        234.5730  175.9680    1.3500 C.2    34  GLY34       0.2639
     63  O        234.6070  176.9610    0.6230 O.2    34  GLY34      -0.2714
     64  N        235.6510  175.2390    1.6250 N.am   35  LYS35      -0.1963
     65  CA       236.9670  175.6080    1.1080 C.3    35  LYS35       0.1728
     66  C        237.0290  175.5140   -0.4140 C.2    35  LYS35       0.2617
     67  O        237.4740  176.4460   -1.0810 O.2    35  LYS35      -0.2715
     68  CB       238.0570  174.7290    1.7250 C.3    35  LYS35       0.0311
     69  CG       238.2980  174.9750    3.2060 C.3    35  LYS35       0.0038
     70  CD       239.5200  174.2160    3.7230 C.3    35  LYS35       0.0206
     71  CE       239.2380  172.7320    3.9480 C.3    35  LYS35       0.1093
     72  NZ       239.2320  171.9280    2.6920 N.3    35  LYS35      -0.1314
     73  N        236.5760  174.3890   -0.9590 N.am   36  SER36      -0.1936
     74  CA       236.6450  174.1560   -2.3980 C.3    36  SER36       0.2055
     75  C        235.6930  175.0620   -3.1740 C.2    36  SER36       0.2642
     76  O        235.8940  175.3140   -4.3620 O.2    36  SER36      -0.2714
     77  CB       236.3430  172.6910   -2.7150 C.3    36  SER36       0.2130
     78  OG       237.3020  171.8330   -2.1210 O.3    36  SER36      -0.2179
     79  N        234.6570  175.5490   -2.5000 N.am   37  ARG37      -0.1977
     80  CA       233.6860  176.4310   -3.1360 C.3    37  ARG37       0.1597
     81  C        234.1080  177.8920   -2.9930 C.2    37  ARG37       0.2287
     82  O        233.7470  178.7380   -3.8150 O.2    37  ARG37      -0.2864
     83  CB       232.2920  176.2070   -2.5430 C.3    37  ARG37       0.0334
     84  CG       231.2150  177.1110   -3.1170 C.3    37  ARG37       0.0492
     85  CD       229.8570  176.4370   -3.1020 C.3    37  ARG37       0.2205
     86  NE       229.7260  175.4350   -4.1550 N.pl3  37  ARG37      -0.0865
     87  CZ       228.6190  174.7360   -4.3790 C.cat  37  ARG37       0.5346
     88  NH1      227.5500  174.9300   -3.6190 N.pl3  37  ARG37       0.1354
     89  NH2      228.5790  173.8450   -5.3590 N.pl3  37  ARG37       0.1354
     90  N        243.7280  170.5760   -4.5980 N.3    82  ASP82      -0.1239
     91  CA       242.9520  170.0810   -3.4660 C.3    82  ASP82       0.1674
     92  C        243.5950  168.8610   -2.8130 C.2    82  ASP82       0.2266
     93  O        244.0150  167.9290   -3.5000 O.2    82  ASP82      -0.2867
     94  CB       241.5280  169.7420   -3.9110 C.3    82  ASP82       0.1410
     95  CG       240.5960  169.4970   -2.7420 C.2    82  ASP82       0.3668
     96  OD1      240.7530  170.1740   -1.7050 O.co2  82  ASP82      -0.2456
     97  OD2      239.7060  168.6280   -2.8620 O.co2  82  ASP82      -0.2456
     98  N        230.4430  177.7560    9.6570 N.3   145  PRO145     -0.2116
     99  CA       229.7730  179.0500    9.8410 C.3   145  PRO145      0.1372
    100  C        228.8160  179.0660   11.0280 C.2   145  PRO145      0.2244
    101  O        228.2600  178.0300   11.3970 O.2   145  PRO145     -0.2868
    102  CB       229.0100  179.2450    8.5250 C.3   145  PRO145      0.0268
    103  CG       228.8770  177.8770    7.9470 C.3   145  PRO145      0.0207
    104  CD       230.1230  177.1540    8.3520 C.3   145  PRO145      0.0892
    105  N        222.8200  178.8810    4.2300 N.3   153  ILE153     -0.1245
    106  CA       223.5120  178.0820    3.2250 C.3   153  ILE153      0.1561
    107  C        222.7970  176.7580    2.9940 C.2   153  ILE153      0.2260
    108  O        222.5560  176.3650    1.8520 O.2   153  ILE153     -0.2867
    109  CB       224.9670  177.7970    3.6300 C.3   153  ILE153      0.0252
    110  CG1      225.7170  179.1040    3.8840 C.3   153  ILE153      0.0019
    111  CG2      225.6680  176.9800    2.5550 C.3   153  ILE153      0.0019
    112  CD1      227.0430  178.9160    4.5790 C.3   153  ILE153      0.0001
    113  N        221.2160  175.6240   -0.3470 N.3   157  GLU157     -0.1245
    114  CA       221.7670  174.4550   -1.0070 C.3   157  GLU157      0.1567
    115  C        220.7960  173.2850   -0.9590 C.2   157  GLU157      0.2260
    116  O        220.7070  172.5460   -1.9310 O.2   157  GLU157     -0.2867
    117  CB       223.1110  174.0540   -0.3930 C.3   157  GLU157      0.0388
    118  CG       224.2550  174.9920   -0.7480 C.3   157  GLU157      0.1160
    119  CD       224.5550  175.0250   -2.2380 C.2   157  GLU157      0.3649
    120  OE1      224.5550  176.1310   -2.8180 O.co2 157  GLU157     -0.2457
    121  OE2      224.8010  173.9520   -2.8260 O.co2 157  GLU157     -0.2457
    122  N        229.1240  170.4820    6.9120 N.3   189  THR189     -0.1203
    123  CA       228.0280  171.2360    6.3190 C.3   189  THR189      0.1994
    124  C        227.4660  170.4540    5.1330 C.2   189  THR189      0.2617
    125  O        226.2840  170.5610    4.8100 O.2   189  THR189     -0.2717
    126  CB       228.4880  172.6450    5.8700 C.3   189  THR189      0.1784
    127  OG1      229.0230  173.3560    6.9940 O.3   189  THR189     -0.2211
    128  CG2      227.3320  173.4440    5.2850 C.3   189  THR189      0.0376
    129  N        228.3200  169.6510    4.5030 N.am  190  ARG190     -0.1979
    130  CA       227.9080  168.8290    3.3690 C.3   190  ARG190      0.1597
    131  C        226.8350  167.8220    3.7760 C.2   190  ARG190      0.2287
    132  O        225.8750  167.5900    3.0390 O.2   190  ARG190     -0.2864
    133  CB       229.1070  168.0940    2.7660 C.3   190  ARG190      0.0334
    134  CG       228.7660  167.3050    1.5100 C.3   190  ARG190      0.0492
    135  CD       229.8630  166.3190    1.1240 C.3   190  ARG190      0.2205
    136  NE       231.0990  166.9750    0.7070 N.pl3 190  ARG190     -0.0865
    137  CZ       232.1850  167.0750    1.4650 C.cat 190  ARG190      0.5346
    138  NH1      232.1920  166.5610    2.6880 N.pl3 190  ARG190      0.1354
    139  NH2      233.2660  167.6860    1.0020 N.pl3 190  ARG190      0.1354
    140  N        223.6090  169.6010    4.3210 N.3   193  VAL193     -0.1245
    141  CA       222.9560  169.7490    3.0340 C.3   193  VAL193      0.1561
    142  C        222.2560  168.4320    2.7070 C.2   193  VAL193      0.2260
    143  O        221.0330  168.4030    2.5890 O.2   193  VAL193     -0.2867
    144  CB       223.9480  170.1390    1.9210 C.3   193  VAL193      0.0252
    145  CG1      223.2410  170.2090    0.5830 C.3   193  VAL193      0.0019
    146  CG2      224.6020  171.4790    2.2390 C.3   193  VAL193      0.0019
@<TRIPOS>BOND
     1     1     2    1
     2    89    87    1
     3    90    91    1
     4    87    86    2
     5    87    88    1
     6    76    75    2
     7     2     5    1
     8     2     3    1
     9    86    85    1
    10    94    91    1
    11    94    95    1
    12     5     6    1
    13    82    81    2
    14    93    92    2
    15    91    92    1
    16    75    79   am
    17    75    74    1
    18    80    81    1
    19    80    83    1
    20    80    79    1
    21    84    85    1
    22    84    83    1
    23     3     4    2
    24     3    13   am
    25    97    95   ar
    26   121   119   ar
    27   120   119   ar
    28    95    96   ar
    29    77    74    1
    30    77    78    1
    31     6     8   ar
    32     6     7   ar
    33    13    14    1
    34     8    10   ar
    35    74    73    1
    36   119   118    1
    37   116   115    2
    38    17    14    1
    39    17    18    1
    40     7     9   ar
    41    14    15    1
    42    10    11   ar
    43    67    66    2
    44   114   115    1
    45   114   117    1
    46   114   113    1
    47    73    66   am
    48   118   117    1
    49    16    15    2
    50    18    19   ar
    51    18    20   ar
    52    66    65    1
    53    15    25   am
    54     9    11   ar
    55    19    21   ar
    56    11    12    1
    57    20    22   ar
    58   145   144    1
    59    63    62    2
    60   136   135    1
    61   136   137    2
    62    25    26    1
    63    21    23   ar
    64   139   137    1
    65    65    64    1
    66    65    68    1
    67   135   134    1
    68    22    23   ar
    69    62    64   am
    70    62    61    1
    71   137   138    1
    72   134   133    1
    73    23    24    1
    74    68    69    1
    75   108   107    2
    76   144   146    1
    77   144   141    1
    78    26    29    1
    79    26    27    1
    80    61    60    1
    81    30    31    1
    82    30    29    1
    83    31    32    1
    84   111   109    1
    85   143   142    2
    86    72    71    1
    87   142   141    1
    88   133   130    1
    89    27    28    2
    90   107   106    1
    91    60    56   am
    92   141   140    1
    93   132   131    2
    94    69    70    1
    95   106   109    1
    96   106   105    1
    97   130   131    1
    98   130   129    1
    99   109   110    1
   100    32    33    2
   101    70    71    1
   102    51    50    1
   103    51    52    1
   104   110   112    1
   105    48    47    1
   106    50    45   am
   107    56    57    2
   108    56    55    1
   109   129   124   am
   110    54    52   am
   111    54    55    1
   112    52    53    2
   113    34    33    1
   114    33    35    1
   115   125   124    2
   116   124   123    1
   117    55    58    1
   118   128   126    1
   119    47    44    1
   120    47    49    1
   121    45    44    1
   122    45    46    2
   123    44    43    1
   124    59    58    1
   125   126   123    1
   126   126   127    1
   127    36    37    1
   128   123   122    1
   129    42    40    1
   130    37    40    1
   131    37    38    1
   132    40    41    1
   133   103   104    1
   134   103   102    1
   135    38    39    2
   136   104    98    1
   137   102    99    1
   138    98    99    1
   139    99   100    1
   140   100   101    2
