@<TRIPOS>MOLECULE
tmp/5c3hA00.pdb
 103 103 0 0 0
SMALL
GASTEIGER

@<TRIPOS>ATOM
      1  N         -7.1540  -23.5260   -2.7870 N.3    49  LYS49      -0.1245
      2  CA        -7.8820  -23.7680   -4.0250 C.3    49  LYS49       0.1561
      3  C         -8.0510  -25.2680   -4.2170 C.2    49  LYS49       0.2260
      4  O         -7.0650  -26.0170   -4.2900 O.2    49  LYS49      -0.2867
      5  CB        -7.2190  -23.1020   -5.2630 C.3    49  LYS49       0.0271
      6  CG        -8.2260  -22.9050   -6.4240 C.3    49  LYS49       0.0035
      7  CD        -7.6630  -22.2450   -7.7080 C.3    49  LYS49       0.0206
      8  CE        -8.7280  -21.5320   -8.5420 C.3    49  LYS49       0.1093
      9  NZ        -9.6080  -22.4510   -9.3200 N.3    49  LYS49      -0.1314
     10  N        -13.9160  -25.0100   -9.7110 N.3    58  GLY58      -0.1210
     11  CA       -12.9150  -24.5070   -8.7770 C.3    58  GLY58       0.1956
     12  C        -13.4820  -23.6070   -7.6990 C.2    58  GLY58       0.2612
     13  O        -14.3110  -22.7480   -7.9820 O.2    58  GLY58      -0.2717
     14  N        -13.0320  -23.7970   -6.4590 N.am   59  LEU59      -0.1965
     15  CA       -13.4180  -22.9940   -5.3170 C.3    59  LEU59       0.1728
     16  C        -12.1690  -22.6100   -4.4950 C.2    59  LEU59       0.2617
     17  O        -11.2910  -23.4370   -4.2660 O.2    59  LEU59      -0.2715
     18  CB       -14.3590  -23.8420   -4.4440 C.3    59  LEU59       0.0311
     19  CG       -15.8660  -23.6780   -4.4930 C.3    59  LEU59       0.0022
     20  CD1      -16.3200  -22.8160   -5.5790 C.3    59  LEU59       0.0001
     21  CD2      -16.5280  -24.9970   -4.4920 C.3    59  LEU59       0.0001
     22  N        -12.1080  -21.3560   -4.0480 N.am   60  THR60      -0.1937
     23  CA       -10.9820  -20.8130   -3.2730 C.3    60  THR60       0.2028
     24  C        -11.4320  -19.9190   -2.1090 C.2    60  THR60       0.2642
     25  O        -12.5880  -19.5390   -2.0470 O.2    60  THR60      -0.2714
     26  CB       -10.0910  -20.0180   -4.1980 C.3    60  THR60       0.1808
     27  OG1       -8.8340  -19.8400   -3.5450 O.3    60  THR60      -0.2208
     28  CG2      -10.6970  -18.6550   -4.5570 C.3    60  THR60       0.0379
     29  N        -10.5110  -19.5680   -1.2000 N.am   61  ASP61      -0.1957
     30  CA       -10.7340  -18.6670   -0.0510 C.3    61  ASP61       0.1840
     31  C        -11.8700  -19.1510    0.8200 C.2    61  ASP61       0.2622
     32  O        -12.8660  -18.4540    1.0180 O.2    61  ASP61      -0.2715
     33  CB       -10.9030  -17.1850   -0.4590 C.3    61  ASP61       0.1450
     34  CG        -9.8170  -16.6400   -1.3670 C.2    61  ASP61       0.3671
     35  OD1      -10.1620  -15.8940   -2.3210 O.co2  61  ASP61      -0.2456
     36  OD2       -8.6100  -16.9510   -1.1210 O.co2  61  ASP61      -0.2456
     37  N        -11.7050  -20.3730    1.3280 N.am   62  TRP62      -0.1960
     38  CA       -12.6430  -21.0620    2.2060 C.3    62  TRP62       0.1771
     39  C        -12.6620  -20.4470    3.6040 C.2    62  TRP62       0.2619
     40  O        -11.6060  -20.1050    4.1440 O.2    62  TRP62      -0.2715
     41  CB       -12.2580  -22.5430    2.2980 C.3    62  TRP62       0.0590
     42  CG       -12.5010  -23.3120    1.0400 C.ar   62  TRP62       0.0006
     43  CD1      -11.6540  -23.4380   -0.0220 C.ar   62  TRP62       0.0946
     44  CD2      -13.6620  -24.0940    0.7240 C.ar   62  TRP62       0.0152
     45  NE1      -12.2140  -24.2420   -0.9800 N.ar   62  TRP62      -0.2442
     46  CE2      -13.4470  -24.6640   -0.5470 C.ar   62  TRP62       0.0810
     47  CE3      -14.8560  -24.3830    1.4030 C.ar   62  TRP62       0.0012
     48  CZ2      -14.3850  -25.4870   -1.1630 C.ar   62  TRP62       0.0191
     49  CZ3      -15.7840  -25.2020    0.7930 C.ar   62  TRP62       0.0001
     50  CH2      -15.5430  -25.7470   -0.4730 C.ar   62  TRP62       0.0015
     51  N        -13.8720  -20.3120    4.1780 N.am   63  LYS63      -0.1977
     52  CA       -14.1570  -19.8470    5.5490 C.3    63  LYS63       0.1596
     53  C        -14.3930  -21.0740    6.4390 C.2    63  LYS63       0.2287
     54  O        -14.7560  -22.1250    5.9150 O.2    63  LYS63      -0.2864
     55  CB       -15.3830  -18.9120    5.5680 C.3    63  LYS63       0.0298
     56  CG       -15.0830  -17.4730    5.1230 C.3    63  LYS63       0.0038
     57  CD       -15.2410  -17.2390    3.6010 C.3    63  LYS63       0.0206
     58  CE       -14.5160  -16.0030    3.0840 C.3    63  LYS63       0.1093
     59  NZ       -13.0220  -16.1260    3.1240 N.3    63  LYS63      -0.1314
     60  N        -17.9380  -22.7290    6.1550 N.3    66  GLU66      -0.1245
     61  CA       -18.4520  -23.2220    4.8710 C.3    66  GLU66       0.1567
     62  C        -18.3700  -24.7400    4.7280 C.2    66  GLU66       0.2260
     63  O        -17.3810  -25.3440    5.1680 O.2    66  GLU66      -0.2867
     64  CB       -17.7920  -22.5140    3.6910 C.3    66  GLU66       0.0388
     65  CG       -18.1590  -21.0420    3.5980 C.3    66  GLU66       0.1160
     66  CD       -17.3200  -20.1880    2.6670 C.2    66  GLU66       0.3649
     67  OE1      -16.1540  -20.5530    2.3980 O.co2  66  GLU66      -0.2457
     68  OE2      -17.8150  -19.1240    2.2380 O.co2  66  GLU66      -0.2457
     69  N        -21.1690  -25.5050   -0.9040 N.3    71  GLN71      -0.1245
     70  CA       -20.3790  -24.6590   -1.8050 C.3    71  GLN71       0.1566
     71  C        -20.3510  -25.1940   -3.2300 C.2    71  GLN71       0.2260
     72  O        -20.5010  -24.4220   -4.1800 O.2    71  GLN71      -0.2867
     73  CB       -18.9550  -24.4510   -1.2600 C.3    71  GLN71       0.0367
     74  CG       -18.8600  -23.4570   -0.0950 C.3    71  GLN71       0.0905
     75  CD       -19.7070  -22.2120   -0.2600 C.2    71  GLN71       0.2608
     76  OE1      -19.4690  -21.3480   -1.1120 O.2    71  GLN71      -0.2717
     77  NE2      -20.7360  -22.1130    0.5410 N.am   71  GLN71      -0.0878
     78  N        -22.1400  -22.9760   -6.4170 N.3    75  TRP75      -0.1227
     79  CA       -21.3410  -22.4930   -7.5340 C.3    75  TRP75       0.1737
     80  C        -21.3840  -23.4130   -8.7560 C.2    75  TRP75       0.2595
     81  O        -21.2850  -22.9300   -9.8830 O.2    75  TRP75      -0.2718
     82  CB       -19.9050  -22.2310   -7.0500 C.3    75  TRP75       0.0564
     83  CG       -19.8840  -21.1400   -6.0220 C.ar   75  TRP75       0.0003
     84  CD1      -19.8270  -21.2900   -4.6680 C.ar   75  TRP75       0.0946
     85  CD2      -20.0130  -19.7320   -6.2650 C.ar   75  TRP75       0.0152
     86  NE1      -19.8710  -20.0560   -4.0510 N.ar   75  TRP75      -0.2442
     87  CE2      -19.9900  -19.0840   -5.0080 C.ar   75  TRP75       0.0810
     88  CE3      -20.1310  -18.9500   -7.4280 C.ar   75  TRP75       0.0012
     89  CZ2      -20.0740  -17.6950   -4.8780 C.ar   75  TRP75       0.0191
     90  CZ3      -20.2020  -17.5690   -7.2930 C.ar   75  TRP75       0.0001
     91  CH2      -20.1810  -16.9600   -6.0290 C.ar   75  TRP75       0.0015
     92  N        -21.5470  -24.7420   -8.5380 N.am   76  TYR76      -0.1976
     93  CA       -21.5640  -25.7070   -9.6140 C.3    76  TYR76       0.1639
     94  C        -22.8300  -26.5510   -9.5910 C.2    76  TYR76       0.2290
     95  O        -22.7430  -27.7810   -9.5090 O.2    76  TYR76      -0.2864
     96  CB       -20.2600  -26.5130   -9.5980 C.3    76  TYR76       0.0560
     97  CG       -19.0940  -25.5590   -9.7050 C.ar   76  TYR76      -0.0198
     98  CD1      -18.3380  -25.2270   -8.5880 C.ar   76  TYR76      -0.0009
     99  CD2      -18.8070  -24.9130  -10.9060 C.ar   76  TYR76      -0.0009
    100  CE1      -17.2980  -24.3020   -8.6730 C.ar   76  TYR76       0.0417
    101  CE2      -17.7770  -23.9900  -11.0030 C.ar   76  TYR76       0.0417
    102  CZ       -17.0200  -23.6870   -9.8840 C.ar   76  TYR76       0.1957
    103  OH       -15.9970  -22.7800   -9.9910 O.3    76  TYR76      -0.2866
@<TRIPOS>BOND
     1   101    99   ar
     2   101   102   ar
     3    99    97   ar
     4   103   102    1
     5   102   100   ar
     6    81    80    2
     7    10    11    1
     8    97    96    1
     9    97    98   ar
    10    93    96    1
    11    93    94    1
    12    93    92    1
    13    94    95    2
    14     9     8    1
    15    11    12    1
    16    80    92   am
    17    80    79    1
    18   100    98   ar
    19     8     7    1
    20    13    12    2
    21     7     6    1
    22    12    14   am
    23    79    82    1
    24    79    78    1
    25    88    90   ar
    26    88    85   ar
    27    90    91   ar
    28    82    83    1
    29    14    15    1
    30     6     5    1
    31    85    83   ar
    32    85    87   ar
    33    91    89   ar
    34    83    84   ar
    35    20    19    1
    36    15    16    1
    37    15    18    1
    38     5     2    1
    39    87    89   ar
    40    87    86   ar
    41    84    86   ar
    42    28    26    1
    43    16    17    2
    44    16    22   am
    45    19    21    1
    46    19    18    1
    47     4     3    2
    48     3     2    1
    49    26    27    1
    50    26    23    1
    51    72    71    2
    52    22    23    1
    53     2     1    1
    54    23    24    1
    55    71    70    1
    56    35    34   ar
    57    24    25    2
    58    24    29   am
    59    70    73    1
    60    70    69    1
    61    34    36   ar
    62    34    33    1
    63    73    74    1
    64    29    30    1
    65    48    46   ar
    66    48    50   ar
    67    76    75    2
    68    45    46   ar
    69    45    43   ar
    70    46    44   ar
    71    50    49   ar
    72    33    30    1
    73    75    74    1
    74    75    77   am
    75    30    31    1
    76    43    42   ar
    77    44    42   ar
    78    44    47   ar
    79    49    47   ar
    80    31    32    2
    81    31    37   am
    82    42    41    1
    83    37    38    1
    84    38    41    1
    85    38    39    1
    86    68    66   ar
    87    67    66   ar
    88    66    65    1
    89    58    59    1
    90    58    57    1
    91    65    64    1
    92    57    56    1
    93    39    40    2
    94    39    51   am
    95    64    61    1
    96    51    52    1
    97    62    61    1
    98    62    63    2
    99    61    60    1
   100    56    55    1
   101    52    55    1
   102    52    53    1
   103    54    53    2
