@<TRIPOS>MOLECULE
tmp/5c3kA00.pdb
 103 103 0 0 0
SMALL
GASTEIGER

@<TRIPOS>ATOM
      1  N         -7.2070  -23.5570   -2.6300 N.3    49  LYS49      -0.1245
      2  CA        -7.9530  -23.8470   -3.8610 C.3    49  LYS49       0.1561
      3  C         -8.1480  -25.3440   -4.0710 C.2    49  LYS49       0.2260
      4  O         -7.1890  -26.1040   -4.0560 O.2    49  LYS49      -0.2867
      5  CB        -7.2970  -23.2280   -5.0980 C.3    49  LYS49       0.0271
      6  CG        -8.1660  -23.3780   -6.3420 C.3    49  LYS49       0.0035
      7  CD        -7.7570  -22.4310   -7.4530 C.3    49  LYS49       0.0206
      8  CE        -8.8860  -22.3520   -8.4740 C.3    49  LYS49       0.1093
      9  NZ        -8.4640  -21.6280   -9.7050 N.3    49  LYS49      -0.1314
     10  N        -13.9130  -24.9270   -9.6620 N.3    58  GLY58      -0.1210
     11  CA       -12.8730  -24.4830   -8.7020 C.3    58  GLY58       0.1956
     12  C        -13.4300  -23.5900   -7.5970 C.2    58  GLY58       0.2612
     13  O        -14.3530  -22.8150   -7.8470 O.2    58  GLY58      -0.2717
     14  N        -12.8700  -23.7020   -6.3850 N.am   59  LEU59      -0.1965
     15  CA       -13.2880  -22.9080   -5.2110 C.3    59  LEU59       0.1728
     16  C        -12.1150  -22.5140   -4.3140 C.2    59  LEU59       0.2617
     17  O        -11.3190  -23.3690   -3.9370 O.2    59  LEU59      -0.2715
     18  CB       -14.2710  -23.7160   -4.3710 C.3    59  LEU59       0.0311
     19  CG       -15.8090  -23.6420   -4.4520 C.3    59  LEU59       0.0022
     20  CD1      -16.3960  -22.7110   -5.4830 C.3    59  LEU59       0.0001
     21  CD2      -16.4220  -25.0330   -4.4800 C.3    59  LEU59       0.0001
     22  N        -12.0300  -21.2200   -3.9860 N.am   60  THR60      -0.1937
     23  CA       -10.9570  -20.6570   -3.1790 C.3    60  THR60       0.2028
     24  C        -11.5690  -19.8420   -2.0340 C.2    60  THR60       0.2642
     25  O        -12.7560  -19.5080   -2.0650 O.2    60  THR60      -0.2714
     26  CB       -10.0410  -19.7070   -3.9920 C.3    60  THR60       0.1808
     27  OG1      -10.7570  -18.5080   -4.2870 O.3    60  THR60      -0.2208
     28  CG2       -9.5950  -20.3180   -5.3030 C.3    60  THR60       0.0379
     29  N        -10.7520  -19.5250   -1.0290 N.am   61  ASP61      -0.1957
     30  CA       -11.1450  -18.6160    0.0660 C.3    61  ASP61       0.1840
     31  C        -12.2710  -19.1830    0.9110 C.2    61  ASP61       0.2622
     32  O        -13.3190  -18.5590    1.1080 O.2    61  ASP61      -0.2715
     33  CB       -11.4980  -17.2210   -0.4530 C.3    61  ASP61       0.1450
     34  CG       -10.3990  -16.6100   -1.2920 C.2    61  ASP61       0.3671
     35  OD1      -10.7400  -16.0140   -2.3390 O.co2  61  ASP61      -0.2456
     36  OD2       -9.2030  -16.7200   -0.9160 O.co2  61  ASP61      -0.2456
     37  N        -12.0270  -20.3870    1.4050 N.am   62  TRP62      -0.1960
     38  CA       -12.9590  -21.1130    2.2390 C.3    62  TRP62       0.1771
     39  C        -12.9650  -20.5510    3.6530 C.2    62  TRP62       0.2619
     40  O        -11.9040  -20.2960    4.2330 O.2    62  TRP62      -0.2715
     41  CB       -12.5420  -22.5690    2.2820 C.3    62  TRP62       0.0590
     42  CG       -12.7880  -23.3150    1.0110 C.ar   62  TRP62       0.0006
     43  CD1      -12.0230  -23.3010   -0.1280 C.ar   62  TRP62       0.0946
     44  CD2      -13.8860  -24.1960    0.7520 C.ar   62  TRP62       0.0152
     45  NE1      -12.5810  -24.1240   -1.0840 N.ar   62  TRP62      -0.2442
     46  CE2      -13.7260  -24.6860   -0.5700 C.ar   62  TRP62       0.0810
     47  CE3      -14.9970  -24.6220    1.5140 C.ar   62  TRP62       0.0012
     48  CZ2      -14.6360  -25.5840   -1.1570 C.ar   62  TRP62       0.0191
     49  CZ3      -15.9050  -25.5200    0.9260 C.ar   62  TRP62       0.0001
     50  CH2      -15.7090  -25.9870   -0.4020 C.ar   62  TRP62       0.0015
     51  N        -14.1580  -20.3600    4.2050 N.am   63  LYS63      -0.1977
     52  CA       -14.3180  -19.9440    5.5990 C.3    63  LYS63       0.1596
     53  C        -14.5900  -21.1560    6.5030 C.2    63  LYS63       0.2287
     54  O        -15.1250  -22.1560    6.0170 O.2    63  LYS63      -0.2864
     55  CB       -15.4010  -18.8860    5.7190 C.3    63  LYS63       0.0298
     56  CG       -14.8760  -17.4810    5.4930 C.3    63  LYS63       0.0038
     57  CD       -15.2950  -16.9000    4.1540 C.3    63  LYS63       0.0206
     58  CE       -15.4080  -15.3850    4.2860 C.3    63  LYS63       0.1093
     59  NZ       -16.2470  -14.7680    3.2220 N.3    63  LYS63      -0.1314
     60  N        -17.9310  -23.1010    6.5470 N.3    66  GLU66      -0.1245
     61  CA       -18.4640  -23.4580    5.2370 C.3    66  GLU66       0.1567
     62  C        -18.3660  -24.9360    4.9360 C.2    66  GLU66       0.2260
     63  O        -17.3350  -25.5670    5.1770 O.2    66  GLU66      -0.2867
     64  CB       -17.8190  -22.6360    4.1390 C.3    66  GLU66       0.0388
     65  CG       -18.1610  -21.1560    4.2310 C.3    66  GLU66       0.1160
     66  CD       -17.5420  -20.3490    3.1120 C.2    66  GLU66       0.3649
     67  OE1      -16.6750  -20.8780    2.3900 O.co2  66  GLU66      -0.2457
     68  OE2      -17.9210  -19.1730    2.9480 O.co2  66  GLU66      -0.2457
     69  N        -21.2570  -25.5520   -0.7600 N.3    71  GLN71      -0.1245
     70  CA       -20.5370  -24.6740   -1.6650 C.3    71  GLN71       0.1566
     71  C        -20.5070  -25.2630   -3.0760 C.2    71  GLN71       0.2260
     72  O        -20.6070  -24.5240   -4.0740 O.2    71  GLN71      -0.2867
     73  CB       -19.1100  -24.4230   -1.1200 C.3    71  GLN71       0.0367
     74  CG       -19.0750  -23.6240    0.1990 C.3    71  GLN71       0.0905
     75  CD       -19.6620  -22.2280    0.0900 C.2    71  GLN71       0.2608
     76  OE1      -19.2480  -21.4330   -0.7410 O.2    71  GLN71      -0.2717
     77  NE2      -20.6340  -21.9260    0.9350 N.am   71  GLN71      -0.0878
     78  N        -22.1810  -23.0510   -6.2270 N.3    75  TRP75      -0.1227
     79  CA       -21.4190  -22.5230   -7.3510 C.3    75  TRP75       0.1737
     80  C        -21.4490  -23.4000   -8.6060 C.2    75  TRP75       0.2595
     81  O        -21.3280  -22.8770   -9.7220 O.2    75  TRP75      -0.2718
     82  CB       -19.9560  -22.2090   -6.9160 C.3    75  TRP75       0.0564
     83  CG       -19.9750  -21.1370   -5.8340 C.ar   75  TRP75       0.0003
     84  CD1      -19.9130  -21.3430   -4.4610 C.ar   75  TRP75       0.0946
     85  CD2      -20.0620  -19.7150   -6.0220 C.ar   75  TRP75       0.0152
     86  NE1      -19.9570  -20.1310   -3.8020 N.ar   75  TRP75      -0.2442
     87  CE2      -20.0490  -19.1200   -4.7290 C.ar   75  TRP75       0.0810
     88  CE3      -20.1500  -18.8830   -7.1520 C.ar   75  TRP75       0.0012
     89  CZ2      -20.1200  -17.7330   -4.5400 C.ar   75  TRP75       0.0191
     90  CZ3      -20.2210  -17.5090   -6.9680 C.ar   75  TRP75       0.0001
     91  CH2      -20.2060  -16.9410   -5.6680 C.ar   75  TRP75       0.0015
     92  N        -21.6070  -24.7160   -8.4320 N.am   76  TYR76      -0.1976
     93  CA       -21.6070  -25.6710   -9.5850 C.3    76  TYR76       0.1639
     94  C        -22.8610  -26.5520   -9.5700 C.2    76  TYR76       0.2290
     95  O        -22.7700  -27.7870   -9.4660 O.2    76  TYR76      -0.2864
     96  CB       -20.2750  -26.4500   -9.6700 C.3    76  TYR76       0.0560
     97  CG       -19.1520  -25.4620   -9.6710 C.ar   76  TYR76      -0.0198
     98  CD1      -18.3970  -25.2400   -8.5160 C.ar   76  TYR76      -0.0009
     99  CD2      -18.8350  -24.7280  -10.8420 C.ar   76  TYR76      -0.0009
    100  CE1      -17.3570  -24.3190   -8.5210 C.ar   76  TYR76       0.0417
    101  CE2      -17.7970  -23.8040  -10.8580 C.ar   76  TYR76       0.0417
    102  CZ       -17.0670  -23.6090   -9.6940 C.ar   76  TYR76       0.1957
    103  OH       -16.0490  -22.7100   -9.6960 O.3    76  TYR76      -0.2866
@<TRIPOS>BOND
     1   101    99   ar
     2   101   102   ar
     3    99    97   ar
     4    81    80    2
     5     9     8    1
     6   103   102    1
     7   102   100   ar
     8    97    96    1
     9    97    98   ar
    10    96    93    1
    11    10    11    1
    12    93    94    1
    13    93    92    1
    14    94    95    2
    15    11    12    1
    16    80    92   am
    17    80    79    1
    18   100    98   ar
    19     8     7    1
    20    13    12    2
    21    12    14   am
    22     7     6    1
    23    79    82    1
    24    79    78    1
    25    88    90   ar
    26    88    85   ar
    27    90    91   ar
    28    82    83    1
    29    14    15    1
    30     6     5    1
    31    85    83   ar
    32    85    87   ar
    33    83    84   ar
    34    91    89   ar
    35    20    19    1
    36    28    26    1
    37    15    18    1
    38    15    16    1
    39     5     2    1
    40    87    89   ar
    41    87    86   ar
    42    21    19    1
    43    84    86   ar
    44    19    18    1
    45    16    22   am
    46    16    17    2
    47    27    26    1
    48    72    71    2
    49     3     4    2
    50     3     2    1
    51    26    23    1
    52    22    23    1
    53     2     1    1
    54    23    24    1
    55    71    70    1
    56    35    34   ar
    57    25    24    2
    58    24    29   am
    59    70    73    1
    60    70    69    1
    61    34    36   ar
    62    34    33    1
    63    48    46   ar
    64    48    50   ar
    65    73    74    1
    66    45    46   ar
    67    45    43   ar
    68    29    30    1
    69    76    75    2
    70    46    44   ar
    71    33    30    1
    72    50    49   ar
    73    43    42   ar
    74    30    31    1
    75    75    74    1
    76    75    77   am
    77    44    42   ar
    78    44    47   ar
    79    31    32    2
    80    31    37   am
    81    49    47   ar
    82    42    41    1
    83    37    38    1
    84    38    41    1
    85    38    39    1
    86    67    66   ar
    87    68    66   ar
    88    66    65    1
    89    59    58    1
    90    39    51   am
    91    39    40    2
    92    64    65    1
    93    64    61    1
    94    57    58    1
    95    57    56    1
    96    51    52    1
    97    62    63    2
    98    62    61    1
    99    61    60    1
   100    56    55    1
   101    52    55    1
   102    52    53    1
   103    54    53    2
