@<TRIPOS>MOLECULE
tmp/5c3qA00.pdb
 147 136 0 0 0
SMALL
GASTEIGER

@<TRIPOS>ATOM
      1  N         19.6380   22.5780   35.0330 N.3   120  LYS120     -0.1245
      2  CA        18.5080   22.1320   35.8370 C.3   120  LYS120      0.1561
      3  C         18.8050   20.7790   36.4750 C.2   120  LYS120      0.2260
      4  O         19.7030   20.0650   36.0440 O.2   120  LYS120     -0.2867
      5  CB        17.2470   22.0280   34.9660 C.3   120  LYS120      0.0271
      6  CG        17.2740   20.9030   33.9340 C.3   120  LYS120      0.0035
      7  CD        15.9590   20.7950   33.1760 C.3   120  LYS120      0.0206
      8  CE        15.9610   19.6050   32.2300 C.3   120  LYS120      0.1093
      9  NZ        14.6230   19.3960   31.6040 N.3   120  LYS120     -0.1314
     10  N          7.1990   15.4420   38.6970 N.3   192  ARG192     -0.1245
     11  CA         8.5560   15.9190   38.4440 C.3   192  ARG192      0.1563
     12  C          8.8600   17.1800   39.2540 C.2   192  ARG192      0.2260
     13  O          8.3330   18.2600   38.9690 O.2   192  ARG192     -0.2867
     14  CB         8.7600   16.1960   36.9530 C.3   192  ARG192      0.0307
     15  CG        10.1590   16.6830   36.6010 C.3   192  ARG192      0.0489
     16  CD        10.2790   17.0810   35.1420 C.3   192  ARG192      0.2205
     17  NE        10.8920   16.0380   34.3280 N.pl3 192  ARG192     -0.0865
     18  CZ        11.1990   16.1610   33.0390 C.cat 192  ARG192      0.5346
     19  NH1       10.9430   17.2890   32.3800 N.pl3 192  ARG192      0.1354
     20  NH2       11.7650   15.1420   32.4010 N.pl3 192  ARG192      0.1354
     21  N         11.4290   20.0480   40.0530 N.3   194  LEU194     -0.1245
     22  CA        12.4690   20.7290   39.2830 C.3   194  LEU194      0.1561
     23  C         13.1590   21.8090   40.1010 C.2   194  LEU194      0.2260
     24  O         12.5120   22.5930   40.7970 O.2   194  LEU194     -0.2867
     25  CB        11.8790   21.3590   38.0220 C.3   194  LEU194      0.0270
     26  CG        11.5260   20.3840   36.8960 C.3   194  LEU194      0.0019
     27  CD1       10.4170   20.9380   36.0090 C.3   194  LEU194      0.0001
     28  CD2       12.7660   20.0590   36.0800 C.3   194  LEU194      0.0001
     29  N         16.1500   24.7090   39.2270 N.3   196  TYR196     -0.1241
     30  CA        17.0540   25.3670   38.2980 C.3   196  TYR196      0.1605
     31  C         18.0110   26.2070   39.1410 C.2   196  TYR196      0.2264
     32  O         17.6160   27.2500   39.6550 O.2   196  TYR196     -0.2867
     33  CB        16.2710   26.2530   37.3260 C.3   196  TYR196      0.0534
     34  CG        15.2180   25.5260   36.5150 C.ar  196  TYR196     -0.0201
     35  CD1       13.9190   25.3700   36.9930 C.ar  196  TYR196     -0.0009
     36  CD2       15.5190   25.0000   35.2640 C.ar  196  TYR196     -0.0009
     37  CE1       12.9540   24.7000   36.2480 C.ar  196  TYR196      0.0417
     38  CE2       14.5620   24.3410   34.5110 C.ar  196  TYR196      0.0417
     39  CZ        13.2820   24.1930   35.0060 C.ar  196  TYR196      0.1957
     40  OH        12.3390   23.5380   34.2480 O.3   196  TYR196     -0.2866
     41  N         15.4990   25.0780   30.4130 N.3   213  ALA213     -0.1245
     42  CA        14.8380   23.8770   29.8860 C.3   213  ALA213      0.1562
     43  C         14.6110   24.0160   28.3840 C.2   213  ALA213      0.2260
     44  O         13.9650   24.9610   27.9390 O.2   213  ALA213     -0.2867
     45  CB        13.5160   23.6270   30.5930 C.3   213  ALA213      0.0290
     46  N         10.2460   21.9510   23.9020 N.3   216  HIS216     -0.1241
     47  CA         9.6670   20.6270   23.7580 C.3   216  HIS216      0.1621
     48  C          8.1530   20.7040   23.8420 C.2   216  HIS216      0.2264
     49  O          7.5930   21.7510   24.1830 O.2   216  HIS216     -0.2867
     50  CB        10.1680   19.7280   24.8850 C.3   216  HIS216      0.0745
     51  CG         9.7370   20.1930   26.2340 C.ar  216  HIS216      0.0817
     52  ND1       10.2820   21.3010   26.8440 N.ar  216  HIS216     -0.2268
     53  CD2        8.7800   19.7340   27.0710 C.ar  216  HIS216      0.1154
     54  CE1        9.6940   21.4930   28.0080 C.ar  216  HIS216      0.1986
     55  NE2        8.7790   20.5590   28.1690 N.ar  216  HIS216     -0.2212
     56  N          5.0420   18.3780   25.8060 N.3   218  ASP218     -0.1239
     57  CA         4.7990   17.3380   26.8040 C.3   218  ASP218      0.1674
     58  C          4.1210   16.1490   26.1310 C.2   218  ASP218      0.2266
     59  O          3.5010   16.3010   25.0750 O.2   218  ASP218     -0.2867
     60  CB         3.9440   17.8700   27.9600 C.3   218  ASP218      0.1410
     61  CG         4.6890   18.8710   28.8440 C.2   218  ASP218      0.3668
     62  OD1        5.9050   19.0990   28.6630 O.co2 218  ASP218     -0.2456
     63  OD2        4.0450   19.4360   29.7470 O.co2 218  ASP218     -0.2456
     64  N         -0.4880   18.4420   31.7060 N.3   223  THR223     -0.1218
     65  CA         0.5410   18.6820   32.6910 C.3   223  THR223      0.1862
     66  C          0.0540   19.7830   33.6100 C.2   223  THR223      0.2287
     67  O         -0.4810   20.7910   33.1450 O.2   223  THR223     -0.2866
     68  CB         1.8750   19.0980   32.0420 C.3   223  THR223      0.1770
     69  OG1        2.3250   18.0610   31.1700 O.3   223  THR223     -0.2211
     70  CG2        2.9520   19.3620   33.1030 C.3   223  THR223      0.0375
     71  N          1.4860   22.4150   35.9430 N.3   225  LEU225     -0.1245
     72  CA         2.7590   23.0760   36.2110 C.3   225  LEU225      0.1561
     73  C          2.6070   24.1370   37.2880 C.2   225  LEU225      0.2260
     74  O          1.9280   25.1480   37.0940 O.2   225  LEU225     -0.2867
     75  CB         3.3330   23.7060   34.9370 C.3   225  LEU225      0.0270
     76  CG         4.7060   24.3500   35.1680 C.3   225  LEU225      0.0019
     77  CD1        5.7960   23.2950   35.2710 C.3   225  LEU225      0.0001
     78  CD2        5.0290   25.3390   34.0680 C.3   225  LEU225      0.0001
     79  N          9.4740   30.7270   32.0090 N.3   233  LEU233     -0.1245
     80  CA         8.6410   29.8550   31.1820 C.3   233  LEU233      0.1561
     81  C          8.0880   30.6270   29.9880 C.2   233  LEU233      0.2260
     82  O          7.5790   31.7350   30.1380 O.2   233  LEU233     -0.2867
     83  CB         7.4870   29.2630   31.9940 C.3   233  LEU233      0.0270
     84  CG         6.4810   28.4070   31.2130 C.3   233  LEU233      0.0019
     85  CD1        7.1260   27.1440   30.6670 C.3   233  LEU233      0.0001
     86  CD2        5.2900   28.0580   32.0880 C.3   233  LEU233      0.0001
     87  N          6.9400   24.7150   24.4360 N.3   273  HIS273     -0.1226
     88  CA         7.3280   25.6140   25.5100 C.3   273  HIS273      0.1752
     89  C          8.7510   25.3180   25.9800 C.2   273  HIS273      0.2596
     90  O          9.3190   24.2750   25.6620 O.2   273  HIS273     -0.2718
     91  CB         6.3360   25.5190   26.6750 C.3   273  HIS273      0.0759
     92  CG         6.0900   24.1240   27.1470 C.ar  273  HIS273      0.0818
     93  ND1        5.4100   23.1900   26.3930 N.ar  273  HIS273     -0.2268
     94  CD2        6.4370   23.5000   28.2950 C.ar  273  HIS273      0.1154
     95  CE1        5.3520   22.0510   27.0580 C.ar  273  HIS273      0.1986
     96  NE2        5.9680   22.2140   28.2130 N.ar  273  HIS273     -0.2212
     97  N          9.3190   26.2580   26.7300 N.am  274  ARG274     -0.1966
     98  CA        10.7020   26.1740   27.1810 C.3   274  ARG274      0.1729
     99  C         10.8700   27.0280   28.4280 C.2   274  ARG274      0.2616
    100  O          9.9510   27.7510   28.8170 O.2   274  ARG274     -0.2715
    101  CB        11.6560   26.6580   26.0830 C.3   274  ARG274      0.0348
    102  CG        11.6250   28.1600   25.8410 C.3   274  ARG274      0.0492
    103  CD        12.4100   28.5590   24.6050 C.3   274  ARG274      0.2205
    104  NE        12.4430   30.0110   24.4450 N.pl3 274  ARG274     -0.0865
    105  CZ        13.1810   30.6630   23.5500 C.cat 274  ARG274      0.5346
    106  NH1       13.9690   30.0050   22.7070 N.pl3 274  ARG274      0.1354
    107  NH2       13.1380   31.9870   23.5050 N.pl3 274  ARG274      0.1354
    108  N         12.0430   26.9400   29.0490 N.am  275  VAL275     -0.1977
    109  CA        12.4000   27.8400   30.1400 C.3   275  VAL275      0.1596
    110  C         13.7440   28.4870   29.8180 C.2   275  VAL275      0.2287
    111  O         14.7300   27.7930   29.5750 O.2   275  VAL275     -0.2864
    112  CB        12.4760   27.1270   31.5040 C.3   275  VAL275      0.0276
    113  CG1       12.6990   28.1400   32.6220 C.3   275  VAL275      0.0022
    114  CG2       11.2010   26.3420   31.7750 C.3   275  VAL275      0.0022
    115  N         15.4190   28.8450   40.6940 N.3   288  ARG288     -0.1245
    116  CA        14.0180   28.7060   40.3080 C.3   288  ARG288      0.1563
    117  C         13.5270   27.2920   40.6330 C.2   288  ARG288      0.2260
    118  O         14.1900   26.2980   40.3110 O.2   288  ARG288     -0.2867
    119  CB        13.8260   29.0110   38.8170 C.3   288  ARG288      0.0307
    120  CG        12.4260   28.7300   38.2840 C.3   288  ARG288      0.0489
    121  CD        12.2180   29.3190   36.8980 C.3   288  ARG288      0.2205
    122  NE        10.8220   29.2410   36.4660 N.pl3 288  ARG288     -0.0865
    123  CZ        10.2380   28.1690   35.9270 C.cat 288  ARG288      0.5346
    124  NH1       10.9150   27.0410   35.7390 N.pl3 288  ARG288      0.1354
    125  NH2        8.9550   28.2260   35.5770 N.pl3 288  ARG288      0.1354
    126  N         10.1790   24.7020   40.2140 N.3   290  SER290     -0.1217
    127  CA         8.8720   24.3800   39.6770 C.3   290  SER290      0.1889
    128  C          8.5800   22.9090   39.9130 C.2   290  SER290      0.2288
    129  O          9.4750   22.1180   40.2490 O.2   290  SER290     -0.2866
    130  CB         8.7890   24.7210   38.1840 C.3   290  SER290      0.2089
    131  OG         9.6690   23.9190   37.4200 O.3   290  SER290     -0.2183
    132  N          6.3770   19.9520   37.8450 N.3   292  ALA292     -0.1245
    133  CA         5.5710   19.4940   36.7240 C.3   292  ALA292      0.1562
    134  C          4.9510   18.1530   37.0730 C.2   292  ALA292      0.2260
    135  O          5.6610   17.1610   37.2740 O.2   292  ALA292     -0.2867
    136  CB         6.4180   19.3720   35.4710 C.3   292  ALA292      0.0290
    137  N          3.0640   15.4430   35.3920 N.3   294  PHE294     -0.1241
    138  CA         2.6820   14.9030   34.0890 C.3   294  PHE294      0.1605
    139  C          1.5390   13.9180   34.2700 C.2   294  PHE294      0.2264
    140  O          1.7000   12.8810   34.9250 O.2   294  PHE294     -0.2867
    141  CB         3.8630   14.1860   33.4300 C.3   294  PHE294      0.0534
    142  CG         5.0530   15.0690   33.1880 C.ar  294  PHE294     -0.0203
    143  CD1        4.9420   16.1890   32.3800 C.ar  294  PHE294     -0.0042
    144  CD2        6.2830   14.7730   33.7510 C.ar  294  PHE294     -0.0042
    145  CE1        6.0370   17.0020   32.1420 C.ar  294  PHE294     -0.0003
    146  CE2        7.3810   15.5790   33.5170 C.ar  294  PHE294     -0.0003
    147  CZ         7.2590   16.6960   32.7130 C.ar  294  PHE294     -0.0000
@<TRIPOS>BOND
     1   106   105    1
     2   107   105    1
     3   105   104    2
     4    47    48    1
     5    47    46    1
     6    47    50    1
     7    48    49    2
     8    87    88    1
     9   104   103    1
    10   103   102    1
    11    50    51    1
    12    59    58    2
    13    88    89    1
    14    88    91    1
    15    90    89    2
    16    56    57    1
    17   102   101    1
    18    89    97   am
    19   101    98    1
    20    58    57    1
    21    51    52   ar
    22    51    53   ar
    23    93    95   ar
    24    93    92   ar
    25    91    92    1
    26    97    98    1
    27    57    60    1
    28    52    54   ar
    29    95    96   ar
    30    53    55   ar
    31    92    94   ar
    32    98    99    1
    33    44    43    2
    34    60    61    1
    35    54    55   ar
    36    96    94   ar
    37    43    42    1
    38    99   100    2
    39    99   108   am
    40    62    61   ar
    41    61    63   ar
    42   108   109    1
    43   111   110    2
    44   110   109    1
    45    42    41    1
    46    42    45    1
    47    81    82    2
    48    81    80    1
    49   109   112    1
    50    85    84    1
    51    69    68    1
    52    80    83    1
    53    80    79    1
    54    84    83    1
    55    84    86    1
    56   112   114    1
    57   112   113    1
    58     9     8    1
    59    64    65    1
    60    68    65    1
    61    68    70    1
    62   145   143   ar
    63   145   147   ar
    64     8     7    1
    65   143   142   ar
    66    19    18    1
    67    20    18    1
    68    65    66    1
    69   147   146   ar
    70    18    17    2
    71    67    66    2
    72     7     6    1
    73   142   141    1
    74   142   144   ar
    75   141   138    1
    76   146   144   ar
    77     6     5    1
    78    78    76    1
    79   138   139    1
    80   138   137    1
    81    40    39    1
    82   139   140    2
    83    17    16    1
    84    38    39   ar
    85    38    36   ar
    86    75    76    1
    87    75    72    1
    88     5     2    1
    89    39    37   ar
    90     1     2    1
    91    16    15    1
    92    76    77    1
    93    36    34   ar
    94   136   133    1
    95   125   123    1
    96   124   123    1
    97     2     3    1
    98   123   122    2
    99    71    72    1
   100    27    26    1
   101     4     3    2
   102    28    26    1
   103    72    73    1
   104    37    35   ar
   105   122   121    1
   106    34    35   ar
   107    34    33    1
   108    15    14    1
   109   133   134    1
   110   133   132    1
   111    26    25    1
   112   121   120    1
   113    14    11    1
   114   134   135    2
   115    74    73    2
   116    33    30    1
   117   131   130    1
   118    25    22    1
   119   130   127    1
   120   120   119    1
   121    30    31    1
   122    30    29    1
   123    11    10    1
   124    11    12    1
   125   119   116    1
   126    13    12    2
   127    31    32    2
   128    22    21    1
   129    22    23    1
   130   127   128    1
   131   127   126    1
   132   128   129    2
   133    23    24    2
   134   116   117    1
   135   116   115    1
   136   118   117    2
