@<TRIPOS>MOLECULE
tmp/5c3qA01.pdb
 105 98 0 0 0
SMALL
GASTEIGER

@<TRIPOS>ATOM
      1  N         10.9870    5.4830   34.6730 N.3    89  ASN89      -0.1240
      2  CA        10.8170    6.9410   34.6330 C.3    89  ASN89       0.1653
      3  C         10.7310    7.5740   36.0270 C.2    89  ASN89       0.2266
      4  O          9.9090    8.4530   36.2750 O.2    89  ASN89      -0.2867
      5  CB         9.5870    7.3100   33.7920 C.3    89  ASN89       0.1155
      6  CG         9.6140    8.7520   33.3110 C.2    89  ASN89       0.2627
      7  OD1       10.6740    9.3680   33.2230 O.2    89  ASN89      -0.2716
      8  ND2        8.4440    9.2940   32.9940 N.am   89  ASN89      -0.0877
      9  N         11.9000   12.5880   39.8910 N.3   124  GLU124     -0.1245
     10  CA        10.5990   12.1160   39.4330 C.3   124  GLU124      0.1567
     11  C         10.0310   10.9720   40.2770 C.2   124  GLU124      0.2260
     12  O         10.7250   10.0030   40.6040 O.2   124  GLU124     -0.2867
     13  CB        10.6920   11.7330   37.9640 C.3   124  GLU124      0.0388
     14  CG        10.8020   12.9710   37.0820 C.3   124  GLU124      0.1160
     15  CD        11.2880   12.6800   35.6830 C.2   124  GLU124      0.3649
     16  OE1       10.7040   13.2410   34.7260 O.co2 124  GLU124     -0.2457
     17  OE2       12.2590   11.9110   35.5360 O.co2 124  GLU124     -0.2457
     18  N          3.3840   11.1490   36.5620 N.3   190  ILE190     -0.1245
     19  CA         4.7440   11.3850   37.0350 C.3   190  ILE190      0.1561
     20  C          4.8350   12.7670   37.6700 C.2   190  ILE190      0.2260
     21  O          4.5150   13.7810   37.0430 O.2   190  ILE190     -0.2867
     22  CB         5.7850   11.2400   35.9040 C.3   190  ILE190      0.0252
     23  CG1        5.8370    9.7920   35.3950 C.3   190  ILE190      0.0019
     24  CG2        7.1680   11.6930   36.3600 C.3   190  ILE190      0.0019
     25  CD1        6.4260    8.7860   36.3660 C.3   190  ILE190      0.0001
     26  N          7.1990   15.4420   38.6970 N.3   192  ARG192     -0.1245
     27  CA         8.5560   15.9190   38.4440 C.3   192  ARG192      0.1563
     28  C          8.8600   17.1800   39.2540 C.2   192  ARG192      0.2260
     29  O          8.3330   18.2600   38.9690 O.2   192  ARG192     -0.2867
     30  CB         8.7600   16.1960   36.9530 C.3   192  ARG192      0.0307
     31  CG        10.1590   16.6830   36.6010 C.3   192  ARG192      0.0489
     32  CD        10.2790   17.0810   35.1420 C.3   192  ARG192      0.2205
     33  NE        10.8920   16.0380   34.3280 N.pl3 192  ARG192     -0.0865
     34  CZ        11.1990   16.1610   33.0390 C.cat 192  ARG192      0.5346
     35  NH1       10.9430   17.2890   32.3800 N.pl3 192  ARG192      0.1354
     36  NH2       11.7650   15.1420   32.4010 N.pl3 192  ARG192      0.1354
     37  N         10.2460   21.9510   23.9020 N.3   216  HIS216     -0.1241
     38  CA         9.6670   20.6270   23.7580 C.3   216  HIS216      0.1621
     39  C          8.1530   20.7040   23.8420 C.2   216  HIS216      0.2264
     40  O          7.5930   21.7510   24.1830 O.2   216  HIS216     -0.2867
     41  CB        10.1680   19.7280   24.8850 C.3   216  HIS216      0.0745
     42  CG         9.7370   20.1930   26.2340 C.ar  216  HIS216      0.0817
     43  ND1       10.2820   21.3010   26.8440 N.ar  216  HIS216     -0.2268
     44  CD2        8.7800   19.7340   27.0710 C.ar  216  HIS216      0.1154
     45  CE1        9.6940   21.4930   28.0080 C.ar  216  HIS216      0.1986
     46  NE2        8.7790   20.5590   28.1690 N.ar  216  HIS216     -0.2212
     47  N          5.0420   18.3780   25.8060 N.3   218  ASP218     -0.1225
     48  CA         4.7990   17.3380   26.8040 C.3   218  ASP218      0.1805
     49  C          4.1210   16.1490   26.1310 C.2   218  ASP218      0.2598
     50  O          3.5010   16.3010   25.0750 O.2   218  ASP218     -0.2718
     51  CB         3.9440   17.8700   27.9600 C.3   218  ASP218      0.1424
     52  CG         4.6890   18.8710   28.8440 C.2   218  ASP218      0.3668
     53  OD1        5.9050   19.0990   28.6630 O.co2 218  ASP218     -0.2456
     54  OD2        4.0450   19.4360   29.7470 O.co2 218  ASP218     -0.2456
     55  N          4.2270   14.9730   26.7490 N.am  219  TYR219     -0.1962
     56  CA         3.8670   13.7130   26.0890 C.3   219  TYR219      0.1771
     57  C          2.4430   13.2230   26.3460 C.2   219  TYR219      0.2620
     58  O          1.8570   12.5550   25.4840 O.2   219  TYR219     -0.2715
     59  CB         4.8140   12.5850   26.5270 C.3   219  TYR219      0.0574
     60  CG         6.2930   12.8830   26.4580 C.ar  219  TYR219     -0.0198
     61  CD1        6.8230   13.7480   25.5000 C.ar  219  TYR219     -0.0009
     62  CD2        7.1770   12.2600   27.3360 C.ar  219  TYR219     -0.0009
     63  CE1        8.1810   14.0030   25.4430 C.ar  219  TYR219      0.0417
     64  CE2        8.5360   12.5090   27.2820 C.ar  219  TYR219      0.0417
     65  CZ         9.0320   13.3780   26.3370 C.ar  219  TYR219      0.1957
     66  OH        10.3850   13.6200   26.2840 O.3   219  TYR219     -0.2866
     67  N          1.9050   13.5260   27.5280 N.am  220  GLY220     -0.1954
     68  CA         0.7080   12.8480   28.0480 C.3   220  GLY220      0.1869
     69  C         -0.6250   13.5180   27.7530 C.2   220  GLY220      0.2309
     70  O         -0.8230   14.0920   26.6790 O.2   220  GLY220     -0.2863
     71  N          3.0640   15.4430   35.3920 N.3   294  PHE294     -0.1241
     72  CA         2.6820   14.9030   34.0890 C.3   294  PHE294      0.1605
     73  C          1.5390   13.9180   34.2700 C.2   294  PHE294      0.2264
     74  O          1.7000   12.8810   34.9250 O.2   294  PHE294     -0.2867
     75  CB         3.8630   14.1860   33.4300 C.3   294  PHE294      0.0534
     76  CG         5.0530   15.0690   33.1880 C.ar  294  PHE294     -0.0203
     77  CD1        4.9420   16.1890   32.3800 C.ar  294  PHE294     -0.0042
     78  CD2        6.2830   14.7730   33.7510 C.ar  294  PHE294     -0.0042
     79  CE1        6.0370   17.0020   32.1420 C.ar  294  PHE294     -0.0003
     80  CE2        7.3810   15.5790   33.5170 C.ar  294  PHE294     -0.0003
     81  CZ         7.2590   16.6960   32.7130 C.ar  294  PHE294     -0.0000
     82  N         -1.1200   11.2490   32.6060 N.3   296  ASN296     -0.1240
     83  CA        -1.2050   10.3200   31.4900 C.3   296  ASN296      0.1653
     84  C         -2.4920    9.5120   31.5500 C.2   296  ASN296      0.2266
     85  O         -3.0300    9.2820   32.6320 O.2   296  ASN296     -0.2867
     86  CB        -0.0230    9.3480   31.5330 C.3   296  ASN296      0.1155
     87  CG         1.3190   10.0470   31.3640 C.2   296  ASN296      0.2627
     88  OD1        1.5410   10.7510   30.3820 O.2   296  ASN296     -0.2716
     89  ND2        2.2220    9.8420   32.3130 N.am  296  ASN296     -0.0877
     90  N          4.2660    6.3170   25.4130 N.3   327  LEU327     -0.1245
     91  CA         5.0700    7.0750   26.3750 C.3   327  LEU327      0.1561
     92  C          6.5000    6.5660   26.4820 C.2   327  LEU327      0.2260
     93  O          7.4370    7.3640   26.4780 O.2   327  LEU327     -0.2867
     94  CB         4.4320    7.0600   27.7640 C.3   327  LEU327      0.0270
     95  CG         3.2350    7.9830   27.9810 C.3   327  LEU327      0.0019
     96  CD1        2.6400    7.6960   29.3470 C.3   327  LEU327      0.0001
     97  CD2        3.6260    9.4510   27.8690 C.3   327  LEU327      0.0001
     98  N          9.9660    8.5460   25.9600 N.3   331  LEU331     -0.1245
     99  CA        10.9530    8.6030   27.0380 C.3   331  LEU331      0.1561
    100  C         12.2750    7.9440   26.6550 C.2   331  LEU331      0.2260
    101  O         13.3340    8.3900   27.0820 O.2   331  LEU331     -0.2867
    102  CB        10.4000    7.9400   28.3000 C.3   331  LEU331      0.0270
    103  CG         9.2580    8.6970   28.9740 C.3   331  LEU331      0.0019
    104  CD1        8.4190    7.7740   29.8440 C.3   331  LEU331      0.0001
    105  CD2        9.8060    9.8640   29.7820 C.3   331  LEU331      0.0001
@<TRIPOS>BOND
     1    38    39    1
     2    38    37    1
     3    38    41    1
     4    39    40    2
     5    41    42    1
     6    50    49    2
     7    90    91    1
     8    63    61   ar
     9    63    65   ar
    10    58    57    2
    11    61    60   ar
    12    47    48    1
    13    98    99    1
    14    56    57    1
    15    56    59    1
    16    56    55    1
    17    49    55   am
    18    49    48    1
    19    42    43   ar
    20    42    44   ar
    21    66    65    1
    22    65    64   ar
    23    57    67   am
    24    91    92    1
    25    91    94    1
    26    60    59    1
    27    60    62   ar
    28    93    92    2
    29   100    99    1
    30   100   101    2
    31    70    69    2
    32    48    51    1
    33    43    45   ar
    34    99   102    1
    35    44    46   ar
    36    64    62   ar
    37    67    68    1
    38    69    68    1
    39    94    95    1
    40    97    95    1
    41    51    52    1
    42    95    96    1
    43    45    46   ar
    44   102   103    1
    45    53    52   ar
    46    52    54   ar
    47   103   105    1
    48   103   104    1
    49    88    87    2
    50    87    86    1
    51    87    89   am
    52    83    86    1
    53    83    84    1
    54    83    82    1
    55    84    85    2
    56    79    77   ar
    57    79    81   ar
    58    35    34    1
    59    77    76   ar
    60    36    34    1
    61    81    80   ar
    62     8     6   am
    63    34    33    2
    64    76    75    1
    65    76    78   ar
    66     7     6    2
    67     6     5    1
    68    75    72    1
    69    80    78   ar
    70     5     2    1
    71    72    73    1
    72    72    71    1
    73    73    74    2
    74    33    32    1
    75     2     1    1
    76     2     3    1
    77    16    15   ar
    78    32    31    1
    79    23    22    1
    80    23    25    1
    81    17    15   ar
    82    15    14    1
    83    22    24    1
    84    22    19    1
    85     3     4    2
    86    18    19    1
    87    31    30    1
    88    30    27    1
    89    19    20    1
    90    21    20    2
    91    14    13    1
    92    13    10    1
    93    27    26    1
    94    27    28    1
    95    29    28    2
    96    10     9    1
    97    10    11    1
    98    11    12    2
