@<TRIPOS>MOLECULE
tmp/5c3qC00.pdb
 147 136 0 0 0
SMALL
GASTEIGER

@<TRIPOS>ATOM
      1  N          1.8670   60.0490   17.9240 N.3    97  LYS97      -0.1245
      2  CA         0.8020   60.1570   16.9400 C.3    97  LYS97       0.1561
      3  C          0.7510   61.5400   16.3140 C.2    97  LYS97       0.2260
      4  O          1.2870   62.5060   16.8580 O.2    97  LYS97      -0.2867
      5  CB        -0.5510   59.8610   17.5930 C.3    97  LYS97       0.0271
      6  CG        -1.0670   60.9690   18.5000 C.3    97  LYS97       0.0035
      7  CD        -2.3840   60.5850   19.1520 C.3    97  LYS97       0.0206
      8  CE        -2.9800   61.7510   19.9220 C.3    97  LYS97       0.1093
      9  NZ        -4.2810   61.3830   20.5420 N.3    97  LYS97      -0.1314
     10  N        -11.7700   63.1770   13.0390 N.3   169  ARG169     -0.1245
     11  CA       -10.3450   63.1630   13.3680 C.3   169  ARG169      0.1563
     12  C         -9.6420   62.0220   12.6410 C.2   169  ARG169      0.2260
     13  O         -9.9100   60.8460   12.9110 O.2   169  ARG169     -0.2867
     14  CB       -10.1420   63.0140   14.8800 C.3   169  ARG169      0.0307
     15  CG        -8.6870   62.8710   15.3100 C.3   169  ARG169      0.0489
     16  CD        -8.5470   62.5720   16.7990 C.3   169  ARG169      0.2205
     17  NE        -8.3400   63.7830   17.5900 N.pl3 169  ARG169     -0.0865
     18  CZ        -8.1260   63.8060   18.9030 C.cat 169  ARG169      0.5346
     19  NH1       -8.0940   62.6810   19.6140 N.pl3 169  ARG169      0.1354
     20  NH2       -7.9430   64.9720   19.5140 N.pl3 169  ARG169      0.1354
     21  N         -6.3340   59.9360   12.2600 N.3   171  LEU171     -0.1245
     22  CA        -5.1990   59.6040   13.1050 C.3   171  LEU171      0.1561
     23  C         -4.1760   58.7700   12.3490 C.2   171  LEU171      0.2260
     24  O         -4.5280   57.8490   11.6060 O.2   171  LEU171     -0.2867
     25  CB        -5.6690   58.8440   14.3440 C.3   171  LEU171      0.0270
     26  CG        -6.3210   59.7270   15.4070 C.3   171  LEU171      0.0019
     27  CD1       -7.2860   58.9360   16.2740 C.3   171  LEU171      0.0001
     28  CD2       -5.2530   60.4030   16.2580 C.3   171  LEU171      0.0001
     29  N         -0.5330   56.8820   13.5080 N.3   173  TYR173     -0.1241
     30  CA         0.4760   56.5240   14.4890 C.3   173  TYR173      0.1605
     31  C          1.6710   55.9600   13.7180 C.2   173  TYR173      0.2264
     32  O          1.6220   54.8220   13.2500 O.2   173  TYR173     -0.2867
     33  CB        -0.0720   55.4850   15.4680 C.3   173  TYR173      0.0534
     34  CG        -1.3190   55.9170   16.2220 C.ar  173  TYR173     -0.0201
     35  CD1       -2.5880   55.7550   15.6690 C.ar  173  TYR173     -0.0009
     36  CD2       -1.2270   56.4800   17.4910 C.ar  173  TYR173     -0.0009
     37  CE1       -3.7290   56.1430   16.3610 C.ar  173  TYR173      0.0417
     38  CE2       -2.3580   56.8690   18.1890 C.ar  173  TYR173      0.0417
     39  CZ        -3.6050   56.6980   17.6240 C.ar  173  TYR173      0.1957
     40  OH        -4.7270   57.0860   18.3250 O.3   173  TYR173     -0.2866
     41  N         -1.5400   56.4030   22.3240 N.3   190  ALA190     -0.1245
     42  CA        -2.5240   57.4140   22.7140 C.3   190  ALA190      0.1562
     43  C         -2.7950   57.3200   24.2070 C.2   190  ALA190      0.2260
     44  O         -3.1460   56.2520   24.7140 O.2   190  ALA190     -0.2867
     45  CB        -3.8120   57.2480   21.9250 C.3   190  ALA190      0.0290
     46  N         -7.7890   58.3450   28.3670 N.3   193  HIS193     -0.1241
     47  CA        -8.7200   59.4620   28.4420 C.3   193  HIS193      0.1621
     48  C        -10.1550   58.9850   28.2830 C.2   193  HIS193      0.2264
     49  O        -10.4010   57.8170   27.9730 O.2   193  HIS193     -0.2867
     50  CB        -8.4380   60.4400   27.3120 C.3   193  HIS193      0.0745
     51  CG        -8.6630   59.8500   25.9580 C.ar  193  HIS193      0.0817
     52  ND1       -7.7960   58.9410   25.3920 N.ar  193  HIS193     -0.2268
     53  CD2       -9.6740   60.0070   25.0720 C.ar  193  HIS193      0.1154
     54  CE1       -8.2520   58.5780   24.2080 C.ar  193  HIS193      0.1986
     55  NE2       -9.3900   59.2100   23.9920 N.ar  193  HIS193     -0.2212
     56  N        -13.6520   60.4180   26.0470 N.3   195  ASP195     -0.1239
     57  CA       -14.1080   61.3370   25.0150 C.3   195  ASP195      0.1674
     58  C        -15.1370   62.3040   25.6100 C.2   195  ASP195      0.2266
     59  O        -15.7500   62.0050   26.6330 O.2   195  ASP195     -0.2867
     60  CB       -14.7080   60.5640   23.8420 C.3   195  ASP195      0.1410
     61  CG       -13.6760   59.7280   23.0870 C.2   195  ASP195      0.3668
     62  OD1      -12.4630   59.8230   23.3820 O.co2 195  ASP195     -0.2456
     63  OD2      -14.0860   58.9640   22.1860 O.co2 195  ASP195     -0.2456
     64  N        -18.6600   58.6030   19.9520 N.3   200  THR200     -0.1218
     65  CA       -17.5560   58.6040   19.0100 C.3   200  THR200      0.1862
     66  C        -17.6430   57.3490   18.1390 C.2   200  THR200      0.2287
     67  O        -17.8180   56.2480   18.6540 O.2   200  THR200     -0.2866
     68  CB       -16.2100   58.6170   19.7510 C.3   200  THR200      0.1770
     69  OG1      -16.1520   59.7620   20.6080 O.3   200  THR200     -0.2211
     70  CG2      -15.0410   58.6540   18.7780 C.3   200  THR200      0.0375
     71  N        -15.4410   55.0520   15.9590 N.3   202  LEU202     -0.1245
     72  CA       -14.0260   54.7690   15.7690 C.3   202  LEU202      0.1561
     73  C        -13.8220   53.6690   14.7390 C.2   202  LEU202      0.2260
     74  O        -14.2230   52.5210   14.9490 O.2   202  LEU202     -0.2867
     75  CB       -13.3690   54.3710   17.0890 C.3   202  LEU202      0.0270
     76  CG       -11.8660   54.0880   16.9690 C.3   202  LEU202      0.0019
     77  CD1      -11.0850   55.3700   16.7370 C.3   202  LEU202      0.0001
     78  CD2      -11.3570   53.3770   18.2080 C.3   202  LEU202      0.0001
     79  N         -5.7680   49.3250   20.5930 N.3   210  LEU210     -0.1245
     80  CA        -6.8470   49.9760   21.3290 C.3   210  LEU210      0.1561
     81  C         -7.1690   49.1500   22.5650 C.2   210  LEU210      0.2260
     82  O         -7.3130   47.9260   22.4750 O.2   210  LEU210     -0.2867
     83  CB        -8.1000   50.1220   20.4590 C.3   210  LEU210      0.0270
     84  CG        -9.2890   50.8410   21.1010 C.3   210  LEU210      0.0019
     85  CD1       -8.9630   52.2970   21.4210 C.3   210  LEU210      0.0001
     86  CD2      -10.5030   50.7540   20.1880 C.3   210  LEU210      0.0001
     87  N        -10.1710   54.8230   27.8270 N.3   250  HIS250     -0.1226
     88  CA        -9.4990   54.0180   26.8210 C.3   250  HIS250      0.1752
     89  C         -8.1840   54.6610   26.4030 C.2   250  HIS250      0.2596
     90  O         -7.9380   55.8380   26.6800 O.2   250  HIS250     -0.2718
     91  CB       -10.4040   53.8090   25.6070 C.3   250  HIS250      0.0759
     92  CG       -10.9850   55.0740   25.0560 C.ar  250  HIS250      0.0818
     93  ND1      -11.9740   55.7810   25.7040 N.ar  250  HIS250     -0.2268
     94  CD2      -10.7270   55.7510   23.9130 C.ar  250  HIS250      0.1154
     95  CE1      -12.2990   56.8390   24.9870 C.ar  250  HIS250      0.1986
     96  NE2      -11.5570   56.8440   23.8960 N.ar  250  HIS250     -0.2212
     97  N         -7.3510   53.8670   25.7440 N.am  251  ARG251     -0.1966
     98  CA        -6.0310   54.2880   25.3010 C.3   251  ARG251      0.1729
     99  C         -5.6120   53.4460   24.1030 C.2   251  ARG251      0.2616
    100  O         -6.2720   52.4480   23.7660 O.2   251  ARG251     -0.2715
    101  CB        -5.0100   54.1100   26.4320 C.3   251  ARG251      0.0348
    102  CG        -4.7420   52.6550   26.8080 C.3   251  ARG251      0.0492
    103  CD        -3.7790   52.5290   27.9770 C.3   251  ARG251      0.2205
    104  NE        -3.4320   51.1340   28.2300 N.pl3 251  ARG251     -0.0865
    105  CZ        -2.6840   50.7050   29.2430 C.cat 251  ARG251      0.5346
    106  NH1       -2.1830   51.5610   30.1290 N.pl3 251  ARG251      0.1354
    107  NH2       -2.4370   49.4070   29.3720 N.pl3 251  ARG251      0.1354
    108  N         -4.5100   53.8470   23.4730 N.am  252  VAL252     -0.1977
    109  CA        -3.8810   53.0360   22.4410 C.3   252  VAL252      0.1596
    110  C         -2.4350   52.7620   22.8570 C.2   252  VAL252      0.2287
    111  O         -1.6520   53.6960   23.0790 O.2   252  VAL252     -0.2864
    112  CB        -3.9130   53.7090   21.0610 C.3   252  VAL252      0.0276
    113  CG1       -3.2900   52.7950   20.0160 C.3   252  VAL252      0.0022
    114  CG2       -5.3440   54.0600   20.6630 C.3   252  VAL252      0.0022
    115  N          0.0070   52.7060   12.1460 N.3   265  ARG265     -0.1245
    116  CA        -1.3880   52.3880   12.4480 C.3   265  ARG265      0.1563
    117  C         -2.2540   53.5790   12.0830 C.2   265  ARG265      0.2260
    118  O         -1.9270   54.7190   12.4150 O.2   265  ARG265     -0.2867
    119  CB        -1.5730   52.0270   13.9250 C.3   265  ARG265      0.0307
    120  CG        -3.0270   51.8750   14.3550 C.3   265  ARG265      0.0489
    121  CD        -3.1440   51.3020   15.7550 C.3   265  ARG265      0.2205
    122  NE        -4.5370   51.1050   16.1660 N.pl3 265  ARG265     -0.0865
    123  CZ        -5.3360   52.0520   16.6600 C.cat 265  ARG265      0.5346
    124  NH1       -4.9030   53.2950   16.8130 N.pl3 265  ARG265      0.1354
    125  NH2       -6.5840   51.7510   17.0020 N.pl3 265  ARG265      0.1354
    126  N         -6.2650   55.1390   12.2080 N.3   267  SER267     -0.1217
    127  CA        -7.6290   55.0590   12.7080 C.3   267  SER267      0.1889
    128  C         -8.3290   56.3630   12.3880 C.2   267  SER267      0.2288
    129  O         -7.6810   57.3600   12.0570 O.2   267  SER267     -0.2866
    130  CB        -7.6500   54.7790   14.2110 C.3   267  SER267      0.2089
    131  OG        -7.0330   55.8310   14.9370 O.3   267  SER267     -0.2183
    132  N        -11.4720   58.7010   14.1100 N.3   269  ALA269     -0.1245
    133  CA       -12.4200   58.9400   15.1830 C.3   269  ALA269      0.1562
    134  C        -13.3690   60.0450   14.7520 C.2   269  ALA269      0.2260
    135  O        -12.9390   61.1720   14.5060 O.2   269  ALA269     -0.2867
    136  CB       -11.6870   59.3450   16.4530 C.3   269  ALA269      0.0290
    137  N        -15.9800   62.2480   16.1960 N.3   271  PHE271     -0.1241
    138  CA       -16.5190   62.7500   17.4630 C.3   271  PHE271      0.1605
    139  C        -17.8660   63.4140   17.2340 C.2   271  PHE271      0.2264
    140  O        -17.9360   64.4700   16.6090 O.2   271  PHE271     -0.2867
    141  CB       -15.5680   63.7800   18.0900 C.3   271  PHE271      0.0534
    142  CG       -14.2180   63.2240   18.4510 C.ar  271  PHE271     -0.0203
    143  CD1      -14.1060   62.1820   19.3570 C.ar  271  PHE271     -0.0042
    144  CD2      -13.0600   63.7510   17.8950 C.ar  271  PHE271     -0.0042
    145  CE1      -12.8680   61.6640   19.6940 C.ar  271  PHE271     -0.0003
    146  CE2      -11.8170   63.2380   18.2290 C.ar  271  PHE271     -0.0003
    147  CZ       -11.7220   62.1930   19.1290 C.ar  271  PHE271     -0.0000
@<TRIPOS>BOND
     1    24    23    2
     2   129   128    2
     3   117   118    2
     4   117   116    1
     5   115   116    1
     6   126   127    1
     7    21    22    1
     8    23    22    1
     9   128   127    1
    10   116   119    1
    11    12    13    2
    12    12    11    1
    13   127   130    1
    14    10    11    1
    15    22    25    1
    16    32    31    2
    17    11    14    1
    18    29    30    1
    19    31    30    1
    20   119   120    1
    21   132   133    1
    22   130   131    1
    23    25    26    1
    24   120   121    1
    25    30    33    1
    26   135   134    2
    27    73    74    2
    28    73    72    1
    29   134   133    1
    30    14    15    1
    31   133   136    1
    32    15    16    1
    33    26    28    1
    34    26    27    1
    35    33    34    1
    36    35    34   ar
    37    35    37   ar
    38   121   122    1
    39    72    71    1
    40    72    75    1
    41   122   123    2
    42   137   138    1
    43    34    36   ar
    44     3     4    2
    45     3     2    1
    46    37    39   ar
    47   140   139    2
    48   123   124    1
    49   123   125    1
    50    77    76    1
    51    16    17    1
    52     2     5    1
    53     2     1    1
    54    76    75    1
    55    76    78    1
    56   139   138    1
    57   138   141    1
    58    36    38   ar
    59    17    18    2
    60     5     6    1
    61    39    38   ar
    62    39    40    1
    63   144   146   ar
    64   144   142   ar
    65   141   142    1
    66    66    67    2
    67    66    65    1
    68   146   147   ar
    69   142   143   ar
    70     6     7    1
    71    70    68    1
    72    18    20    1
    73    18    19    1
    74    65    68    1
    75    65    64    1
    76   147   145   ar
    77     7     8    1
    78   143   145   ar
    79    68    69    1
    80     8     9    1
    81   113   112    1
    82    86    84    1
    83    83    84    1
    84    83    80    1
    85    79    80    1
    86   114   112    1
    87   112   109    1
    88    84    85    1
    89    80    81    1
    90    45    42    1
    91    63    61   ar
    92    41    42    1
    93   109   110    1
    94   109   108    1
    95    82    81    2
    96    42    43    1
    97   110   111    2
    98    61    62   ar
    99    61    60    1
   100   108    99   am
   101   100    99    2
   102    60    57    1
   103    96    94   ar
   104    96    95   ar
   105    94    92   ar
   106    55    54   ar
   107    55    53   ar
   108    99    98    1
   109    43    44    2
   110    54    52   ar
   111    95    93   ar
   112    57    58    1
   113    57    56    1
   114    92    91    1
   115    92    93   ar
   116    53    51   ar
   117    98    97    1
   118    98   101    1
   119    52    51   ar
   120    91    88    1
   121    58    59    2
   122    97    89   am
   123    51    50    1
   124    89    90    2
   125    89    88    1
   126   101   102    1
   127   102   103    1
   128    88    87    1
   129    50    47    1
   130    49    48    2
   131   103   104    1
   132   104   105    2
   133    48    47    1
   134    46    47    1
   135   105   107    1
   136   105   106    1
