@<TRIPOS>MOLECULE
tmp/5c3qC01.pdb
 112 106 0 0 0
SMALL
GASTEIGER

@<TRIPOS>ATOM
      1  N        -11.3060   73.8900   16.5380 N.3    87  ASN87      -0.1240
      2  CA       -11.0710   72.4460   16.6410 C.3    87  ASN87       0.1653
      3  C        -10.8830   71.7680   15.2790 C.2    87  ASN87       0.2266
      4  O        -11.4110   70.6820   15.0310 O.2    87  ASN87      -0.2867
      5  CB       -12.1980   71.7650   17.4350 C.3    87  ASN87       0.1155
      6  CG       -11.7800   70.4210   18.0150 C.2    87  ASN87       0.2627
      7  OD1      -10.5910   70.1210   18.1250 O.2    87  ASN87      -0.2716
      8  ND2      -12.7580   69.6070   18.3900 N.am   87  ASN87      -0.0877
      9  N         -7.9540   67.1610   11.8560 N.3   101  GLU101     -0.1245
     10  CA        -9.3640   67.2650   12.2140 C.3   101  GLU101      0.1567
     11  C        -10.1610   68.1370   11.2530 C.2   101  GLU101      0.2260
     12  O         -9.7080   69.2020   10.8320 O.2   101  GLU101     -0.2867
     13  CB        -9.4990   67.7610   13.6490 C.3   101  GLU101      0.0388
     14  CG        -9.1610   66.6670   14.6460 C.3   101  GLU101      0.1160
     15  CD        -8.9500   67.1760   16.0490 C.2   101  GLU101      0.3649
     16  OE1       -9.4600   66.5260   16.9820 O.co2 101  GLU101     -0.2457
     17  OE2       -8.2720   68.2100   16.2210 O.co2 101  GLU101     -0.2457
     18  N        -16.7770   66.3690   14.7360 N.3   167  ILE167     -0.1245
     19  CA       -15.4040   66.4770   14.2550 C.3   167  ILE167      0.1561
     20  C        -14.8950   65.1210   13.7630 C.2   167  ILE167      0.2260
     21  O        -14.9310   64.1270   14.4890 O.2   167  ILE167     -0.2867
     22  CB       -14.4660   67.0350   15.3440 C.3   167  ILE167      0.0252
     23  CG1      -14.8790   68.4610   15.7380 C.3   167  ILE167      0.0019
     24  CG2      -13.0100   67.0000   14.8820 C.3   167  ILE167      0.0019
     25  CD1      -14.7220   69.5120   14.6520 C.3   167  ILE167      0.0001
     26  N        -11.7700   63.1770   13.0390 N.3   169  ARG169     -0.1245
     27  CA       -10.3450   63.1630   13.3680 C.3   169  ARG169      0.1563
     28  C         -9.6420   62.0220   12.6410 C.2   169  ARG169      0.2260
     29  O         -9.9100   60.8460   12.9110 O.2   169  ARG169     -0.2867
     30  CB       -10.1420   63.0140   14.8800 C.3   169  ARG169      0.0307
     31  CG        -8.6870   62.8710   15.3100 C.3   169  ARG169      0.0489
     32  CD        -8.5470   62.5720   16.7990 C.3   169  ARG169      0.2205
     33  NE        -8.3400   63.7830   17.5900 N.pl3 169  ARG169     -0.0865
     34  CZ        -8.1260   63.8060   18.9030 C.cat 169  ARG169      0.5346
     35  NH1       -8.0940   62.6810   19.6140 N.pl3 169  ARG169      0.1354
     36  NH2       -7.9430   64.9720   19.5140 N.pl3 169  ARG169      0.1354
     37  N         -7.7890   58.3450   28.3670 N.3   193  HIS193     -0.1226
     38  CA        -8.7200   59.4620   28.4420 C.3   193  HIS193      0.1752
     39  C        -10.1550   58.9850   28.2830 C.2   193  HIS193      0.2597
     40  O        -10.4010   57.8170   27.9730 O.2   193  HIS193     -0.2718
     41  CB        -8.4380   60.4400   27.3120 C.3   193  HIS193      0.0759
     42  CG        -8.6630   59.8500   25.9580 C.ar  193  HIS193      0.0818
     43  ND1       -7.7960   58.9410   25.3920 N.ar  193  HIS193     -0.2268
     44  CD2       -9.6740   60.0070   25.0720 C.ar  193  HIS193      0.1154
     45  CE1       -8.2520   58.5780   24.2080 C.ar  193  HIS193      0.1986
     46  NE2       -9.3900   59.2100   23.9920 N.ar  193  HIS193     -0.2212
     47  N        -11.0860   59.9150   28.4760 N.am  194  THR194     -0.1939
     48  CA       -12.4720   59.7430   28.0620 C.3   194  THR194      0.2028
     49  C        -12.7840   60.7800   26.9850 C.2   194  THR194      0.2642
     50  O        -12.2310   61.8760   26.9950 O.2   194  THR194     -0.2714
     51  CB       -13.4470   59.9210   29.2400 C.3   194  THR194      0.1808
     52  OG1      -13.2490   61.2070   29.8430 O.3   194  THR194     -0.2208
     53  CG2      -13.2290   58.8300   30.2900 C.3   194  THR194      0.0379
     54  N        -13.6520   60.4180   26.0470 N.am  195  ASP195     -0.1957
     55  CA       -14.1080   61.3370   25.0150 C.3   195  ASP195      0.1840
     56  C        -15.1370   62.3040   25.6100 C.2   195  ASP195      0.2622
     57  O        -15.7500   62.0050   26.6330 O.2   195  ASP195     -0.2715
     58  CB       -14.7080   60.5640   23.8420 C.3   195  ASP195      0.1450
     59  CG       -13.6760   59.7280   23.0870 C.2   195  ASP195      0.3671
     60  OD1      -12.4630   59.8230   23.3820 O.co2 195  ASP195     -0.2456
     61  OD2      -14.0860   58.9640   22.1860 O.co2 195  ASP195     -0.2456
     62  N        -15.3320   63.4500   24.9590 N.am  196  TYR196     -0.1960
     63  CA       -16.0810   64.5690   25.5580 C.3   196  TYR196      0.1771
     64  C        -17.5660   64.6310   25.1980 C.2   196  TYR196      0.2620
     65  O        -18.3630   65.1550   25.9750 O.2   196  TYR196     -0.2715
     66  CB       -15.4520   65.9170   25.1720 C.3   196  TYR196      0.0574
     67  CG       -13.9440   65.9990   25.2960 C.ar  196  TYR196     -0.0198
     68  CD1      -13.2700   65.3850   26.3470 C.ar  196  TYR196     -0.0009
     69  CD2      -13.1940   66.7230   24.3700 C.ar  196  TYR196     -0.0009
     70  CE1      -11.8930   65.4640   26.4570 C.ar  196  TYR196      0.0417
     71  CE2      -11.8150   66.8110   24.4760 C.ar  196  TYR196      0.0417
     72  CZ       -11.1710   66.1780   25.5210 C.ar  196  TYR196      0.1957
     73  OH        -9.8030   66.2570   25.6330 O.3   196  TYR196     -0.2866
     74  N        -17.9320   64.1150   24.0270 N.am  197  GLY197     -0.1954
     75  CA       -19.2390   64.3980   23.4250 C.3   197  GLY197      0.1869
     76  C        -20.3420   63.4000   23.7240 C.2   197  GLY197      0.2309
     77  O        -20.4160   62.8440   24.8200 O.2   197  GLY197     -0.2863
     78  N        -15.9800   62.2480   16.1960 N.3   271  PHE271     -0.1241
     79  CA       -16.5190   62.7500   17.4630 C.3   271  PHE271      0.1605
     80  C        -17.8660   63.4140   17.2340 C.2   271  PHE271      0.2264
     81  O        -17.9360   64.4700   16.6090 O.2   271  PHE271     -0.2867
     82  CB       -15.5680   63.7800   18.0900 C.3   271  PHE271      0.0534
     83  CG       -14.2180   63.2240   18.4510 C.ar  271  PHE271     -0.0203
     84  CD1      -14.1060   62.1820   19.3570 C.ar  271  PHE271     -0.0042
     85  CD2      -13.0600   63.7510   17.8950 C.ar  271  PHE271     -0.0042
     86  CE1      -12.8680   61.6640   19.6940 C.ar  271  PHE271     -0.0003
     87  CE2      -11.8170   63.2380   18.2290 C.ar  271  PHE271     -0.0003
     88  CZ       -11.7220   62.1930   19.1290 C.ar  271  PHE271     -0.0000
     89  N        -21.2570   65.3010   18.6600 N.3   273  ASN273     -0.1240
     90  CA       -21.6610   66.1820   19.7390 C.3   273  ASN273      0.1653
     91  C        -23.1060   66.6290   19.5610 C.2   273  ASN273      0.2266
     92  O        -23.6290   66.6000   18.4460 O.2   273  ASN273     -0.2867
     93  CB       -20.7520   67.4090   19.7740 C.3   273  ASN273      0.1155
     94  CG       -19.2890   67.0470   19.9510 C.2   273  ASN273      0.2627
     95  OD1      -18.8920   66.5700   21.0070 O.2   273  ASN273     -0.2716
     96  ND2      -18.4810   67.2820   18.9250 N.am  273  ASN273     -0.0877
     97  N        -17.8690   71.8140   25.7150 N.3   304  LEU304     -0.1245
     98  CA       -16.8600   71.2400   24.8180 C.3   304  LEU304      0.1561
     99  C        -15.6240   72.1120   24.6600 C.2   304  LEU304      0.2260
    100  O        -14.5020   71.5990   24.6530 O.2   304  LEU304     -0.2867
    101  CB       -17.4380   70.9840   23.4280 C.3   304  LEU304      0.0270
    102  CG       -18.4380   69.8460   23.2700 C.3   304  LEU304      0.0019
    103  CD1      -18.8750   69.7910   21.8150 C.3   304  LEU304      0.0001
    104  CD2      -17.8630   68.5050   23.7110 C.3   304  LEU304      0.0001
    105  N        -11.6720   71.1880   25.5020 N.3   308  LEU308     -0.1245
    106  CA       -10.6410   71.3610   24.4760 C.3   308  LEU308      0.1561
    107  C         -9.6140   72.4340   24.8430 C.2   308  LEU308      0.2260
    108  O         -8.4380   72.3000   24.5070 O.2   308  LEU308     -0.2867
    109  CB       -11.2780   71.7000   23.1260 C.3   308  LEU308      0.0270
    110  CG       -12.0730   70.5660   22.4710 C.3   308  LEU308      0.0019
    111  CD1      -13.0750   71.1050   21.4610 C.3   308  LEU308      0.0001
    112  CD2      -11.1330   69.5610   21.8200 C.3   308  LEU308      0.0001
@<TRIPOS>BOND
     1    12    11    2
     2    11    10    1
     3     9    10    1
     4    10    13    1
     5    28    29    2
     6    28    27    1
     7    26    27    1
     8    27    30    1
     9    13    14    1
    10    20    19    1
    11    20    21    2
    12    19    18    1
    13    19    22    1
    14    14    15    1
    15    25    23    1
    16    30    31    1
    17    24    22    1
    18     4     3    2
    19     3     2    1
    20    31    32    1
    21    22    23    1
    22    15    17   ar
    23    15    16   ar
    24    78    79    1
    25     1     2    1
    26    81    80    2
    27     2     5    1
    28    32    33    1
    29    80    79    1
    30     5     6    1
    31    79    82    1
    32    33    34    2
    33    85    87   ar
    34    85    83   ar
    35     6     7    2
    36     6     8   am
    37    82    83    1
    38    87    88   ar
    39    92    91    2
    40    83    84   ar
    41    89    90    1
    42    34    36    1
    43    34    35    1
    44    96    94   am
    45    88    86   ar
    46    84    86   ar
    47    91    90    1
    48    90    93    1
    49    93    94    1
    50    94    95    2
    51   111   110    1
    52   103   102    1
    53   112   110    1
    54    61    59   ar
    55   110   109    1
    56    59    60   ar
    57    59    58    1
    58   109   106    1
    59   102   101    1
    60   102   104    1
    61    75    76    1
    62    75    74    1
    63   101    98    1
    64    76    77    2
    65    58    55    1
    66    46    45   ar
    67    46    44   ar
    68    74    64   am
    69    45    43   ar
    70    69    71   ar
    71    69    67   ar
    72   106   107    1
    73   106   105    1
    74    71    72   ar
    75   108   107    2
    76   100    99    2
    77    99    98    1
    78    98    97    1
    79    62    63    1
    80    62    56   am
    81    55    56    1
    82    55    54    1
    83    44    42   ar
    84    66    67    1
    85    66    63    1
    86    64    63    1
    87    64    65    2
    88    67    68   ar
    89    43    42   ar
    90    72    73    1
    91    72    70   ar
    92    56    57    2
    93    42    41    1
    94    54    49   am
    95    68    70   ar
    96    49    50    2
    97    49    48    1
    98    41    38    1
    99    40    39    2
   100    48    47    1
   101    48    51    1
   102    39    38    1
   103    39    47   am
   104    37    38    1
   105    51    52    1
   106    51    53    1
