@<TRIPOS>MOLECULE
tmp/5c3uA00.pdb
 147 140 0 0 0
SMALL
GASTEIGER

@<TRIPOS>ATOM
      1  N         26.7250   23.6070   32.3550 N.3    35  SER35      -0.1202
      2  CA        26.9470   23.5980   33.8140 C.3    35  SER35       0.2020
      3  C         26.7220   22.2570   34.4660 C.2    35  SER35       0.2619
      4  O         26.1760   21.3300   33.8500 O.2    35  SER35      -0.2717
      5  CB        26.0690   24.6580   34.4790 C.3    35  SER35       0.2103
      6  OG        24.7860   24.1250   34.7730 O.3    35  SER35      -0.2182
      7  N         27.1170   22.1730   35.7420 N.am   36  VAL36      -0.1965
      8  CA        26.9090   20.9970   36.5970 C.3    36  VAL36       0.1727
      9  C         25.4180   20.5830   36.7160 C.2    36  VAL36       0.2616
     10  O         25.1370   19.4240   37.0040 O.2    36  VAL36      -0.2715
     11  CB        27.5210   21.2270   38.0210 C.3    36  VAL36       0.0290
     12  CG1       26.7090   22.2510   38.8300 C.3    36  VAL36       0.0023
     13  CG2       27.6910   19.9160   38.7770 C.3    36  VAL36       0.0023
     14  N         24.4900   21.5190   36.4750 N.am   37  LYS37      -0.1977
     15  CA        23.0560   21.2160   36.5420 C.3    37  LYS37       0.1596
     16  C         22.6800   20.0350   35.6860 C.2    37  LYS37       0.2287
     17  O         21.7390   19.3000   36.0130 O.2    37  LYS37      -0.2864
     18  CB        22.1610   22.4240   36.1900 C.3    37  LYS37       0.0298
     19  CG        22.2480   23.5810   37.1860 C.3    37  LYS37       0.0038
     20  CD        21.6780   23.1000   38.5260 C.3    37  LYS37       0.0206
     21  CE        21.3300   24.2630   39.4280 C.3    37  LYS37       0.1093
     22  NZ        22.4920   25.1850   39.5430 N.3    37  LYS37      -0.1314
     23  N         20.9540   28.3210   35.0430 N.3    65  ASN65      -0.1240
     24  CA        21.4950   27.0440   34.5920 C.3    65  ASN65       0.1653
     25  C         20.4990   25.9180   34.7030 C.2    65  ASN65       0.2266
     26  O         20.5800   24.9490   33.9400 O.2    65  ASN65      -0.2867
     27  CB        22.8050   26.7600   35.2780 C.3    65  ASN65       0.1155
     28  CG        23.7960   27.8750   35.0150 C.2    65  ASN65       0.2627
     29  OD1       24.0340   28.2200   33.8390 O.2    65  ASN65      -0.2716
     30  ND2       24.3260   28.4850   36.0690 N.am   65  ASN65      -0.0877
     31  N         15.6100   23.5950   41.4050 N.3   131  SER131     -0.1202
     32  CA        17.0290   23.6970   41.0810 C.3   131  SER131      0.2020
     33  C         17.8900   22.7790   41.9660 C.2   131  SER131      0.2619
     34  O         18.9660   22.3590   41.5520 O.2   131  SER131     -0.2717
     35  CB        17.4880   25.1570   41.2160 C.3   131  SER131      0.2103
     36  OG        17.3890   25.5630   42.5810 O.3   131  SER131     -0.2182
     37  N         17.4370   22.4950   43.1930 N.am  132  SER132     -0.1951
     38  CA        18.3330   21.9500   44.2180 C.3   132  SER132      0.1924
     39  C         17.7140   20.9020   45.1470 C.2   132  SER132      0.2314
     40  O         18.3460   19.8900   45.4270 O.2   132  SER132     -0.2863
     41  CB        18.8830   23.0990   45.1040 C.3   132  SER132      0.2116
     42  OG        19.3150   24.2050   44.3240 O.3   132  SER132     -0.2180
     43  N         23.7480   14.5480   41.0110 N.3   141  HIS141     -0.1241
     44  CA        24.9920   15.2390   41.3280 C.3   141  HIS141      0.1621
     45  C         26.0330   14.3220   41.9030 C.2   141  HIS141      0.2264
     46  O         27.2190   14.5520   41.7100 O.2   141  HIS141     -0.2867
     47  CB        24.7620   16.4050   42.2680 C.3   141  HIS141      0.0745
     48  CG        24.1270   17.6360   41.6160 C.ar  141  HIS141      0.0817
     49  ND1       24.4180   18.0430   40.3410 N.ar  141  HIS141     -0.2268
     50  CD2       23.2420   18.5660   42.1300 C.ar  141  HIS141      0.1154
     51  CE1       23.7230   19.1640   40.0710 C.ar  141  HIS141      0.1986
     52  NE2       23.0290   19.5040   41.1780 N.ar  141  HIS141     -0.2212
     53  N         30.8250   25.1270   45.4970 N.2   163  PRO163     -0.2571
     54  CA        29.9180   26.2900   45.6340 C.3   163  PRO163      0.2026
     55  C         28.5510   25.8450   46.1550 C.2   163  PRO163      0.2683
     56  O         28.0970   24.7490   45.7860 O.2   163  PRO163     -0.2709
     57  CB        29.7710   26.8260   44.1900 C.2   163  PRO163      0.0085
     58  CG        30.4420   25.8380   43.3240 C.2   163  PRO163      0.0180
     59  CD        31.1200   24.7730   44.0970 C.2   163  PRO163      0.0938
     60  N         27.9220   26.6540   47.0270 N.am  164  VAL164     -0.1959
     61  CA        26.5780   26.3420   47.5710 C.3   164  VAL164      0.1727
     62  C         25.5500   27.4380   47.2690 C.2   164  VAL164      0.2617
     63  O         25.7590   28.6080   47.6210 O.2   164  VAL164     -0.2715
     64  CB        26.6250   26.0490   49.1130 C.3   164  VAL164      0.0290
     65  CG1       25.2190   25.7590   49.6540 C.3   164  VAL164      0.0023
     66  CG2       27.5380   24.8670   49.3800 C.3   164  VAL164      0.0023
     67  N         24.4670   27.0510   46.5740 N.am  165  GLY165     -0.1940
     68  CA        23.2620   27.8690   46.3780 C.3   165  GLY165      0.2014
     69  C         22.1820   27.3440   47.3010 C.2   165  GLY165      0.2639
     70  O         22.1240   27.7310   48.4700 O.2   165  GLY165     -0.2714
     71  N         21.3620   26.4110   46.8030 N.am  166  GLY166     -0.1939
     72  CA        20.3500   25.7640   47.6470 C.3   166  GLY166      0.2014
     73  C         20.8100   24.4690   48.3000 C.2   166  GLY166      0.2639
     74  O         20.0730   23.8780   49.1030 O.2   166  GLY166     -0.2714
     75  N         22.0170   24.0180   47.9540 N.am  167  GLY167     -0.1939
     76  CA        22.6240   22.8380   48.5490 C.3   167  GLY167      0.2014
     77  C         22.4680   21.5080   47.8250 C.2   167  GLY167      0.2639
     78  O         22.8860   20.4840   48.3520 O.2   167  GLY167     -0.2714
     79  N         21.8980   21.5200   46.6100 N.am  168  GLY168     -0.1939
     80  CA        21.7420   20.2890   45.8200 C.3   168  GLY168      0.2014
     81  C         23.0590   19.6180   45.4820 C.2   168  GLY168      0.2639
     82  O         23.2210   18.4100   45.6450 O.2   168  GLY168     -0.2714
     83  N         24.0000   20.4080   44.9740 N.am  169  LEU169     -0.1963
     84  CA        25.3160   19.8860   44.5820 C.3   169  LEU169      0.1728
     85  C         26.0580   19.4110   45.8180 C.2   169  LEU169      0.2616
     86  O         26.5700   18.2860   45.8570 O.2   169  LEU169     -0.2715
     87  CB        26.1160   20.9500   43.8360 C.3   169  LEU169      0.0311
     88  CG        27.5300   20.5770   43.4130 C.3   169  LEU169      0.0022
     89  CD1       27.5620   19.3420   42.5140 C.3   169  LEU169      0.0001
     90  CD2       28.1640   21.7920   42.7260 C.3   169  LEU169      0.0001
     91  N         26.0650   20.2640   46.8310 N.am  170  LEU170     -0.1977
     92  CA        26.6080   19.9130   48.1270 C.3   170  LEU170      0.1596
     93  C         26.1240   18.5390   48.6130 C.2   170  LEU170      0.2287
     94  O         26.9380   17.6870   48.9770 O.2   170  LEU170     -0.2864
     95  CB        26.2940   20.9870   49.1580 C.3   170  LEU170      0.0297
     96  CG        26.8190   20.6190   50.5490 C.3   170  LEU170      0.0022
     97  CD1       28.3450   20.4920   50.5230 C.3   170  LEU170      0.0001
     98  CD2       26.3570   21.5950   51.6170 C.3   170  LEU170      0.0001
     99  N         23.6660   31.9920   40.6350 N.3   219  SER219     -0.1202
    100  CA        23.2100   30.6340   40.9010 C.3   219  SER219      0.2020
    101  C         23.3400   30.2550   42.3700 C.2   219  SER219      0.2618
    102  O         22.8420   29.2200   42.7790 O.2   219  SER219     -0.2717
    103  CB        23.8970   29.6070   40.0170 C.3   219  SER219      0.2103
    104  OG        23.6050   29.9100   38.6650 O.3   219  SER219     -0.2182
    105  N         23.9760   31.1160   43.1440 N.am  220  LEU220     -0.1979
    106  CA        24.1380   30.8680   44.5900 C.3   220  LEU220      0.1596
    107  C         23.0980   31.5770   45.4340 C.2   220  LEU220      0.2287
    108  O         23.0520   31.3750   46.6600 O.2   220  LEU220     -0.2864
    109  CB        25.5650   31.2300   45.0640 C.3   220  LEU220      0.0297
    110  CG        26.7500   30.5360   44.3570 C.3   220  LEU220      0.0022
    111  CD1       28.0760   30.7550   45.0810 C.3   220  LEU220      0.0001
    112  CD2       26.5230   29.0350   44.0810 C.3   220  LEU220      0.0001
    113  N         30.8070   31.3980   35.4920 N.3   264  GLU264     -0.1245
    114  CA        29.9850   32.3010   36.3030 C.3   264  GLU264      0.1567
    115  C         30.6890   32.6320   37.5990 C.2   264  GLU264      0.2260
    116  O         31.5150   31.8500   38.0630 O.2   264  GLU264     -0.2867
    117  CB        28.6970   31.5920   36.6840 C.3   264  GLU264      0.0388
    118  CG        27.5350   31.9030   35.7960 C.3   264  GLU264      0.1160
    119  CD        26.2630   31.2100   36.2510 C.2   264  GLU264      0.3649
    120  OE1       25.9550   31.1480   37.4770 O.co2 264  GLU264     -0.2457
    121  OE2       25.5580   30.7430   35.3560 O.co2 264  GLU264     -0.2457
    122  N         29.4420   32.2910   40.3920 N.3   266  SER266     -0.1202
    123  CA        29.1760   31.1260   41.2390 C.3   266  SER266      0.2020
    124  C         30.3870   30.1680   41.3280 C.2   266  SER266      0.2618
    125  O         30.8440   29.7960   42.4180 O.2   266  SER266     -0.2717
    126  CB        27.9190   30.3920   40.7430 C.3   266  SER266      0.2103
    127  OG        26.8570   31.3410   40.5680 O.3   266  SER266     -0.2182
    128  N         30.9350   29.7980   40.1740 N.am  267  ALA267     -0.1979
    129  CA        32.1250   28.9430   40.1290 C.3   267  ALA267      0.1597
    130  C         33.3260   29.7410   40.5760 C.2   267  ALA267      0.2287
    131  O         34.2540   29.2080   41.2030 O.2   267  ALA267     -0.2864
    132  CB        32.3370   28.4470   38.6950 C.3   267  ALA267      0.0319
    133  N         31.9170   24.7780   38.3480 N.3   297  THR297     -0.1203
    134  CA        30.5330   24.4410   38.0230 C.3   297  THR297      0.1994
    135  C         30.0440   24.9680   36.6770 C.2   297  THR297      0.2618
    136  O         29.0320   24.4850   36.1670 O.2   297  THR297     -0.2717
    137  CB        29.5820   24.7990   39.1700 C.3   297  THR297      0.1784
    138  OG1       29.8170   26.1590   39.5820 O.3   297  THR297     -0.2211
    139  CG2       29.8390   23.8590   40.3330 C.3   297  THR297      0.0376
    140  N         30.7560   25.9510   36.1220 N.am  298  GLY298     -0.1942
    141  CA        30.5030   26.4160   34.7660 C.3   298  GLY298      0.2014
    142  C         29.4830   27.5340   34.8270 C.2   298  GLY298      0.2639
    143  O         29.6810   28.5380   35.5450 O.2   298  GLY298     -0.2714
    144  N         28.3920   27.3580   34.0960 N.am  299  GLY299     -0.1954
    145  CA        27.2940   28.3170   34.1130 C.3   299  GLY299      0.1869
    146  C         27.2410   29.2380   32.9030 C.2   299  GLY299      0.2309
    147  O         28.2680   29.5950   32.3270 O.2   299  GLY299     -0.2863
@<TRIPOS>BOND
     1   147   146    2
     2     1     2    1
     3   146   145    1
     4     2     3    1
     5     2     5    1
     6    29    28    2
     7     4     3    2
     8    26    25    2
     9   144   145    1
    10   144   142   am
    11     3     7   am
    12     5     6    1
    13    24    25    1
    14    24    23    1
    15    24    27    1
    16   141   142    1
    17   141   140    1
    18   142   143    2
    19    28    27    1
    20    28    30   am
    21   121   119   ar
    22   113   114    1
    23    16    17    2
    24    16    15    1
    25     7     8    1
    26   118   119    1
    27   118   117    1
    28   140   135   am
    29   136   135    2
    30    18    15    1
    31    18    19    1
    32   119   120   ar
    33   114   117    1
    34   114   115    1
    35    14    15    1
    36    14     9   am
    37     8     9    1
    38     8    11    1
    39   135   134    1
    40     9    10    2
    41    19    20    1
    42   115   116    2
    43    11    13    1
    44    11    12    1
    45   134   133    1
    46   134   137    1
    47    20    21    1
    48   104   103    1
    49   132   129    1
    50   137   138    1
    51   137   139    1
    52    21    22    1
    53   103   100    1
    54    51    49   ar
    55    51    52   ar
    56   129   128    1
    57   129   130    1
    58   128   124   am
    59    49    48   ar
    60   122   123    1
    61   127   126    1
    62   130   131    2
    63    99   100    1
    64   126   123    1
    65   100   101    1
    66    43    44    1
    67    32    35    1
    68    32    31    1
    69    32    33    1
    70    52    50   ar
    71    35    36    1
    72   123   124    1
    73    44    45    1
    74    44    47    1
    75   124   125    2
    76    34    33    2
    77    48    50   ar
    78    48    47    1
    79    46    45    2
    80    33    37   am
    81   101   102    2
    82   101   105   am
    83    89    88    1
    84    90    88    1
    85   105   106    1
    86    37    38    1
    87    58    59    1
    88    58    57    2
    89    88    87    1
    90    87    84    1
    91   112   110    1
    92    59    53    2
    93    57    54    1
    94    38    41    1
    95    38    39    1
    96    42    41    1
    97   110   109    1
    98   110   111    1
    99    84    83    1
   100    84    85    1
   101   106   109    1
   102   106   107    1
   103    83    81   am
   104    39    40    2
   105   107   108    2
   106    81    82    2
   107    81    80    1
   108    53    54    1
   109    54    55    1
   110    56    55    2
   111    85    86    2
   112    85    91   am
   113    80    79    1
   114    55    60   am
   115    68    67    1
   116    68    69    1
   117    67    62   am
   118    79    77   am
   119    71    69   am
   120    71    72    1
   121    91    92    1
   122    60    61    1
   123    62    61    1
   124    62    63    2
   125    69    70    2
   126    61    64    1
   127    72    73    1
   128    77    78    2
   129    77    76    1
   130    75    73   am
   131    75    76    1
   132    92    93    1
   133    92    95    1
   134    73    74    2
   135    93    94    2
   136    64    66    1
   137    64    65    1
   138    95    96    1
   139    97    96    1
   140    96    98    1
