@<TRIPOS>MOLECULE
tmp/5c3yA00.pdb
 128 118 0 0 0
SMALL
GASTEIGER

@<TRIPOS>ATOM
      1  N         88.9700   43.6760  -28.8380 N.3   185  ASN185     -0.1240
      2  CA        89.4300   42.3610  -29.2530 C.3   185  ASN185      0.1653
      3  C         89.6320   42.2480  -30.7540 C.2   185  ASN185      0.2266
      4  O         89.4650   43.2320  -31.4930 O.2   185  ASN185     -0.2867
      5  CB        88.5310   41.2700  -28.6930 C.3   185  ASN185      0.1155
      6  CG        87.1370   41.2390  -29.3160 C.2   185  ASN185      0.2627
      7  OD1       86.9410   41.3250  -30.5170 O.2   185  ASN185     -0.2716
      8  ND2       86.1560   41.0350  -28.4680 N.am  185  ASN185     -0.0877
      9  N         93.2290   42.7460  -27.5320 N.3   221  THR221     -0.1218
     10  CA        93.2460   41.4650  -26.8180 C.3   221  THR221      0.1862
     11  C         93.1380   40.3260  -27.8200 C.2   221  THR221      0.2287
     12  O         92.4640   40.4920  -28.8410 O.2   221  THR221     -0.2866
     13  CB        92.1550   41.3810  -25.7210 C.3   221  THR221      0.1770
     14  OG1       90.8420   41.5810  -26.2550 O.3   221  THR221     -0.2211
     15  CG2       92.4310   42.4220  -24.6540 C.3   221  THR221      0.0375
     16  N         92.8020   36.6400  -26.8530 N.3   223  GLY223     -0.1210
     17  CA        92.4830   35.3530  -26.2040 C.3   223  GLY223      0.1956
     18  C         93.6790   34.6930  -25.5730 C.2   223  GLY223      0.2611
     19  O         94.3810   35.3250  -24.7910 O.2   223  GLY223     -0.2717
     20  N         93.9140   33.4440  -25.9200 N.am  224  ALA224     -0.1979
     21  CA        95.0770   32.6770  -25.4080 C.3   224  ALA224      0.1597
     22  C         96.4680   33.2370  -25.8020 C.2   224  ALA224      0.2287
     23  O         97.4400   32.9380  -25.1490 O.2   224  ALA224     -0.2864
     24  CB        94.9600   31.2190  -25.8320 C.3   224  ALA224      0.0319
     25  N         97.2370   36.3810  -25.5140 N.3   226  GLY226     -0.1225
     26  CA        97.5060   37.5360  -24.6470 C.3   226  GLY226      0.1811
     27  C         97.0230   38.8200  -25.2870 C.2   226  GLY226      0.2280
     28  O         95.8270   38.9660  -25.5540 O.2   226  GLY226     -0.2866
     29  N        100.9550   35.2100  -22.7820 N.3   242  THR242     -0.1203
     30  CA       100.4730   34.8280  -21.4430 C.3   242  THR242      0.1994
     31  C        100.6520   33.2990  -21.2710 C.2   242  THR242      0.2618
     32  O        100.5800   32.5700  -22.2200 O.2   242  THR242     -0.2717
     33  CB        98.9840   35.3160  -21.2060 C.3   242  THR242      0.1784
     34  OG1       98.6160   35.2050  -19.8230 O.3   242  THR242     -0.2211
     35  CG2       98.0040   34.5310  -22.0770 C.3   242  THR242      0.0376
     36  N        100.8160   32.8390  -20.0360 N.am  243  GLU243     -0.1965
     37  CA       100.9440   31.4050  -19.7380 C.3   243  GLU243      0.1733
     38  C         99.6570   30.6560  -20.1990 C.2   243  GLU243      0.2616
     39  O         98.5360   31.1240  -19.9210 O.2   243  GLU243     -0.2715
     40  CB       101.2490   31.3100  -18.1970 C.3   243  GLU243      0.0429
     41  CG       101.2630   29.9630  -17.4550 C.3   243  GLU243      0.1163
     42  CD       101.2810   30.1260  -15.8770 C.2   243  GLU243      0.3649
     43  OE1      100.6030   29.4230  -15.0710 O.co2 243  GLU243     -0.2457
     44  OE2      102.0150   31.0020  -15.3910 O.co2 243  GLU243     -0.2457
     45  N         99.8490   29.5460  -20.9230 N.am  244  LYS244     -0.1963
     46  CA        98.7920   28.5920  -21.3130 C.3   244  LYS244      0.1728
     47  C         98.0890   28.0690  -20.0500 C.2   244  LYS244      0.2616
     48  O         98.7760   27.7400  -19.0340 O.2   244  LYS244     -0.2715
     49  CB        99.4330   27.4100  -22.0740 C.3   244  LYS244      0.0311
     50  CG        98.5420   26.2280  -22.4160 C.3   244  LYS244      0.0038
     51  CD        97.6710   26.5570  -23.6060 C.3   244  LYS244      0.0206
     52  CE        97.0710   25.2700  -24.1460 C.3   244  LYS244      0.1093
     53  NZ        95.9390   24.8350  -23.3540 N.3   244  LYS244     -0.1314
     54  N         96.7490   28.0520  -20.0760 N.am  245  VAL245     -0.1977
     55  CA        95.9310   27.4500  -19.0040 C.3   245  VAL245      0.1596
     56  C         94.7620   26.6250  -19.5870 C.2   245  VAL245      0.2287
     57  O         94.3280   26.9320  -20.6720 O.2   245  VAL245     -0.2864
     58  CB        95.3660   28.5230  -18.0340 C.3   245  VAL245      0.0276
     59  CG1       96.4840   29.2400  -17.3020 C.3   245  VAL245      0.0022
     60  CG2       94.5160   29.5530  -18.7670 C.3   245  VAL245      0.0022
     61  N         91.3630   26.4170  -20.0810 N.3   247  ALA247     -0.1245
     62  CA        90.2130   27.3290  -20.0840 C.3   247  ALA247      0.1562
     63  C         88.9210   26.5780  -19.7990 C.2   247  ALA247      0.2260
     64  O         88.5360   25.7490  -20.5820 O.2   247  ALA247     -0.2867
     65  CB        90.0880   28.0240  -21.4420 C.3   247  ALA247      0.0290
     66  N         85.6180   31.2450  -20.9080 N.3   250  THR250     -0.1203
     67  CA        86.1950   32.5610  -21.2860 C.3   250  THR250      0.1994
     68  C         85.1840   33.7380  -21.3420 C.2   250  THR250      0.2619
     69  O         85.5840   34.8660  -21.6260 O.2   250  THR250     -0.2717
     70  CB        86.9360   32.4890  -22.6490 C.3   250  THR250      0.1784
     71  OG1       86.0110   32.2930  -23.7060 O.3   250  THR250     -0.2211
     72  CG2       87.9590   31.3560  -22.6850 C.3   250  THR250      0.0376
     73  N         83.9070   33.4790  -20.9860 N.am  251  THR251     -0.1938
     74  CA        82.8890   34.4810  -21.0300 C.3   251  THR251      0.2028
     75  C         83.2460   35.5810  -20.0690 C.2   251  THR251      0.2643
     76  O         83.5770   35.3410  -18.8870 O.2   251  THR251     -0.2714
     77  CB        81.5350   33.9020  -20.6230 C.3   251  THR251      0.1808
     78  OG1       81.2830   32.7000  -21.3440 O.3   251  THR251     -0.2208
     79  CG2       80.3900   34.8690  -20.9080 C.3   251  THR251      0.0379
     80  N         83.2690   36.7910  -20.5780 N.am  252  GLY252     -0.1939
     81  CA        83.6230   37.9740  -19.7410 C.3   252  GLY252      0.2014
     82  C         85.0760   38.1960  -19.4340 C.2   252  GLY252      0.2639
     83  O         85.4240   39.0140  -18.5730 O.2   252  GLY252     -0.2714
     84  N         85.9520   37.4460  -20.0810 N.am  253  ALA253     -0.1963
     85  CA        87.3860   37.5630  -19.8040 C.3   253  ALA253      0.1728
     86  C         87.9170   38.9250  -20.2550 C.2   253  ALA253      0.2616
     87  O         88.7810   39.5090  -19.6150 O.2   253  ALA253     -0.2715
     88  CB        88.1470   36.4670  -20.5300 C.3   253  ALA253      0.0334
     89  N         87.3730   39.4440  -21.3500 N.am  254  GLY254     -0.1955
     90  CA        87.7490   40.7790  -21.8200 C.3   254  GLY254      0.1869
     91  C         87.4150   41.8660  -20.8380 C.2   254  GLY254      0.2309
     92  O         88.1810   42.8090  -20.6690 O.2   254  GLY254     -0.2863
     93  N         89.9780   41.7040  -18.0550 N.3   257  PHE257     -0.1241
     94  CA        91.1840   42.3760  -18.5000 C.3   257  PHE257      0.1605
     95  C         91.0710   43.9100  -18.3810 C.2   257  PHE257      0.2264
     96  O         91.9520   44.5450  -17.8200 O.2   257  PHE257     -0.2867
     97  CB        91.4690   41.9810  -19.9370 C.3   257  PHE257      0.0534
     98  CG        92.7080   42.5850  -20.5050 C.ar  257  PHE257     -0.0203
     99  CD1       93.8990   41.8920  -20.4860 C.ar  257  PHE257     -0.0042
    100  CD2       92.6650   43.8410  -21.1550 C.ar  257  PHE257     -0.0042
    101  CE1       95.0370   42.4560  -21.0380 C.ar  257  PHE257     -0.0003
    102  CE2       93.7920   44.3990  -21.7060 C.ar  257  PHE257     -0.0003
    103  CZ        94.9790   43.7090  -21.6460 C.ar  257  PHE257     -0.0000
    104  N         96.6840   40.6250  -18.1800 N.3   281  ASN281     -0.1240
    105  CA        96.6460   39.2810  -18.7440 C.3   281  ASN281      0.1653
    106  C         96.5200   38.1860  -17.6760 C.2   281  ASN281      0.2266
    107  O         95.6640   37.2970  -17.7920 O.2   281  ASN281     -0.2867
    108  CB        97.8940   38.9580  -19.5390 C.3   281  ASN281      0.1155
    109  CG        97.8260   39.3830  -20.9790 C.2   281  ASN281      0.2627
    110  OD1       96.7910   39.6310  -21.5540 O.2   281  ASN281     -0.2716
    111  ND2       98.9690   39.4420  -21.5820 N.am  281  ASN281     -0.0877
    112  N         93.0170   38.2240  -15.9550 N.3   284  ALA284     -0.1231
    113  CA        92.0070   37.7430  -16.8640 C.3   284  ALA284      0.1694
    114  C         92.0950   36.2160  -17.0450 C.2   284  ALA284      0.2591
    115  O         91.0670   35.5250  -17.1660 O.2   284  ALA284     -0.2718
    116  CB        92.1040   38.4450  -18.2270 C.3   284  ALA284      0.0304
    117  N         93.3140   35.7080  -17.0710 N.am  285  ALA285     -0.1980
    118  CA        93.5320   34.2950  -17.2140 C.3   285  ALA285      0.1597
    119  C         93.0740   33.5120  -16.0080 C.2   285  ALA285      0.2287
    120  O         92.6600   32.3740  -16.1720 O.2   285  ALA285     -0.2864
    121  CB        94.9930   34.0170  -17.4810 C.3   285  ALA285      0.0319
    122  N         89.3640   32.9110  -16.6770 N.3   288  VAL288     -0.1245
    123  CA        88.9710   31.8710  -17.6540 C.3   288  VAL288      0.1561
    124  C         88.9770   30.4900  -17.0610 C.2   288  VAL288      0.2260
    125  O         88.5180   29.5600  -17.6770 O.2   288  VAL288     -0.2867
    126  CB        89.7550   31.8820  -18.9830 C.3   288  VAL288      0.0252
    127  CG1       89.8510   33.2870  -19.5610 C.3   288  VAL288      0.0019
    128  CG2       91.1230   31.3080  -18.8470 C.3   288  VAL288      0.0019
@<TRIPOS>BOND
     1     4     3    2
     2     3     2    1
     3     7     6    2
     4     6     5    1
     5     6     8   am
     6     2     1    1
     7     2     5    1
     8    12    11    2
     9    11    10    1
    10     9    10    1
    11    16    17    1
    12    10    13    1
    13    14    13    1
    14    17    18    1
    15    20    18   am
    16    20    21    1
    17    24    21    1
    18    22    21    1
    19    22    23    2
    20    13    15    1
    21    18    19    2
    22    28    27    2
    23    25    26    1
    24    27    26    1
    25    52    51    1
    26    52    53    1
    27    71    70    1
    28    51    50    1
    29    29    30    1
    30    72    70    1
    31    70    67    1
    32    50    49    1
    33    32    31    2
    34    35    33    1
    35    49    46    1
    36    90    89    1
    37    90    91    1
    38   102   103   ar
    39   102   100   ar
    40   103   101   ar
    41    69    68    2
    42   111   109   am
    43   110   109    2
    44    30    31    1
    45    30    33    1
    46    65    62    1
    47    89    86   am
    48    78    77    1
    49    68    67    1
    50    68    73   am
    51    46    45    1
    52    46    47    1
    53    67    66    1
    54    31    36   am
    55    33    34    1
    56   100    98   ar
    57   101    99   ar
    58    74    73    1
    59    74    77    1
    60    74    75    1
    61   109   108    1
    62    45    38   am
    63    79    77    1
    64    91    92    2
    65    57    56    2
    66    64    63    2
    67    80    75   am
    68    80    81    1
    69    88    85    1
    70    98    99   ar
    71    98    97    1
    72    86    85    1
    73    86    87    2
    74    38    39    2
    75    38    37    1
    76    62    61    1
    77    62    63    1
    78    84    85    1
    79    84    82   am
    80    54    47   am
    81    54    55    1
    82    75    76    2
    83    47    48    2
    84    36    37    1
    85    97    94    1
    86    81    82    1
    87    37    40    1
    88    56    55    1
    89   127   126    1
    90   108   105    1
    91    82    83    2
    92    55    58    1
    93   126   128    1
    94   126   123    1
    95    60    58    1
    96   105   104    1
    97   105   106    1
    98    94    95    1
    99    94    93    1
   100    95    96    2
   101   116   113    1
   102    40    41    1
   103    58    59    1
   104   107   106    2
   105   125   124    2
   106   123   124    1
   107   123   122    1
   108   121   118    1
   109    41    42    1
   110   118   117    1
   111   118   119    1
   112   115   114    2
   113   117   114   am
   114   114   113    1
   115   113   112    1
   116   120   119    2
   117    42    44   ar
   118    42    43   ar
