@<TRIPOS>MOLECULE
tmp/5c41A00.pdb
 169 159 0 0 0
SMALL
GASTEIGER

@<TRIPOS>ATOM
      1  N          1.2190   -0.6610   73.5080 N.3    41  LYS41      -0.1245
      2  CA         2.1360   -0.6280   72.3970 C.3    41  LYS41       0.1561
      3  C          1.6930   -1.5870   71.2650 C.2    41  LYS41       0.2260
      4  O          1.8520   -1.2310   70.0610 O.2    41  LYS41      -0.2867
      5  CB         3.5380   -1.0040   72.8830 C.3    41  LYS41       0.0271
      6  CG         4.1590    0.0610   73.7490 C.3    41  LYS41       0.0035
      7  CD         5.4690   -0.4660   74.3600 C.3    41  LYS41       0.0206
      8  CE         5.9750    0.5070   75.3950 C.3    41  LYS41       0.1093
      9  NZ         6.3250    1.8640   74.8260 N.3    41  LYS41      -0.1314
     10  N         14.3240    2.7080   71.2680 N.3   186  ASN186     -0.1225
     11  CA        14.6190    4.1130   71.3160 C.3   186  ASN186      0.1785
     12  C         15.8520    4.3410   72.1210 C.2   186  ASN186      0.2597
     13  O         16.5190    3.3880   72.5520 O.2   186  ASN186     -0.2718
     14  CB        13.4030    4.9150   71.8260 C.3   186  ASN186      0.1169
     15  CG        13.0650    4.6290   73.2850 C.2   186  ASN186      0.2627
     16  OD1       13.9840    4.4090   74.1120 O.2   186  ASN186     -0.2716
     17  ND2       11.8000    4.7690   73.6380 N.am  186  ASN186     -0.0877
     18  N         16.2270    5.6030   72.2490 N.am  187  GLU187     -0.1965
     19  CA        17.5210    5.9690   72.8460 C.3   187  GLU187      0.1733
     20  C         17.6040    5.5600   74.3280 C.2   187  GLU187      0.2617
     21  O         18.5800    4.9460   74.7160 O.2   187  GLU187     -0.2715
     22  CB        17.7570    7.4860   72.8220 C.3   187  GLU187      0.0429
     23  CG        17.8220    8.0620   71.4350 C.3   187  GLU187      0.1163
     24  CD        17.5690    9.6090   71.3910 C.2   187  GLU187      0.3649
     25  OE1       16.3880   10.0640   71.1400 O.co2 187  GLU187     -0.2457
     26  OE2       18.5750   10.3030   71.6750 O.co2 187  GLU187     -0.2457
     27  N         16.5580    5.8420   75.0880 N.am  188  SER188     -0.1936
     28  CA        16.5790    5.5130   76.4860 C.3   188  SER188      0.2055
     29  C         16.5670    3.9640   76.7470 C.2   188  SER188      0.2642
     30  O         17.1850    3.5030   77.6850 O.2   188  SER188     -0.2714
     31  CB        15.4840    6.2410   77.2760 C.3   188  SER188      0.2130
     32  OG        14.2290    5.7320   76.8630 O.3   188  SER188     -0.2179
     33  N         15.8780    3.2290   75.8970 N.am  189  GLU189     -0.1976
     34  CA        15.8260    1.7830   75.9080 C.3   189  GLU189      0.1602
     35  C         17.1960    1.2250   75.5710 C.2   189  GLU189      0.2287
     36  O         17.6710    0.2970   76.2420 O.2   189  GLU189     -0.2864
     37  CB        14.7150    1.2670   74.9740 C.3   189  GLU189      0.0415
     38  CG        13.2990    1.5640   75.4980 C.3   189  GLU189      0.1163
     39  CD        12.2450    1.5560   74.4360 C.2   189  GLU189      0.3649
     40  OE1       12.5170    1.4230   73.1910 O.co2 189  GLU189     -0.2457
     41  OE2       11.0580    1.7730   74.7730 O.co2 189  GLU189     -0.2457
     42  N         15.7110    4.4360   67.3440 N.3   222  THR222     -0.1203
     43  CA        15.0100    5.6860   67.0540 C.3   222  THR222      0.1994
     44  C         15.5290    6.8150   67.9210 C.2   222  THR222      0.2618
     45  O         15.9020    6.5910   69.0590 O.2   222  THR222     -0.2717
     46  CB        13.4770    5.5220   67.1960 C.3   222  THR222      0.1784
     47  OG1       13.1440    5.1520   68.5420 O.3   222  THR222     -0.2211
     48  CG2       12.9830    4.5030   66.2040 C.3   222  THR222      0.0376
     49  N         15.5230    8.0320   67.3890 N.am  223  LEU223     -0.1965
     50  CA        16.1880    9.1790   67.9580 C.3   223  LEU223      0.1728
     51  C         15.3040   10.4290   68.0510 C.2   223  LEU223      0.2617
     52  O         15.8300   11.5440   67.9380 O.2   223  LEU223     -0.2715
     53  CB        17.4410    9.4880   67.1400 C.3   223  LEU223      0.0311
     54  CG        18.4730    8.3250   67.0370 C.3   223  LEU223      0.0022
     55  CD1       19.5880    8.7500   66.0780 C.3   223  LEU223      0.0001
     56  CD2       19.0510    7.9580   68.3830 C.3   223  LEU223      0.0001
     57  N         13.9830   10.2390   68.1540 N.am  224  GLY224     -0.1940
     58  CA        13.0890   11.3960   68.2420 C.3   224  GLY224      0.2014
     59  C         13.2830   12.2500   66.9980 C.2   224  GLY224      0.2638
     60  O         13.2120   11.7490   65.8720 O.2   224  GLY224     -0.2714
     61  N         13.5070   13.5270   67.1850 N.am  225  ALA225     -0.1977
     62  CA        13.6160   14.5000   66.0640 C.3   225  ALA225      0.1597
     63  C         14.8460   14.2520   65.1860 C.2   225  ALA225      0.2287
     64  O         14.9560   14.8780   64.1530 O.2   225  ALA225     -0.2864
     65  CB        13.6320   15.9410   66.6060 C.3   225  ALA225      0.0319
     66  N         15.6180   11.3700   63.9050 N.3   227  GLY227     -0.1225
     67  CA        15.2930   10.2740   62.9870 C.3   227  GLY227      0.1811
     68  C         15.6220    8.9310   63.5700 C.2   227  GLY227      0.2280
     69  O         15.0420    8.5740   64.5930 O.2   227  GLY227     -0.2866
     70  N         15.4620   13.2450   59.6680 N.3   243  THR243     -0.1203
     71  CA        14.0790   13.5410   59.3370 C.3   243  THR243      0.1994
     72  C         13.9500   15.0770   59.4020 C.2   243  THR243      0.2618
     73  O         14.6300   15.7480   60.2070 O.2   243  THR243     -0.2717
     74  CB        13.1110   12.7360   60.2540 C.3   243  THR243      0.1784
     75  OG1       11.7870   12.8870   59.7850 O.3   243  THR243     -0.2211
     76  CG2       13.1990   13.1980   61.7170 C.3   243  THR243      0.0376
     77  N         13.0780   15.6240   58.6000 N.am  244  GLU244     -0.1965
     78  CA        13.0050   17.1260   58.4850 C.3   244  GLU244      0.1733
     79  C         12.3360   17.6850   59.7360 C.2   244  GLU244      0.2616
     80  O         11.5130   17.0570   60.3890 O.2   244  GLU244     -0.2715
     81  CB        12.3210   17.5320   57.1490 C.3   244  GLU244      0.0429
     82  CG        10.9820   16.8740   56.9720 C.3   244  GLU244      0.1163
     83  CD         9.9010   17.5060   56.0640 C.2   244  GLU244      0.3649
     84  OE1        8.7560   16.8110   56.0050 O.co2 244  GLU244     -0.2457
     85  OE2       10.1790   18.6350   55.5290 O.co2 244  GLU244     -0.2457
     86  N         12.6870   18.8970   60.0310 N.am  245  LYS245     -0.1963
     87  CA        12.1430   19.5920   61.1560 C.3   245  LYS245      0.1728
     88  C         10.6310   19.7860   60.9450 C.2   245  LYS245      0.2616
     89  O         10.1960   20.3740   59.9420 O.2   245  LYS245     -0.2715
     90  CB        12.9080   20.9040   61.3350 C.3   245  LYS245      0.0311
     91  CG        12.5300   21.7490   62.5460 C.3   245  LYS245      0.0038
     92  CD        12.7550   21.0720   63.9120 C.3   245  LYS245      0.0206
     93  CE        12.4400   22.0110   65.1350 C.3   245  LYS245      0.1093
     94  NZ        10.9870   22.2750   65.4090 N.3   245  LYS245     -0.1314
     95  N          9.8310   19.2920   61.8940 N.am  246  VAL246     -0.1977
     96  CA         8.3890   19.6080   61.9780 C.3   246  VAL246      0.1596
     97  C          8.0920   20.2250   63.3820 C.2   246  VAL246      0.2287
     98  O          8.9330   20.1670   64.2520 O.2   246  VAL246     -0.2864
     99  CB         7.5250   18.4260   61.6760 C.3   246  VAL246      0.0276
    100  CG1        7.9260   17.8950   60.2890 C.3   246  VAL246      0.0022
    101  CG2        7.7540   17.2590   62.6880 C.3   246  VAL246      0.0022
    102  N          6.3240   19.6370   66.4940 N.3   248  ALA248     -0.1245
    103  CA         5.6760   18.6320   67.3340 C.3   248  ALA248      0.1562
    104  C          4.5650   19.1990   68.2500 C.2   248  ALA248      0.2260
    105  O          4.7660   20.1850   68.9760 O.2   248  ALA248     -0.2867
    106  CB         6.6830   17.9340   68.1720 C.3   248  ALA248      0.0290
    107  N          4.1730   14.0670   70.9550 N.3   251  THR251     -0.1203
    108  CA         4.9600   12.9200   70.5150 C.3   251  THR251      0.1994
    109  C          4.5470   11.5220   71.1080 C.2   251  THR251      0.2619
    110  O          5.1940   10.5300   70.7880 O.2   251  THR251     -0.2717
    111  CB         6.4490   13.1730   70.8070 C.3   251  THR251      0.1784
    112  OG1        6.6170   13.3060   72.2170 O.3   251  THR251     -0.2211
    113  CG2        6.9180   14.5050   70.1120 C.3   251  THR251      0.0376
    114  N          3.5300   11.4990   71.9920 N.am  252  THR252     -0.1938
    115  CA         3.1670   10.2800   72.6840 C.3   252  THR252      0.2028
    116  C          2.8310    9.2230   71.6700 C.2   252  THR252      0.2643
    117  O          2.0990    9.4520   70.7290 O.2   252  THR252     -0.2714
    118  CB         1.9660   10.4810   73.6350 C.3   252  THR252      0.1808
    119  OG1        2.2380   11.6060   74.4530 O.3   252  THR252     -0.2208
    120  CG2        1.7550    9.2630   74.5110 C.3   252  THR252      0.0379
    121  N          3.4630    8.0690   71.7810 N.am  253  GLY253     -0.1939
    122  CA         3.2010    7.0350   70.7890 C.3   253  GLY253      0.2014
    123  C          3.8810    7.1030   69.4420 C.2   253  GLY253      0.2639
    124  O          3.5840    6.2750   68.5570 O.2   253  GLY253     -0.2714
    125  N          4.8400    8.0220   69.2630 N.am  254  ALA254     -0.1963
    126  CA         5.5110    8.1500   67.9500 C.3   254  ALA254      0.1728
    127  C          6.2820    6.9020   67.6230 C.2   254  ALA254      0.2616
    128  O          6.3310    6.5260   66.4900 O.2   254  ALA254     -0.2715
    129  CB         6.4620    9.3250   68.0080 C.3   254  ALA254      0.0334
    130  N          6.9200    6.3090   68.6410 N.am  255  GLY255     -0.1955
    131  CA         7.6690    5.0900   68.4170 C.3   255  GLY255      0.1869
    132  C          6.7840    3.9030   67.8960 C.2   255  GLY255      0.2309
    133  O          7.2190    3.1320   67.0390 O.2   255  GLY255     -0.2863
    134  N          6.0830    4.5580   64.2710 N.3   258  PHE258     -0.1241
    135  CA         7.2470    4.1480   63.5320 C.3   258  PHE258      0.1605
    136  C          7.2820    2.6530   63.3000 C.2   258  PHE258      0.2264
    137  O          7.5050    2.1660   62.2090 O.2   258  PHE258     -0.2867
    138  CB         8.5080    4.6540   64.2660 C.3   258  PHE258      0.0534
    139  CG         9.8250    4.3760   63.5470 C.ar  258  PHE258     -0.0203
    140  CD1       10.4130    5.3260   62.7290 C.ar  258  PHE258     -0.0042
    141  CD2       10.4530    3.1780   63.7120 C.ar  258  PHE258     -0.0042
    142  CE1       11.6050    5.0570   62.1120 C.ar  258  PHE258     -0.0003
    143  CE2       11.6330    2.8960   63.0560 C.ar  258  PHE258     -0.0003
    144  CZ        12.1940    3.8360   62.2600 C.ar  258  PHE258     -0.0000
    145  N          9.9580    7.1170   59.2980 N.3   282  ASN282     -0.1240
    146  CA        10.2100    8.4100   59.9160 C.3   282  ASN282      0.1653
    147  C          9.1100    9.4030   59.5350 C.2   282  ASN282      0.2266
    148  O          8.5580   10.0960   60.3970 O.2   282  ASN282     -0.2867
    149  CB        11.5280    8.9900   59.4770 C.3   282  ASN282      0.1155
    150  CG        12.7460    8.5610   60.3300 C.2   282  ASN282      0.2627
    151  OD1       12.6670    8.1130   61.4930 O.2   282  ASN282     -0.2716
    152  ND2       13.9260    8.8340   59.7320 N.am  282  ASN282     -0.0877
    153  N          5.7150    8.5670   61.3090 N.3   285  ALA285     -0.1231
    154  CA         5.7940    8.8400   62.7720 C.3   285  ALA285      0.1694
    155  C          5.7770   10.3250   62.9740 C.2   285  ALA285      0.2591
    156  O          5.2080   10.8350   63.9430 O.2   285  ALA285     -0.2718
    157  CB         7.0390    8.2270   63.3300 C.3   285  ALA285      0.0304
    158  N          6.4450   11.0550   62.0910 N.am  286  ALA286     -0.1980
    159  CA         6.5040   12.5470   62.2340 C.3   286  ALA286      0.1597
    160  C          5.1620   13.2190   61.9830 C.2   286  ALA286      0.2287
    161  O          4.9120   14.2630   62.5180 O.2   286  ALA286     -0.2864
    162  CB         7.5860   13.1560   61.3180 C.3   286  ALA286      0.0319
    163  N          3.4650   12.9340   65.3150 N.3   289  VAL289     -0.1245
    164  CA         3.8340   13.9320   66.3160 C.3   289  VAL289      0.1561
    165  C          3.2380   15.3300   66.1360 C.2   289  VAL289      0.2260
    166  O          3.2040   16.1450   67.0760 O.2   289  VAL289     -0.2867
    167  CB         5.3440   14.0870   66.5230 C.3   289  VAL289      0.0252
    168  CG1        6.0340   12.7470   66.6990 C.3   289  VAL289      0.0019
    169  CG2        6.0010   14.9150   65.4370 C.3   289  VAL289      0.0019
@<TRIPOS>BOND
     1    85    83   ar
     2    84    83   ar
     3    83    82    1
     4    82    81    1
     5    81    78    1
     6    78    77    1
     7    78    79    1
     8    77    72   am
     9   145   146    1
    10    71    72    1
    11    71    70    1
    12    71    74    1
    13    72    73    2
    14   149   146    1
    15   149   150    1
    16   147   146    1
    17   147   148    2
    18   152   150   am
    19    79    86   am
    20    79    80    2
    21    75    74    1
    22    89    88    2
    23    86    87    1
    24    74    76    1
    25   100    99    1
    26   150   151    2
    27    88    87    1
    28    88    95   am
    29    87    90    1
    30   153   154    1
    31   162   159    1
    32    90    91    1
    33    99    96    1
    34    99   101    1
    35    95    96    1
    36    96    97    1
    37   160   159    1
    38   160   161    2
    39   158   159    1
    40   158   155   am
    41   142   144   ar
    42   142   140   ar
    43   137   136    2
    44   144   143   ar
    45    91    92    1
    46   140   139   ar
    47   154   155    1
    48   154   157    1
    49   155   156    2
    50    67    68    1
    51    67    66    1
    52   143   141   ar
    53   136   135    1
    54    97    98    2
    55   135   138    1
    56   135   134    1
    57   139   141   ar
    58   139   138    1
    59    68    69    2
    60    92    93    1
    61    64    63    2
    62    93    94    1
    63    63    62    1
    64   163   164    1
    65   169   167    1
    66    60    59    2
    67    62    65    1
    68    62    61    1
    69    55    54    1
    70   165   164    1
    71   165   166    2
    72    48    46    1
    73   164   167    1
    74   128   127    2
    75   102   103    1
    76   167   168    1
    77    59    61   am
    78    59    58    1
    79    54    53    1
    80    54    56    1
    81   133   132    2
    82    43    46    1
    83    43    42    1
    84    43    44    1
    85    53    50    1
    86    46    47    1
    87   103   106    1
    88   103   104    1
    89    49    44   am
    90    49    50    1
    91   127   126    1
    92   127   130   am
    93   132   131    1
    94    44    45    2
    95    52    51    2
    96   126   129    1
    97   126   125    1
    98    50    51    1
    99    51    57   am
   100    57    58    1
   101   104   105    2
   102   131   130    1
   103   124   123    2
   104   125   123   am
   105   123   122    1
   106     4     3    2
   107   113   111    1
   108   108   111    1
   109   108   107    1
   110   108   109    1
   111   117   116    2
   112   110   109    2
   113   122   121    1
   114   111   112    1
   115   109   114   am
   116    25    24   ar
   117     3     2    1
   118    10    11    1
   119    11    14    1
   120    11    12    1
   121    24    23    1
   122    24    26   ar
   123    23    22    1
   124   116   121   am
   125   116   115    1
   126    14    15    1
   127   114   115    1
   128    12    18   am
   129    12    13    2
   130    18    19    1
   131     2     5    1
   132     2     1    1
   133   115   118    1
   134    22    19    1
   135    19    20    1
   136     5     6    1
   137    40    39   ar
   138    15    17   am
   139    15    16    2
   140   118   119    1
   141   118   120    1
   142     6     7    1
   143    20    21    2
   144    20    27   am
   145     7     8    1
   146    39    41   ar
   147    39    38    1
   148     9     8    1
   149    37    38    1
   150    37    34    1
   151    27    28    1
   152    35    34    1
   153    35    36    2
   154    33    34    1
   155    33    29   am
   156    28    29    1
   157    28    31    1
   158    29    30    2
   159    32    31    1
