@<TRIPOS>MOLECULE
tmp/5c49A01.pdb
 89 84 0 0 0
SMALL
GASTEIGER

@<TRIPOS>ATOM
      1  N        -10.7410   -8.4900  -16.0460 N.3    36  GLU36      -0.1245
      2  CA       -11.6410   -8.1580  -17.1200 C.3    36  GLU36       0.1567
      3  C        -10.9280   -7.3230  -18.1900 C.2    36  GLU36       0.2260
      4  O        -10.1940   -6.4000  -17.8600 O.2    36  GLU36      -0.2867
      5  CB       -12.8690   -7.3860  -16.6110 C.3    36  GLU36       0.0388
      6  CG       -13.9170   -7.0970  -17.6740 C.3    36  GLU36       0.1160
      7  CD       -14.5940   -8.3170  -18.2630 C.2    36  GLU36       0.3649
      8  OE1      -14.4220   -9.4400  -17.7500 O.co2  36  GLU36      -0.2457
      9  OE2      -15.3340   -8.1780  -19.2770 O.co2  36  GLU36      -0.2457
     10  N         -9.3450  -11.2220  -21.5970 N.3    39  PHE39      -0.1241
     11  CA        -9.7470  -12.4270  -22.2790 C.3    39  PHE39       0.1605
     12  C        -10.9850  -12.2280  -23.1270 C.2    39  PHE39       0.2264
     13  O        -11.8730  -11.4400  -22.7640 O.2    39  PHE39      -0.2867
     14  CB        -9.9800  -13.5860  -21.2990 C.3    39  PHE39       0.0534
     15  CG       -10.9930  -13.3060  -20.2120 C.ar   39  PHE39      -0.0203
     16  CD1      -12.3270  -13.6660  -20.3810 C.ar   39  PHE39      -0.0042
     17  CD2      -10.6110  -12.7070  -19.0160 C.ar   39  PHE39      -0.0042
     18  CE1      -13.2500  -13.4370  -19.3650 C.ar   39  PHE39      -0.0003
     19  CE2      -11.5290  -12.4610  -18.0110 C.ar   39  PHE39      -0.0003
     20  CZ       -12.8480  -12.8220  -18.1920 C.ar   39  PHE39      -0.0000
     21  N        -13.9920  -14.2820  -23.9320 N.3    41  ILE41      -0.1245
     22  CA       -14.6380  -15.4570  -23.3440 C.3    41  ILE41       0.1561
     23  C        -15.2330  -16.3710  -24.4070 C.2    41  ILE41       0.2260
     24  O        -15.4090  -17.5670  -24.1820 O.2    41  ILE41      -0.2867
     25  CB       -15.7300  -15.0530  -22.3190 C.3    41  ILE41       0.0252
     26  CG1      -16.1580  -16.2430  -21.4320 C.3    41  ILE41       0.0019
     27  CG2      -16.9680  -14.4140  -22.9840 C.3    41  ILE41       0.0019
     28  CD1      -15.0360  -16.9130  -20.6780 C.3    41  ILE41       0.0001
     29  N        -14.5080  -20.1970  -24.1980 N.3    45  ASN45      -0.1240
     30  CA       -15.6370  -21.1250  -24.1430 C.3    45  ASN45       0.1653
     31  C        -15.5730  -22.2080  -25.2170 C.2    45  ASN45       0.2266
     32  O        -15.8440  -23.3940  -24.9240 O.2    45  ASN45      -0.2867
     33  CB       -16.9900  -20.4020  -24.1890 C.3    45  ASN45       0.1155
     34  CG       -17.4170  -19.8510  -22.8400 C.2    45  ASN45       0.2627
     35  OD1      -17.0800  -20.3920  -21.7830 O.2    45  ASN45      -0.2716
     36  ND2      -18.2390  -18.7870  -22.8830 N.am   45  ASN45      -0.0877
     37  N        -26.3120  -18.9800  -11.5180 N.3    78  LYS78      -0.1231
     38  CA       -26.3920  -17.8310  -12.4180 C.3    78  LYS78       0.1693
     39  C        -25.0790  -17.4540  -13.0570 C.2    78  LYS78       0.2592
     40  O        -25.0860  -16.8710  -14.1480 O.2    78  LYS78      -0.2718
     41  CB       -26.9540  -16.6050  -11.7030 C.3    78  LYS78       0.0285
     42  CG       -28.3850  -16.8070  -11.2720 C.3    78  LYS78       0.0035
     43  CD       -29.0150  -15.5620  -10.6700 C.3    78  LYS78       0.0206
     44  CE       -30.5220  -15.7650  -10.5280 C.3    78  LYS78       0.1093
     45  NZ       -31.2030  -15.8240  -11.8600 N.3    78  LYS78      -0.1314
     46  N        -23.9660  -17.7850  -12.3960 N.am   79  HIS79      -0.1976
     47  CA       -22.6810  -17.1900  -12.7900 C.3    79  HIS79       0.1656
     48  C        -21.4840  -18.0660  -12.9790 C.2    79  HIS79       0.2291
     49  O        -20.4940  -17.6080  -13.5620 O.2    79  HIS79      -0.2864
     50  CB       -22.2960  -16.0900  -11.7970 C.3    79  HIS79       0.0771
     51  CG       -23.2850  -14.9530  -11.7430 C.ar   79  HIS79       0.0820
     52  ND1      -23.5180  -14.1610  -12.8050 N.ar   79  HIS79      -0.2267
     53  CD2      -24.1060  -14.4990  -10.7190 C.ar   79  HIS79       0.1154
     54  CE1      -24.4830  -13.2550  -12.4750 C.ar   79  HIS79       0.1986
     55  NE2      -24.8260  -13.4520  -11.2060 N.ar   79  HIS79      -0.2212
     56  N        -21.3660  -21.3410  -16.5120 N.3    82  VAL82      -0.1245
     57  CA       -22.6290  -21.6060  -17.1990 C.3    82  VAL82       0.1561
     58  C        -22.3440  -22.0450  -18.6400 C.2    82  VAL82       0.2260
     59  O        -21.5720  -21.4030  -19.3690 O.2    82  VAL82      -0.2867
     60  CB       -23.5520  -20.3690  -17.1930 C.3    82  VAL82       0.0252
     61  CG1      -24.8370  -20.6230  -18.0030 C.3    82  VAL82       0.0019
     62  CG2      -23.8920  -19.9860  -15.7620 C.3    82  VAL82       0.0019
     63  N        -21.1700  -11.9890  -10.6740 N.3   149  ASP149     -0.1225
     64  CA       -20.8730  -11.7910  -12.0650 C.3   149  ASP149      0.1805
     65  C        -20.1310  -13.0310  -12.5490 C.2   149  ASP149      0.2597
     66  O        -19.8370  -13.9320  -11.7520 O.2   149  ASP149     -0.2718
     67  CB       -20.0390  -10.4910  -12.2710 C.3   149  ASP149      0.1424
     68  CG       -20.2730   -9.8310  -13.6150 C.2   149  ASP149      0.3668
     69  OD1      -20.1580   -8.5810  -13.6760 O.co2 149  ASP149     -0.2456
     70  OD2      -20.5620  -10.5280  -14.6180 O.co2 149  ASP149     -0.2456
     71  N        -19.8460  -13.0430  -13.8300 N.am  150  HIS150     -0.1975
     72  CA       -19.2150  -14.1810  -14.5000 C.3   150  HIS150      0.1656
     73  C        -17.9710  -14.7130  -13.8280 C.2   150  HIS150      0.2291
     74  O        -17.0130  -13.9750  -13.6380 O.2   150  HIS150     -0.2864
     75  CB       -18.9130  -13.7540  -15.9340 C.3   150  HIS150      0.0771
     76  CG       -18.0900  -14.7480  -16.6950 C.ar  150  HIS150      0.0820
     77  ND1      -18.6260  -15.6100  -17.5790 N.ar  150  HIS150     -0.2267
     78  CD2      -16.7300  -15.0030  -16.6620 C.ar  150  HIS150      0.1154
     79  CE1      -17.6460  -16.3720  -18.0950 C.ar  150  HIS150      0.1986
     80  NE2      -16.4840  -16.0100  -17.5210 N.ar  150  HIS150     -0.2212
     81  N        -15.3230   -5.4720  -12.6580 N.3   269  LYS269     -0.1245
     82  CA       -16.3730   -6.4010  -12.2480 C.3   269  LYS269      0.1561
     83  C        -16.0680   -6.9040  -10.8430 C.2   269  LYS269      0.2260
     84  O        -14.9180   -7.0920  -10.4860 O.2   269  LYS269     -0.2867
     85  CB       -16.4790   -7.5990  -13.2080 C.3   269  LYS269      0.0271
     86  CG       -17.0180   -7.2390  -14.5810 C.3   269  LYS269      0.0035
     87  CD       -17.2370   -8.4810  -15.4220 C.3   269  LYS269      0.0206
     88  CE       -17.8540   -8.1800  -16.7770 C.3   269  LYS269      0.1093
     89  NZ       -18.5120   -9.4030  -17.3310 N.3   269  LYS269     -0.1314
@<TRIPOS>BOND
     1    31    32    2
     2    31    30    1
     3    23    24    2
     4    23    22    1
     5    29    30    1
     6    33    30    1
     7    33    34    1
     8    21    22    1
     9    22    25    1
    10    12    13    2
    11    12    11    1
    12    27    25    1
    13    36    34   am
    14    34    35    2
    15    25    26    1
    16    11    10    1
    17    11    14    1
    18    26    28    1
    19    14    15    1
    20    16    15   ar
    21    16    18   ar
    22    15    17   ar
    23    59    58    2
    24    18    20   ar
    25     9     7   ar
    26    17    19   ar
    27    58    57    1
    28     7     8   ar
    29     7     6    1
    30    20    19   ar
    31     3     4    2
    32     3     2    1
    33    79    77   ar
    34    79    80   ar
    35    61    60    1
    36     6     5    1
    37    77    76   ar
    38    80    78   ar
    39    89    88    1
    40    57    60    1
    41    57    56    1
    42    60    62    1
    43     2     5    1
    44     2     1    1
    45    88    87    1
    46    76    78   ar
    47    76    75    1
    48    75    72    1
    49    87    86    1
    50    70    68   ar
    51    86    85    1
    52    72    71    1
    53    72    73    1
    54    40    39    2
    55    71    65   am
    56    73    74    2
    57    69    68   ar
    58    68    67    1
    59    49    48    2
    60    85    82    1
    61    39    38    1
    62    39    46   am
    63    48    47    1
    64    52    54   ar
    65    52    51   ar
    66    47    46    1
    67    47    50    1
    68    81    82    1
    69    65    64    1
    70    65    66    2
    71    54    55   ar
    72    38    41    1
    73    38    37    1
    74    67    64    1
    75    82    83    1
    76    64    63    1
    77    45    44    1
    78    50    51    1
    79    51    53   ar
    80    41    42    1
    81    42    43    1
    82    55    53   ar
    83    83    84    2
    84    43    44    1
