@<TRIPOS>MOLECULE
tmp/5c4dA01.pdb
 166 163 0 0 0
SMALL
GASTEIGER

@<TRIPOS>ATOM
      1  N         -8.8010  -26.3740   -1.7150 N.3    60  PHE60      -0.1241
      2  CA        -8.5530  -26.9300   -3.0350 C.3    60  PHE60       0.1605
      3  C         -7.5340  -26.0780   -3.7680 C.2    60  PHE60       0.2264
      4  O         -7.6190  -24.8600   -3.8000 O.2    60  PHE60      -0.2867
      5  CB        -9.8640  -27.0450   -3.8270 C.3    60  PHE60       0.0534
      6  CG       -10.7980  -28.0970   -3.2920 C.ar   60  PHE60      -0.0203
      7  CD1      -11.4680  -27.9130   -2.0860 C.ar   60  PHE60      -0.0042
      8  CD2      -11.0000  -29.3010   -3.9810 C.ar   60  PHE60      -0.0042
      9  CE1      -12.3120  -28.8790   -1.5720 C.ar   60  PHE60      -0.0003
     10  CE2      -11.8340  -30.2870   -3.4480 C.ar   60  PHE60      -0.0003
     11  CZ       -12.4990  -30.0610   -2.2630 C.ar   60  PHE60      -0.0000
     12  N         -6.0050  -26.5220   -7.3920 N.3    62  ILE62      -0.1231
     13  CA        -6.0390  -27.2540   -8.6470 C.3    62  ILE62       0.1692
     14  C         -5.4570  -26.3490   -9.7240 C.2    62  ILE62       0.2592
     15  O         -5.6530  -25.1380   -9.7090 O.2    62  ILE62      -0.2718
     16  CB        -7.4830  -27.7450   -8.9150 C.3    62  ILE62       0.0266
     17  CG1       -7.8320  -28.8720   -7.9160 C.3    62  ILE62       0.0019
     18  CG2       -7.6360  -28.2430  -10.3510 C.3    62  ILE62       0.0020
     19  CD1       -9.3010  -29.1830   -7.7700 C.3    62  ILE62       0.0001
     20  N         -4.6800  -26.9430  -10.6360 N.am   63  LYS63      -0.1966
     21  CA        -4.0140  -26.2060  -11.7190 C.3    63  LYS63       0.1728
     22  C         -3.1380  -25.0810  -11.1740 C.2    63  LYS63       0.2616
     23  O         -2.3460  -25.3360  -10.2760 O.2    63  LYS63      -0.2715
     24  CB        -5.0150  -25.7170  -12.7710 C.3    63  LYS63       0.0311
     25  CG        -5.7120  -26.8460  -13.4790 C.3    63  LYS63       0.0038
     26  CD        -6.5240  -26.3300  -14.6530 C.3    63  LYS63       0.0206
     27  CE        -7.5310  -27.3830  -15.0840 C.3    63  LYS63       0.1093
     28  NZ        -8.7350  -27.3140  -14.2150 N.3    63  LYS63      -0.1314
     29  N         -3.2920  -23.8440  -11.6380 N.am   64  LYS64      -0.1963
     30  CA        -2.3760  -22.7720  -11.2760 C.3    64  LYS64       0.1728
     31  C         -2.5050  -22.3430   -9.8080 C.2    64  LYS64       0.2616
     32  O         -1.6170  -21.6910   -9.2740 O.2    64  LYS64      -0.2715
     33  CB        -2.5920  -21.5520  -12.1620 C.3    64  LYS64       0.0311
     34  CG        -2.3530  -21.8070  -13.6430 C.3    64  LYS64       0.0038
     35  CD        -2.3560  -20.4910  -14.4150 C.3    64  LYS64       0.0206
     36  CE        -2.1870  -20.7130  -15.9180 C.3    64  LYS64       0.1093
     37  NZ        -3.4710  -20.9730  -16.6340 N.3    64  LYS64      -0.1314
     38  N         -3.6000  -22.7380   -9.1640 N.am   65  TYR65      -0.1974
     39  CA        -3.8740  -22.2750   -7.8040 C.3    65  TYR65       0.1639
     40  C         -3.0060  -22.9260   -6.7590 C.2    65  TYR65       0.2290
     41  O         -3.0110  -22.4770   -5.6060 O.2    65  TYR65      -0.2864
     42  CB        -5.3490  -22.4390   -7.4500 C.3    65  TYR65       0.0560
     43  CG        -6.2570  -21.3690   -8.0420 C.ar   65  TYR65      -0.0198
     44  CD1       -6.3490  -21.1760   -9.4290 C.ar   65  TYR65      -0.0009
     45  CD2       -7.0450  -20.5610   -7.2260 C.ar   65  TYR65      -0.0009
     46  CE1       -7.1870  -20.2100   -9.9610 C.ar   65  TYR65       0.0417
     47  CE2       -7.8870  -19.5960   -7.7630 C.ar   65  TYR65       0.0417
     48  CZ        -7.9510  -19.4210   -9.1250 C.ar   65  TYR65       0.1957
     49  OH        -8.7920  -18.4610   -9.6610 O.3    65  TYR65      -0.2866
     50  N        -16.7280  -25.6690   -8.7180 N.3   118  SER118     -0.1217
     51  CA       -18.0770  -25.8540   -8.1760 C.3   118  SER118      0.1889
     52  C        -18.4600  -27.2750   -7.8410 C.2   118  SER118      0.2288
     53  O        -18.4800  -27.6200   -6.6380 O.2   118  SER118     -0.2866
     54  CB       -19.1090  -25.1640   -9.0550 C.3   118  SER118      0.2089
     55  OG       -19.3630  -23.9210   -8.4380 O.3   118  SER118     -0.2183
     56  N        -15.8750  -29.4840   -5.5620 N.3   121  ARG121     -0.1245
     57  CA       -15.6740  -29.2500   -4.1160 C.3   121  ARG121      0.1563
     58  C        -16.8240  -29.8000   -3.2870 C.2   121  ARG121      0.2260
     59  O        -16.6000  -30.5540   -2.3500 O.2   121  ARG121     -0.2867
     60  CB       -15.4340  -27.7900   -3.7670 C.3   121  ARG121      0.0307
     61  CG       -14.1830  -27.2330   -4.4020 C.3   121  ARG121      0.0489
     62  CD       -13.7540  -25.9560   -3.7160 C.3   121  ARG121      0.2205
     63  NE       -14.7070  -24.8680   -3.9590 N.pl3 121  ARG121     -0.0865
     64  CZ       -14.5660  -23.6330   -3.4940 C.cat 121  ARG121      0.5346
     65  NH1      -13.5250  -23.3230   -2.7330 N.pl3 121  ARG121      0.1354
     66  NH2      -15.4670  -22.7060   -3.7750 N.pl3 121  ARG121      0.1354
     67  N        -11.6920  -21.0270    0.2990 N.3   144  ASP144     -0.1225
     68  CA       -10.9200  -20.7670   -0.9010 C.3   144  ASP144      0.1805
     69  C         -9.4360  -20.6150   -0.5570 C.2   144  ASP144      0.2598
     70  O         -9.0830  -20.2180    0.5520 O.2   144  ASP144     -0.2718
     71  CB       -11.4430  -19.4760   -1.5300 C.3   144  ASP144      0.1424
     72  CG       -12.7080  -19.6600   -2.3500 C.2   144  ASP144      0.3668
     73  OD1      -13.4100  -20.6600   -2.2760 O.co2 144  ASP144     -0.2456
     74  OD2      -12.9530  -18.6870   -3.1240 O.co2 144  ASP144     -0.2456
     75  N         -8.5850  -20.9070   -1.5470 N.am  145  VAL145     -0.1966
     76  CA        -7.1290  -20.9160   -1.3510 C.3   145  VAL145      0.1727
     77  C         -6.4490  -19.5840   -1.6680 C.2   145  VAL145      0.2616
     78  O         -5.3390  -19.3310   -1.1780 O.2   145  VAL145     -0.2715
     79  CB        -6.4610  -22.0570   -2.1650 C.3   145  VAL145      0.0290
     80  CG1       -6.4000  -21.7270   -3.6590 C.3   145  VAL145      0.0023
     81  CG2       -5.0790  -22.3860   -1.5840 C.3   145  VAL145      0.0023
     82  N         -7.1050  -18.7490   -2.4830 N.am  146  ASP146     -0.1971
     83  CA        -6.5230  -17.5070   -2.9790 C.3   146  ASP146      0.1709
     84  C         -6.6910  -16.4060   -1.9410 C.2   146  ASP146      0.2293
     85  O         -7.1840  -15.3210   -2.2240 O.2   146  ASP146     -0.2864
     86  CB        -7.1090  -17.0990   -4.3520 C.3   146  ASP146      0.1436
     87  CG        -8.5830  -16.9000   -4.3470 C.2   146  ASP146      0.3671
     88  OD1       -9.3580  -17.5260   -3.5850 O.co2 146  ASP146     -0.2456
     89  OD2       -9.0050  -16.0700   -5.1680 O.co2 146  ASP146     -0.2456
     90  N        -20.7510  -11.9990    2.6000 N.3   166  HIS166     -0.1241
     91  CA       -19.9630  -11.5500    1.4740 C.3   166  HIS166      0.1621
     92  C        -19.5890  -10.0740    1.6790 C.2   166  HIS166      0.2264
     93  O        -20.4460   -9.2490    2.0060 O.2   166  HIS166     -0.2867
     94  CB       -20.7930  -11.7190    0.2220 C.3   166  HIS166      0.0745
     95  CG       -20.0500  -11.5930   -1.0600 C.ar  166  HIS166      0.0817
     96  ND1      -19.4030  -10.4490   -1.4530 N.ar  166  HIS166     -0.2268
     97  CD2      -19.9520  -12.4620   -2.0910 C.ar  166  HIS166      0.1154
     98  CE1      -18.9150  -10.6190   -2.6680 C.ar  166  HIS166      0.1986
     99  NE2      -19.2440  -11.8260   -3.0810 N.ar  166  HIS166     -0.2212
    100  N        -20.9090  -15.7110    1.1970 N.3   199  MET199     -0.1230
    101  CA       -19.8720  -16.0170    0.1950 C.3   199  MET199      0.1702
    102  C        -19.5110  -17.4900    0.2510 C.2   199  MET199      0.2593
    103  O        -19.3570  -18.0730    1.3130 O.2   199  MET199     -0.2718
    104  CB       -18.6270  -15.1260    0.3440 C.3   199  MET199      0.0401
    105  CG       -17.6880  -15.1420   -0.8650 C.3   199  MET199      0.0596
    106  SD       -16.4320  -13.8970   -0.7450 S.3   199  MET199     -0.1393
    107  CE       -16.8540  -12.7660   -1.9960 C.3   199  MET199      0.0692
    108  N        -19.3290  -18.0830   -0.9150 N.am  200  GLY200     -0.1942
    109  CA       -18.9630  -19.4970   -1.0060 C.3   200  GLY200      0.2014
    110  C        -17.5740  -19.8090   -0.5190 C.2   200  GLY200      0.2638
    111  O        -17.2240  -20.9700   -0.4020 O.2   200  GLY200     -0.2714
    112  N        -16.7670  -18.7890   -0.2850 N.am  201  ALA201     -0.1977
    113  CA       -15.3530  -18.9270    0.0560 C.3   201  ALA201      0.1597
    114  C        -15.0330  -19.2990    1.4940 C.2   201  ALA201      0.2287
    115  O        -13.8810  -19.4870    1.8110 O.2   201  ALA201     -0.2864
    116  CB       -14.6320  -17.6330   -0.3100 C.3   201  ALA201      0.0319
    117  N        -23.9640  -17.8660   -9.8950 N.3   233  TRP233     -0.1227
    118  CA       -22.7050  -17.9250   -9.1400 C.3   233  TRP233      0.1737
    119  C        -22.3920  -19.3320   -8.6520 C.2   233  TRP233      0.2595
    120  O        -21.6820  -19.5190   -7.6610 O.2   233  TRP233     -0.2718
    121  CB       -22.6810  -16.8750   -8.0220 C.3   233  TRP233      0.0564
    122  CG       -22.5860  -15.4900   -8.6030 C.ar  233  TRP233      0.0003
    123  CD1      -23.5840  -14.5630   -8.6810 C.ar  233  TRP233      0.0946
    124  CD2      -21.4520  -14.9200   -9.2670 C.ar  233  TRP233      0.0152
    125  NE1      -23.1350  -13.4260   -9.3400 N.ar  233  TRP233     -0.2442
    126  CE2      -21.8260  -13.6220   -9.6910 C.ar  233  TRP233      0.0810
    127  CE3      -20.1430  -15.3550   -9.5030 C.ar  233  TRP233      0.0012
    128  CZ2      -20.9360  -12.7660  -10.3660 C.ar  233  TRP233      0.0191
    129  CZ3      -19.2630  -14.4950  -10.1760 C.ar  233  TRP233      0.0001
    130  CH2      -19.6710  -13.2220  -10.5820 C.ar  233  TRP233      0.0015
    131  N        -22.8700  -20.3290   -9.3930 N.am  234  HIS234     -0.1961
    132  CA       -22.3630  -21.6920   -9.2630 C.3   234  HIS234      0.1787
    133  C        -22.5980  -22.1970   -7.8430 C.2   234  HIS234      0.2620
    134  O        -23.7040  -22.0110   -7.3240 O.2   234  HIS234     -0.2715
    135  CB       -20.9030  -21.7200   -9.7230 C.3   234  HIS234      0.0785
    136  CG       -20.6910  -21.0050  -11.0130 C.ar  234  HIS234      0.0821
    137  ND1      -19.9700  -19.8430  -11.1200 N.ar  234  HIS234     -0.2267
    138  CD2      -21.1900  -21.2530  -12.2430 C.ar  234  HIS234      0.1154
    139  CE1      -19.9990  -19.4260  -12.3780 C.ar  234  HIS234      0.1986
    140  NE2      -20.7380  -20.2630  -13.0750 N.ar  234  HIS234     -0.2212
    141  N        -21.5980  -22.8060   -7.2080 N.am  235  ASP235     -0.1957
    142  CA       -21.7560  -23.3210   -5.8460 C.3   235  ASP235      0.1840
    143  C        -22.2810  -22.2820   -4.8490 C.2   235  ASP235      0.2621
    144  O        -23.0800  -22.6070   -3.9790 O.2   235  ASP235     -0.2715
    145  CB       -20.4290  -23.9160   -5.3500 C.3   235  ASP235      0.1450
    146  CG       -19.2720  -22.9100   -5.3520 C.2   235  ASP235      0.3671
    147  OD1      -19.3330  -21.8580   -6.0280 O.co2 235  ASP235     -0.2456
    148  OD2      -18.2590  -23.1910   -4.7030 O.co2 235  ASP235     -0.2456
    149  N        -21.8570  -21.0440   -4.9980 N.am  236  GLU236     -0.1977
    150  CA       -22.2880  -19.9860   -4.0920 C.3   236  GLU236      0.1602
    151  C        -23.7910  -19.7430   -4.1520 C.2   236  GLU236      0.2287
    152  O        -24.4120  -19.4480   -3.1280 O.2   236  GLU236     -0.2864
    153  CB       -21.5290  -18.7070   -4.4000 C.3   236  GLU236      0.0415
    154  CG       -21.9260  -17.4910   -3.5850 C.3   236  GLU236      0.1163
    155  CD       -20.9490  -16.3780   -3.7950 C.2   236  GLU236      0.3649
    156  OE1      -21.2140  -15.4830   -4.6190 O.co2 236  GLU236     -0.2457
    157  OE2      -19.8800  -16.3820   -3.1560 O.co2 236  GLU236     -0.2457
    158  N         -5.2400  -12.2260   -7.9010 N.3   279  LYS279     -0.1245
    159  CA        -5.2250  -13.3870   -8.7900 C.3   279  LYS279      0.1561
    160  C         -5.6140  -13.0080  -10.2220 C.2   279  LYS279      0.2260
    161  O         -5.7920  -13.8880  -11.0680 O.2   279  LYS279     -0.2867
    162  CB        -6.1330  -14.4910   -8.2450 C.3   279  LYS279      0.0271
    163  CG        -7.6090  -14.1630   -8.2500 C.3   279  LYS279      0.0035
    164  CD        -8.4250  -15.4240   -8.0760 C.3   279  LYS279      0.0206
    165  CE        -9.9140  -15.1680   -8.1730 C.3   279  LYS279      0.1093
    166  NZ       -10.4120  -14.0370   -7.3480 N.3   279  LYS279     -0.1314
@<TRIPOS>BOND
     1    37    36    1
     2    36    35    1
     3    27    26    1
     4    27    28    1
     5    26    25    1
     6    35    34    1
     7    34    33    1
     8    25    24    1
     9   140   139   ar
    10   140   138   ar
    11    24    21    1
    12   139   137   ar
    13   138   136   ar
    14    33    30    1
    15    21    22    1
    16    21    20    1
    17    29    30    1
    18    29    22   am
    19    30    31    1
    20    22    23    2
    21   137   136   ar
    22   161   160    2
    23   136   135    1
    24    20    14   am
    25   130   128   ar
    26   130   129   ar
    27   128   126   ar
    28    18    16    1
    29   160   159    1
    30   129   127   ar
    31    46    44   ar
    32    46    48   ar
    33   117   118    1
    34    31    32    2
    35    31    38   am
    36    14    15    2
    37    14    13    1
    38   135   132    1
    39   126   125   ar
    40   126   124   ar
    41    49    48    1
    42   127   124   ar
    43    44    43   ar
    44   131   132    1
    45   131   119   am
    46   125   123   ar
    47   124   122   ar
    48   132   133    1
    49    38    39    1
    50   118   119    1
    51   118   121    1
    52    48    47   ar
    53    54    55    1
    54    54    51    1
    55    16    13    1
    56    16    17    1
    57   159   162    1
    58   159   158    1
    59    50    51    1
    60   123   122   ar
    61   119   120    2
    62    13    12    1
    63   122   121    1
    64   163   162    1
    65   163   164    1
    66    51    52    1
    67   165   164    1
    68   165   166    1
    69    43    42    1
    70    43    45   ar
    71    17    19    1
    72   133   134    2
    73   133   141   am
    74    52    53    2
    75    39    42    1
    76    39    40    1
    77    47    45   ar
    78   141   142    1
    79    40    41    2
    80   147   146   ar
    81   142   145    1
    82   142   143    1
    83    56    57    1
    84   146   145    1
    85   146   148   ar
    86    89    87   ar
    87   149   143   am
    88   149   150    1
    89   143   144    2
    90   156   155   ar
    91    61    60    1
    92    61    62    1
    93   153   150    1
    94   153   154    1
    95    86    87    1
    96    86    83    1
    97    87    88   ar
    98   151   150    1
    99   151   152    2
   100    57    60    1
   101    57    58    1
   102     8    10   ar
   103     8     6   ar
   104    63    62    1
   105    63    64    2
   106     5     6    1
   107     5     2    1
   108     4     3    2
   109   155   154    1
   110   155   157   ar
   111    66    64    1
   112     3     2    1
   113    80    79    1
   114    64    65    1
   115    10    11   ar
   116     6     7   ar
   117    58    59    2
   118    74    72   ar
   119    99    98   ar
   120    99    97   ar
   121     2     1    1
   122    83    82    1
   123    83    84    1
   124    98    96   ar
   125    82    77   am
   126    72    73   ar
   127    72    71    1
   128    11     9   ar
   129    85    84    2
   130    79    81    1
   131    79    76    1
   132    97    95   ar
   133     7     9   ar
   134   107   106    1
   135    77    76    1
   136    77    78    2
   137    75    76    1
   138    75    69   am
   139    71    68    1
   140    96    95   ar
   141    95    94    1
   142   109   108    1
   143   109   110    1
   144   108   102   am
   145    68    69    1
   146    68    67    1
   147   105   106    1
   148   105   104    1
   149    69    70    2
   150   110   111    2
   151   110   112   am
   152   116   113    1
   153   112   113    1
   154   113   114    1
   155   101   102    1
   156   101   104    1
   157   101   100    1
   158    94    91    1
   159   102   103    2
   160    91    92    1
   161    91    90    1
   162   114   115    2
   163    92    93    2
