@<TRIPOS>MOLECULE
tmp/5c4gB01.pdb
 165 151 0 0 0
SMALL
GASTEIGER

@<TRIPOS>ATOM
      1  N        -24.5310    4.8070  -46.2710 N.3   172  VAL172     -0.1245
      2  CA       -23.5840    5.3870  -47.2190 C.3   172  VAL172      0.1561
      3  C        -22.2650    5.7710  -46.5570 C.2   172  VAL172      0.2260
      4  O        -22.2440    6.2280  -45.4140 O.2   172  VAL172     -0.2867
      5  CB       -24.1710    6.6360  -47.9070 C.3   172  VAL172      0.0252
      6  CG1      -24.7430    7.5930  -46.8730 C.3   172  VAL172      0.0019
      7  CG2      -23.1110    7.3260  -48.7540 C.3   172  VAL172      0.0019
      8  N        -19.1760    8.1720  -45.9550 N.3   174  LEU174     -0.1245
      9  CA       -19.1030    9.6300  -45.9330 C.3   174  LEU174      0.1561
     10  C        -18.0180   10.1940  -46.8450 C.2   174  LEU174      0.2260
     11  O        -18.2190   11.2220  -47.4920 O.2   174  LEU174     -0.2867
     12  CB       -18.8760   10.1230  -44.5020 C.3   174  LEU174      0.0270
     13  CG       -20.0550   10.0300  -43.5300 C.3   174  LEU174      0.0019
     14  CD1      -20.4630    8.5850  -43.2870 C.3   174  LEU174      0.0001
     15  CD2      -19.7150   10.7220  -42.2200 C.3   174  LEU174      0.0001
     16  N        -15.5150    6.5390  -42.5320 N.3   181  PRO181     -0.2116
     17  CA       -16.7130    6.3580  -41.7080 C.3   181  PRO181      0.1372
     18  C        -17.9630    6.1930  -42.5660 C.2   181  PRO181      0.2244
     19  O        -17.9680    6.6160  -43.7210 O.2   181  PRO181     -0.2868
     20  CB       -16.7710    7.6520  -40.8990 C.3   181  PRO181      0.0268
     21  CG       -16.1720    8.6690  -41.8150 C.3   181  PRO181      0.0207
     22  CD       -15.0900    7.9490  -42.5850 C.3   181  PRO181      0.0892
     23  N        -22.4720    6.3050  -42.4170 N.3   183  LEU183     -0.1245
     24  CA       -23.7070    6.5870  -41.6940 C.3   183  LEU183      0.1561
     25  C        -24.7570    5.5270  -41.9970 C.2   183  LEU183      0.2260
     26  O        -24.9370    5.1330  -43.1500 O.2   183  LEU183     -0.2867
     27  CB       -24.2330    7.9800  -42.0550 C.3   183  LEU183      0.0270
     28  CG       -25.5660    8.4260  -41.4470 C.3   183  LEU183      0.0019
     29  CD1      -25.6190    9.9420  -41.3520 C.3   183  LEU183      0.0001
     30  CD2      -26.7400    7.9080  -42.2660 C.3   183  LEU183      0.0001
     31  N        -31.2410   12.8310  -50.8450 N.3   213  LYS213     -0.1245
     32  CA       -30.8670   13.8040  -49.8270 C.3   213  LYS213      0.1561
     33  C        -32.0670   14.6720  -49.4670 C.2   213  LYS213      0.2260
     34  O        -32.3800   15.6370  -50.1650 O.2   213  LYS213     -0.2867
     35  CB       -29.7020   14.6700  -50.3100 C.3   213  LYS213      0.0271
     36  CG       -29.2920   15.6640  -49.2670 C.3   213  LYS213      0.0035
     37  CD       -27.9940   16.2810  -49.7120 C.3   213  LYS213      0.0206
     38  CE       -27.2460   16.7560  -48.4880 C.3   213  LYS213      0.1093
     39  NZ       -27.1450   15.6510  -47.5350 N.3   213  LYS213     -0.1314
     40  N        -23.2750    7.5420  -36.9710 N.3   241  ILE241     -0.1245
     41  CA       -22.0960    7.4760  -37.8270 C.3   241  ILE241      0.1561
     42  C        -21.0380    6.5740  -37.2060 C.2   241  ILE241      0.2260
     43  O        -20.5250    6.8590  -36.1240 O.2   241  ILE241     -0.2867
     44  CB       -21.4870    8.8670  -38.0710 C.3   241  ILE241      0.0252
     45  CG1      -22.4990    9.7870  -38.7560 C.3   241  ILE241      0.0019
     46  CG2      -20.2190    8.7530  -38.9060 C.3   241  ILE241      0.0019
     47  CD1      -21.9660   11.1780  -39.0390 C.3   241  ILE241      0.0001
     48  N        -17.4430    5.0740  -36.8740 N.3   243  LYS243     -0.1245
     49  CA       -16.0370    5.3210  -37.1690 C.3   243  LYS243      0.1561
     50  C        -15.1760    4.2080  -36.5820 C.2   243  LYS243      0.2260
     51  O        -15.0170    4.1090  -35.3660 O.2   243  LYS243     -0.2867
     52  CB       -15.6010    6.6830  -36.6260 C.3   243  LYS243      0.0271
     53  CG       -16.3900    7.8510  -37.2000 C.3   243  LYS243      0.0035
     54  CD       -15.8330    9.1860  -36.7330 C.3   243  LYS243      0.0206
     55  CE       -14.4410    9.4330  -37.2920 C.3   243  LYS243      0.1093
     56  NZ       -14.4370    9.5000  -38.7800 N.3   243  LYS243     -0.1314
     57  N        -11.1360    5.8830  -35.6430 N.3   246  ASP246     -0.1239
     58  CA       -10.9290    7.2070  -35.0690 C.3   246  ASP246      0.1674
     59  C        -11.1420    7.1930  -33.5600 C.2   246  ASP246      0.2266
     60  O        -12.0320    6.5080  -33.0530 O.2   246  ASP246     -0.2867
     61  CB       -11.8590    8.2290  -35.7250 C.3   246  ASP246      0.1410
     62  CG       -11.5200    9.6580  -35.3400 C.2   246  ASP246      0.3668
     63  OD1      -10.3310    9.9380  -35.0760 O.co2 246  ASP246     -0.2456
     64  OD2      -12.4400   10.5020  -35.3030 O.co2 246  ASP246     -0.2456
     65  N        -12.5450    8.6870  -30.4970 N.3   248  LEU248     -0.1245
     66  CA       -13.5980    9.6250  -30.1270 C.3   248  LEU248      0.1561
     67  C        -13.5580    9.9820  -28.6430 C.2   248  LEU248      0.2260
     68  O        -14.5490   10.4550  -28.0860 O.2   248  LEU248     -0.2867
     69  CB       -14.9690    9.0470  -30.4850 C.3   248  LEU248      0.0270
     70  CG       -15.2030    8.7150  -31.9610 C.3   248  LEU248      0.0019
     71  CD1      -16.5980    8.1420  -32.1740 C.3   248  LEU248      0.0001
     72  CD2      -14.9870    9.9440  -32.8300 C.3   248  LEU248      0.0001
     73  N        -13.5110   13.5990  -28.2600 N.3   251  GLU251     -0.1245
     74  CA       -14.8370   13.9950  -28.7090 C.3   251  GLU251      0.1567
     75  C        -15.8300   13.8950  -27.5570 C.2   251  GLU251      0.2260
     76  O        -16.7520   14.7040  -27.4420 O.2   251  GLU251     -0.2867
     77  CB       -15.2900   13.1240  -29.8820 C.3   251  GLU251      0.0388
     78  CG       -16.3590   13.7590  -30.7510 C.3   251  GLU251      0.1160
     79  CD       -15.8360   14.9480  -31.5340 C.2   251  GLU251      0.3649
     80  OE1      -14.6330   15.2650  -31.4090 O.co2 251  GLU251     -0.2457
     81  OE2      -16.6260   15.5630  -32.2780 O.co2 251  GLU251     -0.2457
     82  N        -23.5190   16.9600  -29.9490 N.3   277  TYR277     -0.1241
     83  CA       -23.9490   15.6740  -30.4890 C.3   277  TYR277      0.1605
     84  C        -23.4060   14.5230  -29.6490 C.2   277  TYR277      0.2264
     85  O        -22.2540   14.5510  -29.2110 O.2   277  TYR277     -0.2867
     86  CB       -23.5070   15.5260  -31.9470 C.3   277  TYR277      0.0534
     87  CG       -22.0770   15.9420  -32.1960 C.ar  277  TYR277     -0.0201
     88  CD1      -21.0420   15.0190  -32.1350 C.ar  277  TYR277     -0.0009
     89  CD2      -21.7620   17.2620  -32.4890 C.ar  277  TYR277     -0.0009
     90  CE1      -19.7330   15.3990  -32.3610 C.ar  277  TYR277      0.0417
     91  CE2      -20.4570   17.6520  -32.7150 C.ar  277  TYR277      0.0417
     92  CZ       -19.4470   16.7170  -32.6510 C.ar  277  TYR277      0.1957
     93  OH       -18.1450   17.1030  -32.8760 O.3   277  TYR277     -0.2866
     94  N        -21.2260    7.8570  -33.6060 N.3   289  ILE289     -0.1245
     95  CA       -21.6950    9.2230  -33.4020 C.3   289  ILE289      0.1561
     96  C        -23.1340    9.3790  -33.8770 C.2   289  ILE289      0.2260
     97  O        -23.5140    8.8400  -34.9150 O.2   289  ILE289     -0.2867
     98  CB       -20.8110   10.2470  -34.1430 C.3   289  ILE289      0.0252
     99  CG1      -19.3810   10.2170  -33.6000 C.3   289  ILE289      0.0019
    100  CG2      -21.3990   11.6440  -34.0210 C.3   289  ILE289      0.0019
    101  CD1      -18.4460   11.1820  -34.2960 C.3   289  ILE289      0.0001
    102  N        -25.4430   11.8800  -35.4660 N.3   291  PRO291     -0.2102
    103  CA       -25.4780   13.1490  -36.1980 C.3   291  PRO291      0.1504
    104  C        -26.8080   13.8700  -36.0210 C.2   291  PRO291      0.2575
    105  O        -27.8630   13.2320  -36.0580 O.2   291  PRO291     -0.2718
    106  CB       -25.2780   12.7160  -37.6510 C.3   291  PRO291      0.0282
    107  CG       -25.8570   11.3410  -37.7010 C.3   291  PRO291      0.0208
    108  CD       -25.5470   10.7190  -36.3670 C.3   291  PRO291      0.0893
    109  N        -26.7530   15.1830  -35.8270 N.am  292  VAL292     -0.1980
    110  CA       -27.9620   15.9820  -35.6780 C.3   292  VAL292      0.1595
    111  C        -28.7310   16.0440  -37.0000 C.2   292  VAL292      0.2287
    112  O        -28.1540   16.3290  -38.0490 O.2   292  VAL292     -0.2864
    113  CB       -27.6350   17.4090  -35.1940 C.3   292  VAL292      0.0276
    114  CG1      -26.6050   18.0620  -36.1060 C.3   292  VAL292      0.0022
    115  CG2      -28.9000   18.2500  -35.1100 C.3   292  VAL292      0.0022
    116  N        -28.9600   18.7610  -41.0620 N.3   295  ALA295     -0.1231
    117  CA       -27.8070   19.6480  -40.9820 C.3   295  ALA295      0.1694
    118  C        -26.6930   19.1770  -41.9110 C.2   295  ALA295      0.2592
    119  O        -26.3780   17.9880  -41.9640 O.2   295  ALA295     -0.2718
    120  CB       -27.3040   19.7370  -39.5500 C.3   295  ALA295      0.0304
    121  N        -26.1050   20.1170  -42.6430 N.am  296  VAL296     -0.1966
    122  CA       -25.0290   19.8100  -43.5760 C.3   296  VAL296      0.1727
    123  C        -23.9430   20.8770  -43.5160 C.2   296  VAL296      0.2616
    124  O        -24.2090   22.0220  -43.1460 O.2   296  VAL296     -0.2715
    125  CB       -25.5480   19.6950  -45.0200 C.3   296  VAL296      0.0290
    126  CG1      -26.5090   18.5230  -45.1460 C.3   296  VAL296      0.0023
    127  CG2      -26.2190   20.9920  -45.4450 C.3   296  VAL296      0.0023
    128  N        -22.7220   20.4960  -43.8810 N.am  297  SER297     -0.1950
    129  CA       -21.5850   21.4090  -43.8270 C.3   297  SER297      0.1924
    130  C        -21.8060   22.6310  -44.7090 C.2   297  SER297      0.2314
    131  O        -22.4740   22.5490  -45.7400 O.2   297  SER297     -0.2863
    132  CB       -20.3010   20.6870  -44.2430 C.3   297  SER297      0.2116
    133  OG       -20.4160   20.1490  -45.5490 O.3   297  SER297     -0.2180
    134  N        -21.3670   23.1410  -39.5070 N.3   357  LEU357     -0.1245
    135  CA       -22.6180   22.7450  -40.1430 C.3   357  LEU357      0.1561
    136  C        -23.6400   23.8780  -40.1470 C.2   357  LEU357      0.2260
    137  O        -23.3270   25.0130  -39.7870 O.2   357  LEU357     -0.2867
    138  CB       -23.2050   21.5170  -39.4430 C.3   357  LEU357      0.0270
    139  CG       -22.5590   20.1580  -39.7270 C.3   357  LEU357      0.0019
    140  CD1      -21.0480   20.2110  -39.5590 C.3   357  LEU357      0.0001
    141  CD2      -23.1570   19.0990  -38.8150 C.3   357  LEU357      0.0001
    142  N        -23.3150   24.7280  -36.2820 N.3   365  ILE365     -0.1245
    143  CA       -22.8750   23.6650  -35.3890 C.3   365  ILE365      0.1561
    144  C        -21.4640   23.1970  -35.7160 C.2   365  ILE365      0.2260
    145  O        -21.2100   22.6620  -36.7950 O.2   365  ILE365     -0.2867
    146  CB       -23.8240   22.4550  -35.4450 C.3   365  ILE365      0.0252
    147  CG1      -25.2610   22.8890  -35.1510 C.3   365  ILE365      0.0019
    148  CG2      -23.3740   21.3810  -34.4630 C.3   365  ILE365      0.0019
    149  CD1      -26.2660   21.7560  -35.2110 C.3   365  ILE365      0.0001
    150  N        -18.1210   20.8360  -35.4400 N.3   367  ILE367     -0.1231
    151  CA       -17.8440   19.4110  -35.2780 C.3   367  ILE367      0.1692
    152  C        -16.3440   19.1350  -35.3430 C.2   367  ILE367      0.2592
    153  O        -15.5520   20.0420  -35.6120 O.2   367  ILE367     -0.2718
    154  CB       -18.5570   18.5630  -36.3530 C.3   367  ILE367      0.0266
    155  CG1      -17.9150   18.7820  -37.7240 C.3   367  ILE367      0.0019
    156  CG2      -20.0430   18.8840  -36.3910 C.3   367  ILE367      0.0020
    157  CD1      -18.5030   17.9210  -38.8230 C.3   367  ILE367      0.0001
    158  N        -15.9640   17.8820  -35.1010 N.am  368  ASP368     -0.1974
    159  CA       -14.5600   17.4760  -35.1200 C.3   368  ASP368      0.1709
    160  C        -13.7440   18.2870  -34.1170 C.2   368  ASP368      0.2293
    161  O        -13.0100   19.2030  -34.4930 O.2   368  ASP368     -0.2864
    162  CB       -13.9760   17.6230  -36.5310 C.3   368  ASP368      0.1436
    163  CG       -12.5220   17.1960  -36.6110 C.2   368  ASP368      0.3671
    164  OD1      -12.2540   15.9810  -36.5120 O.co2 368  ASP368     -0.2456
    165  OD2      -11.6490   18.0740  -36.7850 O.co2 368  ASP368     -0.2456
@<TRIPOS>BOND
     1    31    32    1
     2    35    32    1
     3    35    36    1
     4    34    33    2
     5    32    33    1
     6    37    36    1
     7    37    38    1
     8     7     5    1
     9    38    39    1
    10     5     2    1
    11     5     6    1
    12    11    10    2
    13     2     3    1
    14     2     1    1
    15    10     9    1
    16     3     4    2
    17     8     9    1
    18     9    12    1
    19   131   130    2
    20   133   132    1
    21   127   125    1
    22   126   125    1
    23   125   122    1
    24   130   129    1
    25    12    13    1
    26   132   129    1
    27   128   129    1
    28   128   123   am
    29    19    18    2
    30   122   123    1
    31   122   121    1
    32    13    14    1
    33    13    15    1
    34   123   124    2
    35    26    25    2
    36   121   118   am
    37    22    16    1
    38    22    21    1
    39    18    17    1
    40    16    17    1
    41    23    24    1
    42    30    28    1
    43    27    24    1
    44    27    28    1
    45    25    24    1
    46   119   118    2
    47   118   117    1
    48    21    20    1
    49    17    20    1
    50    28    29    1
    51   116   117    1
    52   117   120    1
    53   136   135    1
    54   136   137    2
    55   135   134    1
    56   135   138    1
    57   139   140    1
    58   139   138    1
    59   139   141    1
    60    47    45    1
    61    46    44    1
    62   157   155    1
    63    56    55    1
    64    45    44    1
    65    44    41    1
    66   112   111    2
    67    41    42    1
    68    41    40    1
    69   155   154    1
    70   107   106    1
    71   107   108    1
    72   106   103    1
    73    55    54    1
    74    42    43    2
    75    53    54    1
    76    53    52    1
    77    49    48    1
    78    49    52    1
    79    49    50    1
    80   111   110    1
    81   145   144    2
    82   165   163   ar
    83   163   162    1
    84   163   164   ar
    85    50    51    2
    86   162   159    1
    87   156   154    1
    88   108   102    1
    89   154   151    1
    90   142   143    1
    91   103   104    1
    92   103   102    1
    93   114   113    1
    94   105   104    2
    95   104   109   am
    96   109   110    1
    97    61    62    1
    98    61    58    1
    99   144   143    1
   100   110   113    1
   101    57    58    1
   102   153   152    2
   103   146   143    1
   104   146   147    1
   105   146   148    1
   106   150   151    1
   107   152   151    1
   108   152   158   am
   109    62    64   ar
   110    62    63   ar
   111   149   147    1
   112   113   115    1
   113   159   158    1
   114   159   160    1
   115    58    59    1
   116    97    96    2
   117   161   160    2
   118   101    99    1
   119    98   100    1
   120    98    99    1
   121    98    95    1
   122    96    95    1
   123    94    95    1
   124    59    60    2
   125    93    92    1
   126    72    70    1
   127    91    92   ar
   128    91    89   ar
   129    92    90   ar
   130    89    87   ar
   131    90    88   ar
   132    81    79   ar
   133    87    88   ar
   134    87    86    1
   135    71    70    1
   136    70    69    1
   137    86    83    1
   138    79    80   ar
   139    79    78    1
   140    78    77    1
   141    65    66    1
   142    83    82    1
   143    83    84    1
   144    69    66    1
   145    66    67    1
   146    77    74    1
   147    84    85    2
   148    74    73    1
   149    74    75    1
   150    67    68    2
   151    75    76    2
