@<TRIPOS>MOLECULE
tmp/5c4iA00.pdb
 100 97 0 0 0
SMALL
GASTEIGER

@<TRIPOS>ATOM
      1  N         22.1970  -10.6260  -19.7060 N.3    27  TYR27      -0.1228
      2  CA        23.6420  -10.8080  -19.6700 C.3    27  TYR27       0.1721
      3  C         23.9180  -11.9820  -18.7390 C.2    27  TYR27       0.2437
      4  O         23.2800  -12.1040  -17.6990 O.2    27  TYR27      -0.2733
      5  CB        24.3680   -9.5460  -19.1960 C.3    27  TYR27       0.0547
      6  CG        25.8590   -9.5950  -19.4350 C.ar   27  TYR27      -0.0200
      7  CD1       26.3850   -9.3220  -20.6900 C.ar   27  TYR27      -0.0009
      8  CD2       26.7390   -9.9290  -18.4140 C.ar   27  TYR27      -0.0009
      9  CE1       27.7430   -9.3720  -20.9240 C.ar   27  TYR27       0.0417
     10  CE2       28.1030   -9.9810  -18.6380 C.ar   27  TYR27       0.0417
     11  CZ        28.5980   -9.7010  -19.8970 C.ar   27  TYR27       0.1957
     12  OH        29.9520   -9.7490  -20.1380 O.3    27  TYR27      -0.2866
     13  N         24.8560  -12.8620  -19.1160 N.am   28  PRO28      -0.2718
     14  CA        25.0450  -14.0870  -18.3320 C.3    28  PRO28       0.1535
     15  C         25.9890  -13.9360  -17.1410 C.2    28  PRO28       0.2598
     16  O         27.0620  -13.3470  -17.2690 O.2    28  PRO28      -0.2715
     17  CB        25.6300  -15.0580  -19.3590 C.3    28  PRO28       0.0310
     18  CG        26.4030  -14.1820  -20.2840 C.3    28  PRO28       0.0237
     19  CD        25.6630  -12.8630  -20.3490 C.3    28  PRO28       0.0939
     20  N         25.5710  -14.4630  -15.9930 N.am   29  ILE29      -0.1964
     21  CA        26.4500  -14.6330  -14.8390 C.3    29  ILE29       0.1727
     22  C         25.8200  -15.5880  -13.8250 C.2    29  ILE29       0.2616
     23  O         24.7080  -15.3650  -13.3420 O.2    29  ILE29      -0.2715
     24  CB        26.7940  -13.2870  -14.1500 C.3    29  ILE29       0.0290
     25  CG1       27.5380  -13.5380  -12.8370 C.3    29  ILE29       0.0022
     26  CG2       25.5440  -12.4440  -13.9190 C.3    29  ILE29       0.0023
     27  CD1       28.2720  -12.3280  -12.3120 C.3    29  ILE29       0.0001
     28  N         26.5330  -16.6710  -13.5350 N.am   30  ARG30      -0.1977
     29  CA        26.1070  -17.6520  -12.5430 C.3    30  ARG30       0.1597
     30  C         25.9330  -16.9760  -11.1810 C.2    30  ARG30       0.2287
     31  O         26.7600  -16.1520  -10.7930 O.2    30  ARG30      -0.2864
     32  CB        27.1350  -18.7890  -12.4730 C.3    30  ARG30       0.0334
     33  CG        26.7680  -19.9640  -11.5820 C.3    30  ARG30       0.0492
     34  CD        27.7310  -21.1330  -11.7600 C.3    30  ARG30       0.2205
     35  NE        27.5910  -21.7610  -13.0710 N.pl3  30  ARG30      -0.0865
     36  CZ        28.3800  -21.5090  -14.1120 C.cat  30  ARG30       0.5346
     37  NH1       28.1730  -22.1260  -15.2670 N.pl3  30  ARG30       0.1354
     38  NH2       29.3770  -20.6410  -13.9970 N.pl3  30  ARG30       0.1354
     39  N         26.3700   -5.7400  -17.4320 N.3    58  GLU58      -0.1245
     40  CA        25.3590   -5.4420  -16.4240 C.3    58  GLU58       0.1567
     41  C         25.0910   -3.9490  -16.3000 C.2    58  GLU58       0.2260
     42  O         23.9500   -3.5340  -16.0880 O.2    58  GLU58      -0.2867
     43  CB        25.7700   -6.0070  -15.0670 C.3    58  GLU58       0.0388
     44  CG        25.6920   -7.5170  -14.9830 C.3    58  GLU58       0.1160
     45  CD        27.0070   -8.1930  -15.3080 C.2    58  GLU58       0.3649
     46  OE1       27.9350   -7.5070  -15.7880 O.co2  58  GLU58      -0.2457
     47  OE2       27.1130   -9.4150  -15.0700 O.co2  58  GLU58      -0.2457
     48  N         29.4730   -9.7340   -8.7670 N.3    82  VAL82      -0.1231
     49  CA        30.1400   -8.5600   -9.3210 C.3    82  VAL82       0.1692
     50  C         29.2880   -7.8750  -10.3840 C.2    82  VAL82       0.2592
     51  O         29.4950   -6.7020  -10.6930 O.2    82  VAL82      -0.2718
     52  CB        31.5070   -8.9210   -9.9330 C.3    82  VAL82       0.0266
     53  CG1       32.5120   -9.2250   -8.8390 C.3    82  VAL82       0.0020
     54  CG2       31.3700  -10.1050  -10.8760 C.3    82  VAL82       0.0020
     55  N         28.3310   -8.6100  -10.9400 N.am   83  GLY83      -0.1957
     56  CA        27.4100   -8.0440  -11.9060 C.3    83  GLY83       0.1869
     57  C         26.5270   -6.9880  -11.2700 C.2    83  GLY83       0.2309
     58  O         26.1550   -6.0050  -11.9080 O.2    83  GLY83      -0.2863
     59  N         28.7730   -3.9520  -10.6620 N.3    86  TYR86      -0.1241
     60  CA        29.1940   -3.3410  -11.9180 C.3    86  TYR86       0.1605
     61  C         28.1660   -2.3280  -12.4130 C.2    86  TYR86       0.2264
     62  O         28.5190   -1.3320  -13.0440 O.2    86  TYR86      -0.2867
     63  CB        29.4410   -4.4090  -12.9860 C.3    86  TYR86       0.0534
     64  CG        29.8400   -3.8410  -14.3300 C.ar   86  TYR86      -0.0201
     65  CD1       30.8590   -2.9030  -14.4340 C.ar   86  TYR86      -0.0009
     66  CD2       29.2060   -4.2500  -15.4950 C.ar   86  TYR86      -0.0009
     67  CE1       31.2280   -2.3810  -15.6590 C.ar   86  TYR86       0.0417
     68  CE2       29.5710   -3.7360  -16.7260 C.ar   86  TYR86       0.0417
     69  CZ        30.5820   -2.8020  -16.8010 C.ar   86  TYR86       0.1957
     70  OH        30.9460   -2.2860  -18.0230 O.3    86  TYR86      -0.2866
     71  N         25.4410  -13.9800   -5.1810 N.3   108  ARG108     -0.1245
     72  CA        26.7370  -14.6250   -5.3530 C.3   108  ARG108      0.1563
     73  C         27.8190  -13.8000   -4.6650 C.2   108  ARG108      0.2260
     74  O         27.7680  -12.5690   -4.6750 O.2   108  ARG108     -0.2867
     75  CB        27.0740  -14.8030   -6.8360 C.3   108  ARG108      0.0307
     76  CG        28.4640  -15.3800   -7.0810 C.3   108  ARG108      0.0489
     77  CD        28.8760  -15.2980   -8.5390 C.3   108  ARG108      0.2205
     78  NE        30.3010  -15.5650   -8.7110 N.pl3 108  ARG108     -0.0865
     79  CZ        30.9160  -15.6280   -9.8890 C.cat 108  ARG108      0.5346
     80  NH1       30.2300  -15.4480  -11.0110 N.pl3 108  ARG108      0.1354
     81  NH2       32.2170  -15.8740   -9.9470 N.pl3 108  ARG108      0.1354
     82  N         33.9220  -10.9630   -5.9050 N.3   111  ASP111     -0.1239
     83  CA        35.3580  -11.1840   -6.0440 C.3   111  ASP111      0.1674
     84  C         36.0910  -10.3880   -4.9650 C.2   111  ASP111      0.2266
     85  O         35.5810   -9.3700   -4.4980 O.2   111  ASP111     -0.2867
     86  CB        35.8380  -10.7730   -7.4400 C.3   111  ASP111      0.1410
     87  CG        35.3500  -11.7110   -8.5270 C.2   111  ASP111      0.3668
     88  OD1       34.9780  -12.8590   -8.2040 O.co2 111  ASP111     -0.2456
     89  OD2       35.3490  -11.3020   -9.7070 O.co2 111  ASP111     -0.2456
     90  N         31.4360  -19.1640   -6.8880 N.3   116  PHE116     -0.1241
     91  CA        30.0670  -19.1970   -7.3850 C.3   116  PHE116      0.1605
     92  C         29.0480  -19.3380   -6.2580 C.2   116  PHE116      0.2264
     93  O         27.8420  -19.2980   -6.4970 O.2   116  PHE116     -0.2867
     94  CB        29.8990  -20.3320   -8.3980 C.3   116  PHE116      0.0534
     95  CG        30.7240  -20.1570   -9.6430 C.ar  116  PHE116     -0.0203
     96  CD1       30.4910  -19.0920  -10.4990 C.ar  116  PHE116     -0.0042
     97  CD2       31.7300  -21.0560   -9.9600 C.ar  116  PHE116     -0.0042
     98  CE1       31.2470  -18.9250  -11.6440 C.ar  116  PHE116     -0.0003
     99  CE2       32.4870  -20.8960  -11.1060 C.ar  116  PHE116     -0.0003
    100  CZ        32.2450  -19.8290  -11.9480 C.ar  116  PHE116     -0.0000
@<TRIPOS>BOND
     1     9     7   ar
     2     9    11   ar
     3     7     6   ar
     4    19    18    1
     5    19    13    1
     6    18    17    1
     7    12    11    1
     8    11    10   ar
     9     1     2    1
    10     2     5    1
    11     2     3    1
    12     6     5    1
    13     6     8   ar
    14    17    14    1
    15    13     3   am
    16    13    14    1
    17     3     4    2
    18    10     8   ar
    19    14    15    1
    20    70    69    1
    21    39    40    1
    22    16    15    2
    23    15    20   am
    24    69    68   ar
    25    69    67   ar
    26    68    66   ar
    27    40    41    1
    28    40    43    1
    29    41    42    2
    30    20    21    1
    31    46    45   ar
    32    67    65   ar
    33    66    64   ar
    34    45    47   ar
    35    45    44    1
    36    37    36    1
    37    43    44    1
    38    21    24    1
    39    21    22    1
    40    65    64   ar
    41    64    63    1
    42    24    26    1
    43    24    25    1
    44    36    38    1
    45    36    35    2
    46    22    28   am
    47    22    23    2
    48    28    29    1
    49    35    34    1
    50    62    61    2
    51    63    60    1
    52    25    27    1
    53    29    32    1
    54    29    30    1
    55    32    33    1
    56    61    60    1
    57   100    98   ar
    58   100    99   ar
    59    60    59    1
    60    58    57    2
    61    56    57    1
    62    56    55    1
    63    34    33    1
    64    98    96   ar
    65    30    31    2
    66    99    97   ar
    67    80    79    1
    68    55    50   am
    69    54    52    1
    70    51    50    2
    71    96    95   ar
    72    50    49    1
    73    97    95   ar
    74    81    79    1
    75    52    49    1
    76    52    53    1
    77    79    78    2
    78    89    87   ar
    79    95    94    1
    80    49    48    1
    81    78    77    1
    82    77    76    1
    83    87    88   ar
    84    87    86    1
    85    94    91    1
    86    86    83    1
    87    91    90    1
    88    91    92    1
    89    76    75    1
    90    75    72    1
    91    93    92    2
    92    83    82    1
    93    83    84    1
    94    72    71    1
    95    72    73    1
    96    84    85    2
    97    74    73    2
