@<TRIPOS>MOLECULE
tmp/5c4iC00.pdb
 141 136 0 0 0
SMALL
GASTEIGER

@<TRIPOS>ATOM
      1  N         41.2760  -11.9870  -17.5040 N.3    49  PRO49      -0.2102
      2  CA        39.8950  -11.5340  -17.3200 C.3    49  PRO49       0.1504
      3  C         38.9920  -12.7340  -17.0890 C.2    49  PRO49       0.2576
      4  O         39.2920  -13.8070  -17.6150 O.2    49  PRO49      -0.2718
      5  CB        39.5670  -10.8380  -18.6450 C.3    49  PRO49       0.0282
      6  CG        40.8930  -10.4580  -19.2130 C.3    49  PRO49       0.0208
      7  CD        41.8340  -11.5470  -18.7940 C.3    49  PRO49       0.0893
      8  N         37.9240  -12.5650  -16.3170 N.am   50  THR50      -0.1939
      9  CA        37.0520  -13.6830  -15.9790 C.3    50  THR50       0.2028
     10  C         36.5250  -14.3700  -17.2370 C.2    50  THR50       0.2643
     11  O         36.1370  -13.7130  -18.2030 O.2    50  THR50      -0.2714
     12  CB        35.8700  -13.2340  -15.1030 C.3    50  THR50       0.1808
     13  OG1       36.3380  -12.3290  -14.0960 O.3    50  THR50      -0.2208
     14  CG2       35.2260  -14.4360  -14.4320 C.3    50  THR50       0.0379
     15  N         36.5380  -15.6980  -17.2140 N.am   51  GLY51      -0.1939
     16  CA        36.1690  -16.5110  -18.3570 C.3    51  GLY51       0.2014
     17  C         36.6820  -17.9220  -18.1480 C.2    51  GLY51       0.2639
     18  O         37.2670  -18.2140  -17.1020 O.2    51  GLY51      -0.2714
     19  N         36.4680  -18.7940  -19.1300 N.am   52  CYS52      -0.1967
     20  CA        36.9010  -20.1870  -19.0240 C.3    52  CYS52       0.1712
     21  C         38.3810  -20.2970  -18.6810 C.2    52  CYS52       0.2296
     22  O         38.7580  -21.0260  -17.7690 O.2    52  CYS52      -0.2864
     23  CB        36.6160  -20.9500  -20.3200 C.3    52  CYS52       0.0983
     24  SG        35.0170  -21.7850  -20.3680 S.3    52  CYS52      -0.0798
     25  N         38.4530  -19.5190  -14.8500 N.3    55  VAL55      -0.1245
     26  CA        37.7610  -20.4370  -13.9500 C.3    55  VAL55       0.1561
     27  C         38.1820  -21.8890  -14.1670 C.2    55  VAL55       0.2260
     28  O         38.4940  -22.6000  -13.2100 O.2    55  VAL55      -0.2867
     29  CB        36.2300  -20.3330  -14.1090 C.3    55  VAL55       0.0252
     30  CG1       35.5340  -21.3570  -13.2280 C.3    55  VAL55       0.0019
     31  CG2       35.7520  -18.9260  -13.7740 C.3    55  VAL55       0.0019
     32  N         38.9810   -8.5110  -13.6740 N.3    73  GLN73      -0.1231
     33  CA        37.5630   -8.5180  -13.9890 C.3    73  GLN73       0.1698
     34  C         37.4220   -8.6400  -15.5010 C.2    73  GLN73       0.2592
     35  O         38.3290   -8.2660  -16.2440 O.2    73  GLN73      -0.2718
     36  CB        36.8750   -7.2540  -13.4680 C.3    73  GLN73       0.0381
     37  CG        37.2010   -6.9360  -12.0170 C.3    73  GLN73       0.0905
     38  CD        36.9760   -8.1240  -11.0970 C.2    73  GLN73       0.2608
     39  OE1       37.8990   -8.5880  -10.4260 O.2    73  GLN73      -0.2717
     40  NE2       35.7430   -8.6190  -11.0590 N.am   73  GLN73      -0.0878
     41  N         36.2970   -9.1750  -15.9590 N.am   74  ILE74      -0.1966
     42  CA        36.0650   -9.3230  -17.3900 C.3    74  ILE74       0.1727
     43  C         35.9570   -7.9470  -18.0450 C.2    74  ILE74       0.2616
     44  O         36.1370   -7.7970  -19.2540 O.2    74  ILE74      -0.2715
     45  CB        34.7890  -10.1480  -17.6740 C.3    74  ILE74       0.0290
     46  CG1       34.7370  -10.5860  -19.1420 C.3    74  ILE74       0.0022
     47  CG2       33.5400   -9.3720  -17.2750 C.3    74  ILE74       0.0023
     48  CD1       33.4820  -11.3550  -19.5090 C.3    74  ILE74       0.0001
     49  N         35.6910   -6.9410  -17.2190 N.am   75  THR75      -0.1951
     50  CA        35.4720   -5.5780  -17.6770 C.3    75  THR75       0.1897
     51  C         36.7580   -4.7770  -17.8660 C.2    75  THR75       0.2313
     52  O         36.7590   -3.7650  -18.5660 O.2    75  THR75      -0.2863
     53  CB        34.5770   -4.8100  -16.6860 C.3    75  THR75       0.1794
     54  OG1       35.0440   -5.0440  -15.3520 O.3    75  THR75      -0.2208
     55  CG2       33.1400   -5.2800  -16.7850 C.3    75  THR75       0.0378
     56  N         38.7930  -13.6190  -23.2040 N.3   109  GLY109     -0.1210
     57  CA        37.8510  -14.2790  -24.0890 C.3   109  GLY109      0.1956
     58  C         37.2310  -13.2560  -25.0210 C.2   109  GLY109      0.2612
     59  O         37.5920  -12.0810  -24.9770 O.2   109  GLY109     -0.2717
     60  N         36.2990  -13.6900  -25.8640 N.am  110  ASP110     -0.1959
     61  CA        35.6490  -12.7770  -26.7990 C.3   110  ASP110      0.1840
     62  C         34.7840  -11.7480  -26.0700 C.2   110  ASP110      0.2623
     63  O         34.7310  -10.5840  -26.4630 O.2   110  ASP110     -0.2715
     64  CB        34.8100  -13.5550  -27.8170 C.3   110  ASP110      0.1450
     65  CG        34.1840  -14.8010  -27.2280 C.2   110  ASP110      0.3671
     66  OD1       34.9000  -15.5570  -26.5380 O.co2 110  ASP110     -0.2456
     67  OD2       32.9770  -15.0240  -27.4540 O.co2 110  ASP110     -0.2456
     68  N         34.1120  -12.1750  -25.0060 N.am  111  GLY111     -0.1940
     69  CA        33.3120  -11.2640  -24.2080 C.3   111  GLY111      0.2014
     70  C         34.1650  -10.2000  -23.5420 C.2   111  GLY111      0.2639
     71  O         33.7990   -9.0240  -23.5070 O.2   111  GLY111     -0.2714
     72  N         35.3170  -10.6130  -23.0260 N.am  112  GLY112     -0.1954
     73  CA        36.2090   -9.7060  -22.3260 C.3   112  GLY112      0.1869
     74  C         37.1430   -8.9310  -23.2370 C.2   112  GLY112      0.2309
     75  O         38.0630   -8.2630  -22.7660 O.2   112  GLY112     -0.2863
     76  N         32.2790   -6.6700  -23.3370 N.3   116  ILE116     -0.1245
     77  CA        32.2800   -5.9810  -22.0540 C.3   116  ILE116      0.1561
     78  C         33.6890   -5.5160  -21.6780 C.2   116  ILE116      0.2260
     79  O         33.8880   -4.8590  -20.6560 O.2   116  ILE116     -0.2867
     80  CB        31.7120   -6.8940  -20.9420 C.3   116  ILE116      0.0252
     81  CG1       31.2080   -6.0730  -19.7500 C.3   116  ILE116      0.0019
     82  CG2       32.7380   -7.9310  -20.5270 C.3   116  ILE116      0.0019
     83  CD1       30.5740   -6.9100  -18.6560 C.3   116  ILE116      0.0001
     84  N         41.2580  -14.9600  -27.1040 N.3   136  TYR136     -0.1241
     85  CA        40.9440  -16.3170  -27.5240 C.3   136  TYR136      0.1605
     86  C         39.4450  -16.3820  -27.7970 C.2   136  TYR136      0.2264
     87  O         38.6230  -16.1220  -26.9180 O.2   136  TYR136     -0.2867
     88  CB        41.3900  -17.3550  -26.4810 C.3   136  TYR136      0.0534
     89  CG        40.6420  -17.3510  -25.1640 C.ar  136  TYR136     -0.0201
     90  CD1       39.5510  -18.1860  -24.9610 C.ar  136  TYR136     -0.0009
     91  CD2       41.0490  -16.5410  -24.1120 C.ar  136  TYR136     -0.0009
     92  CE1       38.8720  -18.1970  -23.7630 C.ar  136  TYR136      0.0417
     93  CE2       40.3740  -16.5460  -22.9040 C.ar  136  TYR136      0.0417
     94  CZ        39.2830  -17.3770  -22.7380 C.ar  136  TYR136      0.1957
     95  OH        38.6010  -17.3960  -21.5440 O.3   136  TYR136     -0.2866
     96  N         36.2450  -18.3380  -28.6050 N.3   138  ASN138     -0.1240
     97  CA        35.4630  -19.5690  -28.6680 C.3   138  ASN138      0.1653
     98  C         34.0250  -19.2740  -29.0820 C.2   138  ASN138      0.2266
     99  O         33.1540  -20.1430  -29.0170 O.2   138  ASN138     -0.2867
    100  CB        35.4970  -20.3110  -27.3290 C.3   138  ASN138      0.1155
    101  CG        35.0220  -19.4590  -26.1680 C.2   138  ASN138      0.2627
    102  OD1       34.4490  -18.3860  -26.3550 O.2   138  ASN138     -0.2716
    103  ND2       35.2590  -19.9400  -24.9540 N.am  138  ASN138     -0.0877
    104  N         31.4980  -17.5120  -27.8870 N.3   140  SER140     -0.1202
    105  CA        30.3940  -17.4670  -26.9260 C.3   140  SER140      0.2020
    106  C         30.8780  -17.0680  -25.5360 C.2   140  SER140      0.2619
    107  O         32.0810  -16.9870  -25.2840 O.2   140  SER140     -0.2717
    108  CB        29.6800  -18.8200  -26.8340 C.3   140  SER140      0.2103
    109  OG        30.3820  -19.7090  -25.9820 O.3   140  SER140     -0.2182
    110  N         29.9290  -16.8100  -24.6400 N.am  141  TYR141     -0.1961
    111  CA        30.2220  -16.7490  -23.2130 C.3   141  TYR141      0.1771
    112  C         30.2040  -18.1750  -22.6730 C.2   141  TYR141      0.2619
    113  O         29.1720  -18.6590  -22.2080 O.2   141  TYR141     -0.2715
    114  CB        29.2090  -15.8760  -22.4690 C.3   141  TYR141      0.0574
    115  CG        29.4350  -14.3860  -22.6080 C.ar  141  TYR141     -0.0198
    116  CD1       30.4020  -13.7370  -21.8520 C.ar  141  TYR141     -0.0009
    117  CD2       28.6690  -13.6250  -23.4820 C.ar  141  TYR141     -0.0009
    118  CE1       30.6110  -12.3760  -21.9690 C.ar  141  TYR141      0.0417
    119  CE2       28.8690  -12.2600  -23.6060 C.ar  141  TYR141      0.0417
    120  CZ        29.8420  -11.6410  -22.8460 C.ar  141  TYR141      0.1957
    121  OH        30.0510  -10.2850  -22.9580 O.3   141  TYR141     -0.2866
    122  N         31.3510  -18.8440  -22.7390 N.am  142  ALA142     -0.1963
    123  CA        31.4150  -20.2850  -22.5110 C.3   142  ALA142      0.1728
    124  C         31.2280  -20.6990  -21.0530 C.2   142  ALA142      0.2616
    125  O         30.3890  -21.5480  -20.7490 O.2   142  ALA142     -0.2715
    126  CB        32.7330  -20.8300  -23.0340 C.3   142  ALA142      0.0334
    127  N         32.0090  -20.1050  -20.1560 N.am  143  ASN143     -0.1958
    128  CA        32.0320  -20.5340  -18.7590 C.3   143  ASN143      0.1819
    129  C         30.6890  -20.3650  -18.0490 C.2   143  ASN143      0.2621
    130  O         30.4290  -21.0150  -17.0360 O.2   143  ASN143     -0.2715
    131  CB        33.1190  -19.7770  -17.9940 C.3   143  ASN143      0.1195
    132  CG        33.4760  -20.4420  -16.6790 C.2   143  ASN143      0.2630
    133  OD1       34.2800  -21.3740  -16.6390 O.2   143  ASN143     -0.2716
    134  ND2       32.8780  -19.9650  -15.5930 N.am  143  ASN143     -0.0877
    135  N         29.8380  -19.4980  -18.5870 N.am  144  THR144     -0.1951
    136  CA        28.5210  -19.2610  -18.0070 C.3   144  THR144      0.1897
    137  C         27.4730  -20.2220  -18.5660 C.2   144  THR144      0.2313
    138  O         26.2950  -20.1360  -18.2190 O.2   144  THR144     -0.2863
    139  CB        28.0570  -17.8140  -18.2460 C.3   144  THR144      0.1794
    140  OG1       28.3270  -17.4450  -19.6050 O.3   144  THR144     -0.2208
    141  CG2       28.7860  -16.8610  -17.3160 C.3   144  THR144      0.0378
@<TRIPOS>BOND
     1    98    99    2
     2    98    97    1
     3    97    96    1
     4    97   100    1
     5   104   105    1
     6    64    65    1
     7    64    61    1
     8    86    85    1
     9    86    87    2
    10    85    84    1
    11    85    88    1
    12    67    65   ar
    13   100   101    1
    14    65    66   ar
    15   105   108    1
    16   105   106    1
    17   108   109    1
    18    61    62    1
    19    61    60    1
    20    88    89    1
    21    63    62    2
    22   102   101    2
    23   101   103   am
    24    62    68   am
    25    60    58   am
    26   106   107    2
    27   106   110   am
    28    89    90   ar
    29    89    91   ar
    30    58    59    2
    31    58    57    1
    32    68    69    1
    33    90    92   ar
    34   110   111    1
    35    69    70    1
    36    91    93   ar
    37    57    56    1
    38    92    94   ar
    39   119   117   ar
    40   119   120   ar
    41    70    71    2
    42    70    72   am
    43   117   115   ar
    44    76    77    1
    45    74    75    2
    46    74    73    1
    47   111   112    1
    48   111   114    1
    49   126   123    1
    50    72    73    1
    51   121   120    1
    52    93    94   ar
    53   120   118   ar
    54   122   112   am
    55   122   123    1
    56    94    95    1
    57   112   113    2
    58   115   114    1
    59   115   116   ar
    60   123   124    1
    61    77    78    1
    62    77    80    1
    63   118   116   ar
    64    78    79    2
    65   124   125    2
    66   124   127   am
    67    80    82    1
    68    80    81    1
    69    24    23    1
    70    23    20    1
    71   127   128    1
    72    81    83    1
    73   140   139    1
    74    48    46    1
    75    44    43    2
    76     6     7    1
    77     6     5    1
    78    46    45    1
    79    19    20    1
    80    19    17   am
    81    20    21    1
    82     7     1    1
    83   128   129    1
    84   128   131    1
    85    21    22    2
    86     5     2    1
    87   135   129   am
    88   135   136    1
    89   137   138    2
    90   137   136    1
    91    52    51    2
    92    16    17    1
    93    16    15    1
    94   139   136    1
    95   139   141    1
    96    11    10    2
    97    17    18    2
    98   129   130    2
    99    43    42    1
   100    43    49   am
   101   131   132    1
   102    51    50    1
   103    50    49    1
   104    50    53    1
   105    45    42    1
   106    45    47    1
   107     4     3    2
   108     1     2    1
   109    42    41    1
   110     2     3    1
   111    10    15   am
   112    10     9    1
   113     3     8   am
   114    55    53    1
   115    53    54    1
   116   132   133    2
   117   132   134   am
   118     8     9    1
   119    35    34    2
   120     9    12    1
   121    41    34   am
   122    34    33    1
   123    12    14    1
   124    12    13    1
   125    25    26    1
   126    27    26    1
   127    27    28    2
   128    29    26    1
   129    29    31    1
   130    29    30    1
   131    33    32    1
   132    33    36    1
   133    36    37    1
   134    37    38    1
   135    38    40   am
   136    38    39    2
