@<TRIPOS>MOLECULE
tmp/5c4kA00.pdb
 193 185 0 0 0
SMALL
GASTEIGER

@<TRIPOS>ATOM
      1  N         -6.9060    7.2320   38.8300 N.3    31  ASN31      -0.1225
      2  CA        -7.9340    6.7450   37.9080 C.3    31  ASN31       0.1785
      3  C         -8.7270    5.5990   38.4960 C.2    31  ASN31       0.2597
      4  O         -9.7940    5.3250   38.0080 O.2    31  ASN31      -0.2718
      5  CB        -7.3160    6.2320   36.6000 C.3    31  ASN31       0.1169
      6  CG        -7.0270    7.3290   35.5920 C.2    31  ASN31       0.2627
      7  OD1       -7.8460    8.2230   35.3560 O.2    31  ASN31      -0.2716
      8  ND2       -5.8570    7.2420   34.9570 N.am   31  ASN31      -0.0877
      9  N         -8.1820    4.9120   39.5060 N.am   32  ASP32      -0.1974
     10  CA        -8.8320    3.7330   40.1180 C.3    32  ASP32       0.1709
     11  C         -9.2030    3.8930   41.5830 C.2    32  ASP32       0.2293
     12  O        -10.1640    3.3010   42.0420 O.2    32  ASP32      -0.2864
     13  CB        -7.9130    2.5130   40.0310 C.3    32  ASP32       0.1436
     14  CG        -7.5390    2.1530   38.6160 C.2    32  ASP32       0.3671
     15  OD1       -8.3910    2.2400   37.7280 O.co2  32  ASP32      -0.2456
     16  OD2       -6.3850    1.7690   38.3830 O.co2  32  ASP32      -0.2456
     17  N         -7.7950   -4.1730   41.1580 N.3    55  ASN55      -0.1240
     18  CA        -6.3700   -3.8400   41.2570 C.3    55  ASN55       0.1653
     19  C         -5.9250   -3.7740   42.6840 C.2    55  ASN55       0.2266
     20  O         -4.8690   -4.2710   43.0610 O.2    55  ASN55      -0.2867
     21  CB        -6.0580   -2.5240   40.5840 C.3    55  ASN55       0.1155
     22  CG        -6.1550   -2.6090   39.0850 C.2    55  ASN55       0.2627
     23  OD1       -6.1370   -3.6890   38.4980 O.2    55  ASN55      -0.2716
     24  ND2       -6.2590   -1.4560   38.4480 N.am   55  ASN55      -0.0877
     25  N          3.6960   -0.0530   36.2200 N.3   196  ASP196     -0.1239
     26  CA         3.4210    1.3600   36.1090 C.3   196  ASP196      0.1674
     27  C          4.6110    2.1270   36.6930 C.2   196  ASP196      0.2266
     28  O          4.4920    2.9290   37.6240 O.2   196  ASP196     -0.2867
     29  CB         2.1570    1.7090   36.8400 C.3   196  ASP196      0.1410
     30  CG         1.6940    3.1040   36.5290 C.2   196  ASP196      0.3668
     31  OD1        0.5970    3.4650   37.0190 O.co2 196  ASP196     -0.2456
     32  OD2        2.4160    3.8410   35.8100 O.co2 196  ASP196     -0.2456
     33  N          6.6780    4.6630   36.8940 N.3   198  SER198     -0.1217
     34  CA         6.9690    6.0190   36.5330 C.3   198  SER198      0.1889
     35  C          7.4820    6.8130   37.7320 C.2   198  SER198      0.2288
     36  O          7.4700    6.3370   38.8720 O.2   198  SER198     -0.2866
     37  CB         5.7330    6.6680   35.9460 C.3   198  SER198      0.2089
     38  OG         4.7600    6.8620   36.9370 O.3   198  SER198     -0.2183
     39  N          6.2180    9.1720   39.2960 N.3   200  ASP200     -0.1225
     40  CA         5.2550    9.5390   40.2850 C.3   200  ASP200      0.1805
     41  C          5.2510    8.5190   41.4150 C.2   200  ASP200      0.2597
     42  O          4.6920    8.7830   42.4740 O.2   200  ASP200     -0.2718
     43  CB         3.8780    9.6590   39.6370 C.3   200  ASP200      0.1424
     44  CG         3.2240   10.9830   39.9380 C.2   200  ASP200      0.3668
     45  OD1        3.9110   11.9130   40.4150 O.co2 200  ASP200     -0.2456
     46  OD2        2.0130   11.1120   39.6930 O.co2 200  ASP200     -0.2456
     47  N          5.8500    7.3550   41.1750 N.am  201  HIS201     -0.1975
     48  CA         5.8150    6.2650   42.1280 C.3   201  HIS201      0.1656
     49  C          7.1680    5.9630   42.6740 C.2   201  HIS201      0.2291
     50  O          7.4000    4.8910   43.2900 O.2   201  HIS201     -0.2864
     51  CB         5.2790    4.9950   41.4550 C.3   201  HIS201      0.0771
     52  CG         3.9430    5.1790   40.8260 C.ar  201  HIS201      0.0820
     53  ND1        3.5370    4.4650   39.7270 N.ar  201  HIS201     -0.2267
     54  CD2        2.9420    6.0360   41.1090 C.ar  201  HIS201      0.1154
     55  CE1        2.3440    4.8880   39.3520 C.ar  201  HIS201      0.1986
     56  NE2        1.9590    5.8370   40.1770 N.ar  201  HIS201     -0.2212
     57  N         -0.9740   -2.2470   39.5490 N.3   219  ASP219     -0.1239
     58  CA        -0.9480   -2.7770   38.1720 C.3   219  ASP219      0.1674
     59  C          0.0280   -3.9010   37.9850 C.2   219  ASP219      0.2266
     60  O          0.1040   -4.4750   36.9120 O.2   219  ASP219     -0.2867
     61  CB        -0.6240   -1.6710   37.1870 C.3   219  ASP219      0.1410
     62  CG        -1.7680   -0.7010   37.0140 C.2   219  ASP219      0.3668
     63  OD1       -2.9440   -1.0640   37.2220 O.co2 219  ASP219     -0.2456
     64  OD2       -1.5110    0.4590   36.6650 O.co2 219  ASP219     -0.2456
     65  N          8.3740    2.6180   30.5780 N.3   231  SER231     -0.1217
     66  CA         7.5160    3.5880   31.2580 C.3   231  SER231      0.1889
     67  C          8.2530    4.8270   31.7400 C.2   231  SER231      0.2288
     68  O          7.6420    5.8920   31.9230 O.2   231  SER231     -0.2866
     69  CB         6.8000    2.9310   32.4290 C.3   231  SER231      0.2089
     70  OG         7.6460    2.1070   33.2510 O.3   231  SER231     -0.2183
     71  N          9.5550    8.1430   28.2270 N.3   234  GLU234     -0.1245
     72  CA         8.9480    9.2740   27.4980 C.3   234  GLU234      0.1567
     73  C          9.4860   10.6120   27.9940 C.2   234  GLU234      0.2260
     74  O          9.5250   10.8760   29.1770 O.2   234  GLU234     -0.2867
     75  CB         7.4100    9.2590   27.4790 C.3   234  GLU234      0.0388
     76  CG         6.7330    8.7500   28.7440 C.3   234  GLU234      0.1160
     77  CD         5.3190    9.2840   28.8650 C.2   234  GLU234      0.3649
     78  OE1        5.0410   10.4290   28.3890 O.co2 234  GLU234     -0.2457
     79  OE2        4.4970    8.5460   29.4520 O.co2 234  GLU234     -0.2457
     80  N          8.9690   14.0480   27.5920 N.3   236  ASP236     -0.1225
     81  CA         8.3340   15.1800   28.2430 C.3   236  ASP236      0.1805
     82  C          7.9400   14.8220   29.6840 C.2   236  ASP236      0.2598
     83  O          8.4230   15.4440   30.6180 O.2   236  ASP236     -0.2718
     84  CB         7.1870   15.7840   27.4040 C.3   236  ASP236      0.1424
     85  CG         6.1280   14.7740   27.0170 C.2   236  ASP236      0.3668
     86  OD1        6.3170   13.5420   27.2660 O.co2 236  ASP236     -0.2456
     87  OD2        5.1020   15.2410   26.4580 O.co2 236  ASP236     -0.2456
     88  N          7.1150   13.8070   29.8830 N.am  237  GLU237     -0.1965
     89  CA         6.5490   13.5910   31.2090 C.3   237  GLU237      0.1733
     90  C          7.4290   12.7770   32.1640 C.2   237  GLU237      0.2616
     91  O          7.3090   12.9130   33.3790 O.2   237  GLU237     -0.2715
     92  CB         5.1360   12.9790   31.1160 C.3   237  GLU237      0.0429
     93  CG         4.0370   14.0060   30.7950 C.3   237  GLU237      0.1163
     94  CD         2.6540   13.6730   31.4210 C.2   237  GLU237      0.3649
     95  OE1        2.3800   12.4860   31.8020 O.co2 237  GLU237     -0.2457
     96  OE2        1.8350   14.6280   31.5440 O.co2 237  GLU237     -0.2457
     97  N          8.2930   11.9240   31.6400 N.am  238  GLU238     -0.1977
     98  CA         9.1060   11.0770   32.4960 C.3   238  GLU238      0.1602
     99  C         10.5790   11.3680   32.2490 C.2   238  GLU238      0.2287
    100  O         10.9050   12.3810   31.6240 O.2   238  GLU238     -0.2864
    101  CB         8.7670    9.6190   32.2350 C.3   238  GLU238      0.0415
    102  CG         7.3180    9.2670   32.5500 C.3   238  GLU238      0.1163
    103  CD         6.9580    9.4440   34.0180 C.2   238  GLU238      0.3649
    104  OE1        7.7900    9.1210   34.9010 O.co2 238  GLU238     -0.2457
    105  OE2        5.8230    9.8950   34.2880 O.co2 238  GLU238     -0.2457
    106  N          4.8370    0.7460   21.7680 N.3   266  LYS266     -0.1231
    107  CA         3.9150    1.1060   22.8430 C.3   266  LYS266      0.1693
    108  C          3.4200    2.5320   22.7770 C.2   266  LYS266      0.2591
    109  O          2.3320    2.8490   23.2350 O.2   266  LYS266     -0.2718
    110  CB         4.5740    0.8780   24.1870 C.3   266  LYS266      0.0285
    111  CG         4.7040   -0.5970   24.5140 C.3   266  LYS266      0.0035
    112  CD         3.3530   -1.2410   24.8290 C.3   266  LYS266      0.0206
    113  CE         3.5110   -2.7240   25.1670 C.3   266  LYS266      0.1093
    114  NZ         4.1280   -2.9900   26.5000 N.3   266  LYS266     -0.1314
    115  N          4.2640    3.3870   22.2220 N.am  267  GLU267     -0.1979
    116  CA         3.9990    4.8000   22.1260 C.3   267  GLU267      0.1602
    117  C          2.9220    5.0240   21.1090 C.2   267  GLU267      0.2287
    118  O          1.9670    5.7310   21.3840 O.2   267  GLU267     -0.2864
    119  CB         5.2680    5.4960   21.7180 C.3   267  GLU267      0.0415
    120  CG         5.2050    7.0080   21.7140 C.3   267  GLU267      0.1163
    121  CD         6.3560    7.5870   20.9070 C.2   267  GLU267      0.3649
    122  OE1        6.7050    7.0150   19.8400 O.co2 267  GLU267     -0.2457
    123  OE2        6.9420    8.5930   21.3580 O.co2 267  GLU267     -0.2457
    124  N         -0.3820    3.5390   22.3380 N.3   270  TRP270     -0.1241
    125  CA        -1.0960    4.2340   23.4210 C.3   270  TRP270      0.1605
    126  C         -2.3280    4.9660   22.8770 C.2   270  TRP270      0.2264
    127  O         -3.3260    5.1500   23.5780 O.2   270  TRP270     -0.2867
    128  CB        -0.1410    5.1670   24.1900 C.3   270  TRP270      0.0550
    129  CG        -0.8480    6.1770   25.0130 C.ar  270  TRP270      0.0003
    130  CD1       -0.9270    7.5330   24.7830 C.ar  270  TRP270      0.0946
    131  CD2       -1.6040    5.9280   26.1900 C.ar  270  TRP270      0.0152
    132  NE1       -1.6870    8.1390   25.7510 N.ar  270  TRP270     -0.2442
    133  CE2       -2.1150    7.1820   26.6320 C.ar  270  TRP270      0.0810
    134  CE3       -1.8870    4.7750   26.9330 C.ar  270  TRP270      0.0012
    135  CZ2       -2.8910    7.3110   27.7890 C.ar  270  TRP270      0.0191
    136  CZ3       -2.6630    4.9010   28.0790 C.ar  270  TRP270      0.0001
    137  CH2       -3.1560    6.1650   28.5010 C.ar  270  TRP270      0.0015
    138  N         -5.1320    2.6720   23.2570 N.3   273  GLU273     -0.1231
    139  CA        -5.4900    2.5600   24.6620 C.3   273  GLU273      0.1699
    140  C         -6.3250    3.7360   25.1700 C.2   273  GLU273      0.2592
    141  O         -7.2130    3.5400   25.9710 O.2   273  GLU273     -0.2718
    142  CB        -4.2490    2.2690   25.5270 C.3   273  GLU273      0.0402
    143  CG        -4.1580    0.7900   25.8970 C.3   273  GLU273      0.1161
    144  CD        -2.8040    0.3660   26.4460 C.2   273  GLU273      0.3649
    145  OE1       -2.7720   -0.4600   27.4200 O.co2 273  GLU273     -0.2457
    146  OE2       -1.7700    0.8510   25.9010 O.co2 273  GLU273     -0.2457
    147  N         -6.0460    4.9520   24.7200 N.am  274  LYS274     -0.1980
    148  CA        -6.8810    6.1120   25.0830 C.3   274  LYS274      0.1596
    149  C         -8.3260    5.8770   24.7460 C.2   274  LYS274      0.2287
    150  O         -9.1920    6.2920   25.4710 O.2   274  LYS274     -0.2864
    151  CB        -6.4790    7.3810   24.3450 C.3   274  LYS274      0.0298
    152  CG        -5.1720    8.0060   24.7520 C.3   274  LYS274      0.0038
    153  CD        -4.8810    9.0940   23.7500 C.3   274  LYS274      0.0206
    154  CE        -3.6820    9.9320   24.1360 C.3   274  LYS274      0.1093
    155  NZ        -3.7900   11.2590   23.4670 N.3   274  LYS274     -0.1314
    156  N         -9.6960    3.0090   27.2180 N.3   277  TYR277     -0.1241
    157  CA        -9.7430    3.4920   28.5770 C.3   277  TYR277      0.1605
    158  C        -10.7070    4.6550   28.6520 C.2   277  TYR277      0.2264
    159  O        -11.4860    4.7750   29.5990 O.2   277  TYR277     -0.2867
    160  CB        -8.3420    3.8840   29.0650 C.3   277  TYR277      0.0534
    161  CG        -7.4390    2.7090   29.4090 C.ar  277  TYR277     -0.0201
    162  CD1       -7.8360    1.7480   30.3230 C.ar  277  TYR277     -0.0009
    163  CD2       -6.1830    2.5800   28.8490 C.ar  277  TYR277     -0.0009
    164  CE1       -7.0250    0.6820   30.6450 C.ar  277  TYR277      0.0417
    165  CE2       -5.3590    1.5230   29.1800 C.ar  277  TYR277      0.0417
    166  CZ        -5.7870    0.5750   30.0770 C.ar  277  TYR277      0.1957
    167  OH        -4.9550   -0.4680   30.4140 O.3   277  TYR277     -0.2866
    168  N        -13.6190    4.5220   31.3040 N.3   281  TYR281     -0.1241
    169  CA       -13.3930    5.4700   32.4590 C.3   281  TYR281      0.1605
    170  C        -14.3960    6.6350   32.7640 C.2   281  TYR281      0.2264
    171  O        -14.2280    7.2820   33.7890 O.2   281  TYR281     -0.2867
    172  CB       -11.9370    6.0220   32.5140 C.3   281  TYR281      0.0534
    173  CG       -10.8970    5.1260   33.1350 C.ar  281  TYR281     -0.0201
    174  CD1      -11.1480    4.4110   34.2990 C.ar  281  TYR281     -0.0009
    175  CD2       -9.6410    5.0430   32.5880 C.ar  281  TYR281     -0.0009
    176  CE1      -10.1880    3.5960   34.8690 C.ar  281  TYR281      0.0417
    177  CE2       -8.6670    4.2290   33.1440 C.ar  281  TYR281      0.0417
    178  CZ        -8.9390    3.5050   34.2910 C.ar  281  TYR281      0.1957
    179  OH        -7.9440    2.6930   34.8210 O.3   281  TYR281     -0.2866
    180  N        -10.2170   11.8280   26.1900 N.3   286  TRP286     -0.1241
    181  CA        -9.3190   10.7290   25.8060 C.3   286  TRP286      0.1605
    182  C         -9.7980   10.0790   24.5020 C.2   286  TRP286      0.2264
    183  O         -9.0170    9.8470   23.5760 O.2   286  TRP286     -0.2867
    184  CB        -9.2250    9.6820   26.9270 C.3   286  TRP286      0.0550
    185  CG        -8.1370    9.9650   27.9780 C.ar  286  TRP286      0.0003
    186  CD1       -7.6110   11.1780   28.3130 C.ar  286  TRP286      0.0946
    187  CD2       -7.4800    9.0020   28.8160 C.ar  286  TRP286      0.0152
    188  NE1       -6.6590   11.0310   29.2970 N.ar  286  TRP286     -0.2442
    189  CE2       -6.5600    9.7040   29.6240 C.ar  286  TRP286      0.0810
    190  CE3       -7.5720    7.6140   28.9530 C.ar  286  TRP286      0.0012
    191  CZ2       -5.7410    9.0620   30.5540 C.ar  286  TRP286      0.0191
    192  CZ3       -6.7540    6.9830   29.8790 C.ar  286  TRP286      0.0001
    193  CH2       -5.8560    7.7060   30.6650 C.ar  286  TRP286      0.0015
@<TRIPOS>BOND
     1   122   121   ar
     2   121   123   ar
     3   121   120    1
     4   117   118    2
     5   117   116    1
     6   120   119    1
     7   119   116    1
     8   106   107    1
     9   116   115    1
    10   115   108   am
    11   124   125    1
    12   108   107    1
    13   108   109    2
    14   107   110    1
    15   126   125    1
    16   126   127    2
    17   138   139    1
    18   125   128    1
    19   155   154    1
    20   183   182    2
    21   153   154    1
    22   153   152    1
    23   110   111    1
    24   128   129    1
    25   151   152    1
    26   151   148    1
    27   182   181    1
    28   111   112    1
    29   139   140    1
    30   139   142    1
    31   147   148    1
    32   147   140   am
    33   149   148    1
    34   149   150    2
    35   130   129   ar
    36   130   132   ar
    37   112   113    1
    38   129   131   ar
    39   113   114    1
    40   140   141    2
    41   142   143    1
    42   132   133   ar
    43   181   180    1
    44   181   184    1
    45   143   144    1
    46   146   144   ar
    47   131   133   ar
    48   131   134   ar
    49   144   145   ar
    50    87    85   ar
    51   133   135   ar
    52   184   185    1
    53   134   136   ar
    54    85    86   ar
    55    85    84    1
    56   156   157    1
    57    84    81    1
    58    75    72    1
    59    75    76    1
    60    72    73    1
    61    72    71    1
    62    80    81    1
    63   135   137   ar
    64   185   186   ar
    65   185   187   ar
    66    73    74    2
    67   136   137   ar
    68    81    82    1
    69   186   188   ar
    70    78    77   ar
    71   157   158    1
    72   157   160    1
    73   158   159    2
    74    76    77    1
    75   187   190   ar
    76   187   189   ar
    77   163   165   ar
    78   163   161   ar
    79    77    79   ar
    80   190   192   ar
    81   160   161    1
    82   165   166   ar
    83   188   189   ar
    84   161   162   ar
    85   189   191   ar
    86    82    88   am
    87    82    83    2
    88   192   193   ar
    89    88    89    1
    90   166   167    1
    91   166   164   ar
    92   162   164   ar
    93   191   193   ar
    94    65    66    1
    95    93    92    1
    96    93    94    1
    97    92    89    1
    98    89    90    1
    99    66    67    1
   100    66    69    1
   101   168   169    1
   102    94    96   ar
   103    94    95   ar
   104   100    99    2
   105    97    90   am
   106    97    98    1
   107    67    68    2
   108    90    91    2
   109   101    98    1
   110   101   102    1
   111    99    98    1
   112    69    70    1
   113   169   172    1
   114   169   170    1
   115   172   173    1
   116   102   103    1
   117   175   173   ar
   118   175   177   ar
   119   170   171    2
   120   173   174   ar
   121   177   178   ar
   122   103   105   ar
   123   103   104   ar
   124   178   179    1
   125   178   176   ar
   126   174   176   ar
   127     8     6   am
   128     7     6    2
   129     6     5    1
   130    32    30   ar
   131    37    34    1
   132    37    38    1
   133    26    25    1
   134    26    27    1
   135    26    29    1
   136    30    29    1
   137    30    31   ar
   138    34    33    1
   139    34    35    1
   140     5     2    1
   141    64    62   ar
   142    27    28    2
   143    60    59    2
   144    62    61    1
   145    62    63   ar
   146    61    58    1
   147    15    14   ar
   148    35    36    2
   149     2     3    1
   150     2     1    1
   151    59    58    1
   152     4     3    2
   153    58    57    1
   154    16    14   ar
   155    24    22   am
   156     3     9   am
   157    23    22    2
   158    14    13    1
   159    22    21    1
   160    39    40    1
   161    55    53   ar
   162    55    56   ar
   163     9    10    1
   164    43    44    1
   165    43    40    1
   166    46    44   ar
   167    53    52   ar
   168    44    45   ar
   169    13    10    1
   170    10    11    1
   171    56    54   ar
   172    40    41    1
   173    21    18    1
   174    52    54   ar
   175    52    51    1
   176    17    18    1
   177    47    41   am
   178    47    48    1
   179    18    19    1
   180    41    42    2
   181    51    48    1
   182    11    12    2
   183    48    49    1
   184    49    50    2
   185    19    20    2
