@<TRIPOS>MOLECULE
tmp/5c4lB00.pdb
 122 116 0 0 0
SMALL
GASTEIGER

@<TRIPOS>ATOM
      1  N         -7.3160   -4.7630  122.3270 N.3    30  LYS30      -0.1231
      2  CA        -8.3840   -5.3830  121.5950 C.3    30  LYS30       0.1693
      3  C         -7.9730   -5.7610  120.1810 C.2    30  LYS30       0.2593
      4  O         -7.5290   -4.9020  119.4290 O.2    30  LYS30      -0.2718
      5  CB        -9.5460   -4.4240  121.5570 C.3    30  LYS30       0.0285
      6  CG       -10.6680   -4.9290  120.7280 C.3    30  LYS30       0.0035
      7  CD       -11.9170   -4.1180  121.0040 C.3    30  LYS30       0.0206
      8  CE       -13.0800   -4.7730  120.2700 C.3    30  LYS30       0.1093
      9  NZ       -13.3270   -4.0930  118.9700 N.3    30  LYS30      -0.1314
     10  N         -8.1670   -7.0250  119.8290 N.am   31  GLY31      -0.1942
     11  CA        -7.9000   -7.5230  118.4960 C.3    31  GLY31       0.2014
     12  C         -9.1600   -7.9840  117.7630 C.2    31  GLY31       0.2638
     13  O        -10.3100   -7.5610  118.0680 O.2    31  GLY31      -0.2714
     14  N         -8.9280   -8.8310  116.7690 N.am   32  ASN32      -0.1972
     15  CA       -10.0070   -9.4480  116.0200 C.3    32  ASN32       0.1688
     16  C        -10.6950  -10.5420  116.7950 C.2    32  ASN32       0.2292
     17  O        -11.9130  -10.6780  116.7240 O.2    32  ASN32      -0.2864
     18  CB        -9.4730  -10.0250  114.7240 C.3    32  ASN32       0.1181
     19  CG        -8.9000   -8.9550  113.8150 C.2    32  ASN32       0.2629
     20  OD1       -9.3770   -7.8050  113.7840 O.2    32  ASN32      -0.2716
     21  ND2       -7.8380   -9.3130  113.0960 N.am   32  ASN32      -0.0877
     22  N          2.6460  -15.9260  114.8780 N.3   197  ASP197     -0.1239
     23  CA         2.2760  -14.5360  114.7720 C.3   197  ASP197      0.1674
     24  C          3.4030  -13.8050  115.4140 C.2   197  ASP197      0.2266
     25  O          3.1940  -12.9600  116.2640 O.2   197  ASP197     -0.2867
     26  CB         0.9710  -14.2080  115.4780 C.3   197  ASP197      0.1410
     27  CG         0.4910  -12.8030  115.1750 C.2   197  ASP197      0.3668
     28  OD1        0.9710  -12.1770  114.1810 O.co2 197  ASP197     -0.2456
     29  OD2       -0.3740  -12.3270  115.9370 O.co2 197  ASP197     -0.2456
     30  N          5.9760  -11.3820  115.7830 N.3   199  SER199     -0.1217
     31  CA         6.1420  -10.0190  115.2720 C.3   199  SER199      0.1889
     32  C          6.5030   -9.0700  116.4050 C.2   199  SER199      0.2288
     33  O          6.2640   -9.3510  117.5690 O.2   199  SER199     -0.2866
     34  CB         4.8320   -9.5680  114.6310 C.3   199  SER199      0.2089
     35  OG         3.8100   -9.5290  115.6160 O.3   199  SER199     -0.2183
     36  N          5.3610   -6.5840  117.8260 N.3   201  ASP201     -0.1239
     37  CA         4.3820   -6.1820  118.8240 C.3   201  ASP201      0.1674
     38  C          4.1270   -7.2510  119.8890 C.2   201  ASP201      0.2266
     39  O          3.6010   -6.9470  120.9560 O.2   201  ASP201     -0.2867
     40  CB         3.0810   -5.7450  118.1260 C.3   201  ASP201      0.1410
     41  CG         3.3050   -4.5650  117.1490 C.2   201  ASP201      0.3668
     42  OD1        4.0710   -3.6080  117.4680 O.co2 201  ASP201     -0.2456
     43  OD2        2.7200   -4.6150  116.0400 O.co2 201  ASP201     -0.2456
     44  N          7.4030  -13.4580  109.3180 N.3   232  SER232     -0.1217
     45  CA         6.6260  -12.4410  110.0430 C.3   232  SER232      0.1889
     46  C          7.4460  -11.2390  110.5850 C.2   232  SER232      0.2288
     47  O          6.8590  -10.2220  110.9240 O.2   232  SER232     -0.2866
     48  CB         5.7920  -13.0700  111.1710 C.3   232  SER232      0.2089
     49  OG         6.5100  -13.9690  112.0010 O.3   232  SER232     -0.2183
     50  N          9.3810   -7.7760  107.2130 N.3   235  GLU235     -0.1245
     51  CA         8.7440   -6.6160  106.5830 C.3   235  GLU235      0.1567
     52  C          9.4570   -5.3260  106.9450 C.2   235  GLU235      0.2260
     53  O          9.6890   -5.0660  108.1210 O.2   235  GLU235     -0.2867
     54  CB         7.2770   -6.5100  107.0480 C.3   235  GLU235      0.0388
     55  CG         6.3560   -7.5690  106.4270 C.3   235  GLU235      0.1160
     56  CD         5.3260   -8.1510  107.3890 C.2   235  GLU235      0.3649
     57  OE1        4.7190   -7.3830  108.1630 O.co2 235  GLU235     -0.2457
     58  OE2        5.0830   -9.3720  107.3510 O.co2 235  GLU235     -0.2457
     59  N          7.3640   -1.8510  108.8870 N.3   238  GLU238     -0.1231
     60  CA         6.3880   -2.4830  109.7710 C.3   238  GLU238      0.1699
     61  C          7.0850   -3.3710  110.7910 C.2   238  GLU238      0.2592
     62  O          6.7500   -3.3740  111.9580 O.2   238  GLU238     -0.2718
     63  CB         5.3770   -3.3100  108.9690 C.3   238  GLU238      0.0402
     64  CG         3.9440   -3.2080  109.4590 C.3   238  GLU238      0.1161
     65  CD         3.3590   -1.7990  109.3440 C.2   238  GLU238      0.3649
     66  OE1        3.1110   -1.1170  110.3690 O.co2 238  GLU238     -0.2457
     67  OE2        3.1340   -1.3570  108.2060 O.co2 238  GLU238     -0.2457
     68  N          8.0510   -4.1420  110.3420 N.am  239  GLU239     -0.1979
     69  CA         8.7720   -5.0340  111.2420 C.3   239  GLU239      0.1602
     70  C         10.2600   -4.7400  111.1430 C.2   239  GLU239      0.2287
     71  O         10.6560   -3.6440  110.7920 O.2   239  GLU239     -0.2864
     72  CB         8.4240   -6.4940  110.9220 C.3   239  GLU239      0.0415
     73  CG         6.9440   -6.8010  111.0560 C.3   239  GLU239      0.1163
     74  CD         6.3910   -6.5460  112.4520 C.2   239  GLU239      0.3649
     75  OE1        7.1710   -6.4770  113.4160 O.co2 239  GLU239     -0.2457
     76  OE2        5.1520   -6.4270  112.6000 O.co2 239  GLU239     -0.2457
     77  N          4.0510  -15.2160  100.9460 N.3   267  LYS267     -0.1231
     78  CA         3.2580  -14.7810  102.0360 C.3   267  LYS267      0.1693
     79  C          2.7210  -13.3740  101.8210 C.2   267  LYS267      0.2591
     80  O          1.5240  -13.1110  102.0710 O.2   267  LYS267     -0.2718
     81  CB         4.0510  -14.8550  103.3220 C.3   267  LYS267      0.0285
     82  CG         3.2590  -14.4400  104.5560 C.3   267  LYS267      0.0035
     83  CD         1.9590  -15.2340  104.6890 C.3   267  LYS267      0.0206
     84  CE         1.2910  -15.0090  106.0390 C.3   267  LYS267      0.1093
     85  NZ         0.1680  -15.9750  106.2600 N.3   267  LYS267     -0.1314
     86  N          3.5770  -12.4870  101.3310 N.am  268  GLU268     -0.1979
     87  CA         3.1940  -11.0790  101.1860 C.3   268  GLU268      0.1602
     88  C          2.0910  -10.9820  100.1560 C.2   268  GLU268      0.2287
     89  O          1.0800  -10.3660  100.4280 O.2   268  GLU268     -0.2864
     90  CB         4.3740  -10.1490  100.8250 C.3   268  GLU268      0.0415
     91  CG         5.3600   -9.8810  101.9700 C.3   268  GLU268      0.1163
     92  CD         4.7180   -9.2330  103.2050 C.2   268  GLU268      0.3649
     93  OE1        4.8100   -7.9970  103.3580 O.co2 268  GLU268     -0.2457
     94  OE2        4.1200   -9.9610  104.0350 O.co2 268  GLU268     -0.2457
     95  N         -1.2750  -12.4700  101.3720 N.3   271  TRP271     -0.1241
     96  CA        -2.0430  -11.7580  102.3770 C.3   271  TRP271      0.1605
     97  C         -3.3050  -11.0390  101.8660 C.2   271  TRP271      0.2264
     98  O         -4.2950  -10.9680  102.5690 O.2   271  TRP271     -0.2867
     99  CB        -1.1120  -10.7720  103.0570 C.3   271  TRP271      0.0550
    100  CG        -1.6380  -10.0840  104.2350 C.ar  271  TRP271      0.0003
    101  CD1       -1.7480   -8.7380  104.3900 C.ar  271  TRP271      0.0946
    102  CD2       -2.0610  -10.6780  105.4720 C.ar  271  TRP271      0.0152
    103  NE1       -2.1930   -8.4530  105.6520 N.ar  271  TRP271     -0.2442
    104  CE2       -2.4010   -9.6260  106.3370 C.ar  271  TRP271      0.0810
    105  CE3       -2.1540  -11.9900  105.9430 C.ar  271  TRP271      0.0012
    106  CZ2       -2.9040   -9.8440  107.6470 C.ar  271  TRP271      0.0191
    107  CZ3       -2.6120  -12.2100  107.2790 C.ar  271  TRP271      0.0001
    108  CH2       -2.9910  -11.1420  108.0960 C.ar  271  TRP271      0.0015
    109  N        -11.0510   -4.2550  105.0450 N.3   287  TRP287     -0.1241
    110  CA       -10.0880   -5.3100  104.7070 C.3   287  TRP287      0.1605
    111  C        -10.4090   -5.9690  103.3760 C.2   287  TRP287      0.2264
    112  O         -9.5170   -6.2270  102.5410 O.2   287  TRP287     -0.2867
    113  CB       -10.0900   -6.3770  105.7950 C.3   287  TRP287      0.0550
    114  CG        -8.9640   -6.2280  106.7640 C.ar  287  TRP287      0.0003
    115  CD1       -8.2080   -5.1120  107.0040 C.ar  287  TRP287      0.0946
    116  CD2       -8.4160   -7.2630  107.5760 C.ar  287  TRP287      0.0152
    117  NE1       -7.2310   -5.3880  107.9280 N.ar  287  TRP287     -0.2442
    118  CE2       -7.3360   -6.7020  108.3010 C.ar  287  TRP287      0.0810
    119  CE3       -8.7340   -8.6110  107.7650 C.ar  287  TRP287      0.0012
    120  CZ2       -6.5850   -7.4440  109.2150 C.ar  287  TRP287      0.0191
    121  CZ3       -7.9900   -9.3440  108.6680 C.ar  287  TRP287      0.0001
    122  CH2       -6.9230   -8.7590  109.3820 C.ar  287  TRP287      0.0015
@<TRIPOS>BOND
     1    88    89    2
     2    88    87    1
     3    90    87    1
     4    90    91    1
     5    77    78    1
     6    87    86    1
     7    86    79   am
     8    95    96    1
     9    79    78    1
    10    79    80    2
    11    97    96    1
    12    97    98    2
    13    91    92    1
    14    78    81    1
    15    96    99    1
    16   112   111    2
    17    99   100    1
    18    92    93   ar
    19    92    94   ar
    20    81    82    1
    21   111   110    1
    22   100   101   ar
    23   100   102   ar
    24   101   103   ar
    25    82    83    1
    26    83    84    1
    27   110   109    1
    28   110   113    1
    29   102   105   ar
    30   102   104   ar
    31   103   104   ar
    32   113   114    1
    33   105   107   ar
    34    84    85    1
    35   104   106   ar
    36    55    54    1
    37    55    56    1
    38    51    52    1
    39    51    54    1
    40    51    50    1
    41   114   115   ar
    42   114   116   ar
    43    52    53    2
    44   115   117   ar
    45   107   108   ar
    46    58    56   ar
    47    56    57   ar
    48   116   119   ar
    49   116   118   ar
    50   106   108   ar
    51   119   121   ar
    52   117   118   ar
    53    67    65   ar
    54   118   120   ar
    55   121   122   ar
    56    59    60    1
    57    63    64    1
    58    63    60    1
    59   120   122   ar
    60    44    45    1
    61    65    64    1
    62    65    66   ar
    63    60    61    1
    64    45    46    1
    65    45    48    1
    66    68    61   am
    67    68    69    1
    68    46    47    2
    69    61    62    2
    70    71    70    2
    71    72    73    1
    72    72    69    1
    73    73    74    1
    74    70    69    1
    75    48    49    1
    76    74    76   ar
    77    74    75   ar
    78    21    19   am
    79    20    19    2
    80    19    18    1
    81    28    27   ar
    82    34    31    1
    83    34    35    1
    84    18    15    1
    85    23    22    1
    86    23    24    1
    87    23    26    1
    88    27    26    1
    89    27    29   ar
    90    31    30    1
    91    31    32    1
    92    24    25    2
    93    15    14    1
    94    15    16    1
    95    43    41   ar
    96    32    33    2
    97    17    16    2
    98    14    12   am
    99    41    42   ar
   100    41    40    1
   101    12    13    2
   102    12    11    1
   103    36    37    1
   104    40    37    1
   105    11    10    1
   106    37    38    1
   107     9     8    1
   108     4     3    2
   109    10     3   am
   110    38    39    2
   111     3     2    1
   112     8     7    1
   113     6     7    1
   114     6     5    1
   115     5     2    1
   116     2     1    1
