@<TRIPOS>MOLECULE
tmp/5c4nA00.pdb
 188 182 0 0 0
SMALL
GASTEIGER

@<TRIPOS>ATOM
      1  N         20.5030   59.6920  -35.7150 N.3     7  LEU7       -0.1231
      2  CA        19.3990   59.4780  -34.7910 C.3     7  LEU7        0.1693
      3  C         19.9590   59.1790  -33.4120 C.2     7  LEU7        0.2593
      4  O         20.7690   58.2480  -33.2680 O.2     7  LEU7       -0.2718
      5  CB        18.5460   58.2990  -35.3050 C.3     7  LEU7        0.0284
      6  CG        18.0000   58.4450  -36.6980 C.3     7  LEU7        0.0019
      7  CD1       17.3080   57.1300  -37.1360 C.3     7  LEU7        0.0001
      8  CD2       17.0730   59.5990  -36.8670 C.3     7  LEU7        0.0001
      9  N         19.6310   60.0400  -32.4500 N.am    8  GLY8       -0.1942
     10  CA        20.2960   60.0010  -31.1710 C.3     8  GLY8        0.2014
     11  C         19.4400   59.5640  -30.0540 C.2     8  GLY8        0.2639
     12  O         18.4470   58.9240  -30.2190 O.2     8  GLY8       -0.2714
     13  N         19.8440   59.9900  -28.8730 N.am    9  GLY9       -0.1954
     14  CA        19.1640   59.6260  -27.6590 C.3     9  GLY9        0.1869
     15  C         20.0060   58.9230  -26.6370 C.2     9  GLY9        0.2309
     16  O         19.4370   58.6640  -25.5550 O.2     9  GLY9       -0.2863
     17  N         19.1620   64.1130  -34.3240 N.3    30  SER30      -0.1202
     18  CA        17.7450   64.0720  -34.0540 C.3    30  SER30       0.2020
     19  C         17.4180   63.3660  -32.7400 C.2    30  SER30       0.2619
     20  O         17.9030   62.2610  -32.5160 O.2    30  SER30      -0.2717
     21  CB        17.0620   63.3460  -35.1780 C.3    30  SER30       0.2103
     22  OG        15.6640   63.2420  -35.0830 O.3    30  SER30      -0.2182
     23  N         16.5700   64.0090  -31.9170 N.am   31  TYR31      -0.1961
     24  CA        16.0350   63.4590  -30.6850 C.3    31  TYR31       0.1771
     25  C         14.5320   63.3570  -30.8130 C.2    31  TYR31       0.2619
     26  O         13.8540   64.1620  -31.4770 O.2    31  TYR31      -0.2715
     27  CB        16.2200   64.4860  -29.4960 C.3    31  TYR31       0.0574
     28  CG        17.4740   64.5770  -28.8900 C.ar   31  TYR31      -0.0198
     29  CD1       17.9920   63.4980  -28.1640 C.ar   31  TYR31      -0.0009
     30  CD2       18.2100   65.7150  -29.0080 C.ar   31  TYR31      -0.0009
     31  CE1       19.2240   63.5940  -27.5300 C.ar   31  TYR31       0.0417
     32  CE2       19.4260   65.8500  -28.3290 C.ar   31  TYR31       0.0417
     33  CZ        19.9230   64.7680  -27.6090 C.ar   31  TYR31       0.1957
     34  OH        21.1160   64.8240  -26.9650 O.3    31  TYR31      -0.2866
     35  N         13.9820   62.4110  -30.0550 N.am   32  ALA32      -0.1977
     36  CA        12.5460   62.2280  -30.0050 C.3    32  ALA32       0.1597
     37  C         11.7770   63.3660  -29.3490 C.2    32  ALA32       0.2287
     38  O         10.6330   63.5970  -29.7090 O.2    32  ALA32      -0.2864
     39  CB        12.2130   60.9220  -29.2710 C.3    32  ALA32       0.0319
     40  N         11.6700   65.7920  -32.2350 N.3    42  GLY42      -0.1210
     41  CA        10.3620   65.2290  -32.4730 C.3    42  GLY42       0.1956
     42  C         10.2850   64.1970  -33.5410 C.2    42  GLY42       0.2612
     43  O         11.1970   64.1070  -34.3250 O.2    42  GLY42      -0.2717
     44  N          9.2190   63.4270  -33.5580 N.am   43  GLY43      -0.1942
     45  CA         9.0930   62.3750  -34.5670 C.3    43  GLY43       0.2014
     46  C          9.0310   62.9420  -35.9500 C.2    43  GLY43       0.2639
     47  O          8.7590   64.1980  -36.1730 O.2    43  GLY43      -0.2714
     48  N          9.3030   62.0900  -36.9250 N.am   44  PHE44      -0.1959
     49  CA         9.1890   62.4380  -38.3200 C.3    44  PHE44       0.1771
     50  C          7.7820   62.2820  -38.8990 C.2    44  PHE44       0.2620
     51  O          7.5320   62.7820  -39.9940 O.2    44  PHE44      -0.2715
     52  CB        10.1500   61.5710  -39.1470 C.3    44  PHE44       0.0574
     53  CG        11.6060   61.7600  -38.7850 C.ar   44  PHE44      -0.0200
     54  CD1       12.3940   62.7250  -39.4380 C.ar   44  PHE44      -0.0042
     55  CD2       12.1950   61.0000  -37.8090 C.ar   44  PHE44      -0.0042
     56  CE1       13.7440   62.8860  -39.1080 C.ar   44  PHE44      -0.0003
     57  CE2       13.5320   61.1870  -37.4680 C.ar   44  PHE44      -0.0003
     58  CZ        14.2830   62.1220  -38.1090 C.ar   44  PHE44      -0.0000
     59  N          6.9700   61.5310  -38.2520 N.am   45  GLY45      -0.1940
     60  CA         5.6900   61.1210  -38.8470 C.3    45  GLY45       0.2014
     61  C          5.6850   59.8070  -39.5630 C.2    45  GLY45       0.2639
     62  O          5.2380   59.6960  -40.7340 O.2    45  GLY45      -0.2714
     63  N          6.1240   58.7650  -38.8610 N.am   46  GLY46      -0.1954
     64  CA         6.2000   57.4510  -39.3720 C.3    46  GLY46       0.1869
     65  C          7.2360   57.2910  -40.4540 C.2    46  GLY46       0.2309
     66  O          8.0860   58.1710  -40.6430 O.2    46  GLY46      -0.2863
     67  N         20.3230   55.3560  -31.9160 N.3    66  THR66      -0.1203
     68  CA        19.2640   55.2990  -30.9230 C.3    66  THR66       0.1994
     69  C         19.5080   54.1920  -29.8950 C.2    66  THR66       0.2617
     70  O         20.2720   53.2590  -30.1110 O.2    66  THR66      -0.2717
     71  CB        17.8370   55.1430  -31.5000 C.3    66  THR66       0.1784
     72  OG1       17.7620   53.8970  -32.1760 O.3    66  THR66      -0.2211
     73  CG2       17.5010   56.2900  -32.4340 C.3    66  THR66       0.0376
     74  N         18.8000   54.3280  -28.7960 N.am   67  HIS67      -0.1975
     75  CA        18.8570   53.2460  -27.8150 C.3    67  HIS67       0.1656
     76  C         18.4150   51.9330  -28.4420 C.2    67  HIS67       0.2291
     77  O         17.4650   51.9080  -29.2730 O.2    67  HIS67      -0.2864
     78  CB        17.9600   53.6840  -26.6620 C.3    67  HIS67       0.0771
     79  CG        18.1350   52.8780  -25.4150 C.ar   67  HIS67       0.0820
     80  ND1       17.6170   51.6050  -25.2790 N.ar   67  HIS67      -0.2267
     81  CD2       18.8230   53.1330  -24.2800 C.ar   67  HIS67       0.1154
     82  CE1       17.9110   51.1370  -24.0740 C.ar   67  HIS67       0.1986
     83  NE2       18.6620   52.0270  -23.4520 N.ar   67  HIS67      -0.2212
     84  N         16.3950   49.8610  -27.3340 N.3    69  PHE69      -0.1227
     85  CA        14.9730   49.6740  -27.0540 C.3    69  PHE69       0.1736
     86  C         14.0820   50.6620  -27.7130 C.2    69  PHE69       0.2595
     87  O         12.8780   50.5380  -27.6630 O.2    69  PHE69      -0.2718
     88  CB        14.7320   49.5900  -25.5590 C.3    69  PHE69       0.0547
     89  CG        15.1930   48.2770  -25.0130 C.ar   69  PHE69      -0.0202
     90  CD1       16.5220   47.9700  -24.9450 C.ar   69  PHE69      -0.0042
     91  CD2       14.2640   47.3420  -24.6160 C.ar   69  PHE69      -0.0042
     92  CE1       16.9970   46.7570  -24.4580 C.ar   69  PHE69      -0.0003
     93  CE2       14.7110   46.0970  -24.1760 C.ar   69  PHE69      -0.0003
     94  CZ        16.0460   45.8020  -24.1240 C.ar   69  PHE69      -0.0000
     95  N         14.6950   51.5960  -28.4380 N.am   70  ALA70      -0.1966
     96  CA        13.9500   52.4680  -29.3900 C.3    70  ALA70       0.1728
     97  C         13.8100   51.7120  -30.7030 C.2    70  ALA70       0.2616
     98  O         14.4380   52.0100  -31.7300 O.2    70  ALA70      -0.2715
     99  CB        14.6390   53.8040  -29.5520 C.3    70  ALA70       0.0334
    100  N         12.9880   50.6760  -30.6900 N.am   71  ALA71      -0.1963
    101  CA        12.9140   49.7330  -31.8060 C.3    71  ALA71       0.1728
    102  C         12.0100   50.2190  -32.9210 C.2    71  ALA71       0.2616
    103  O         12.1890   49.8340  -34.0920 O.2    71  ALA71      -0.2715
    104  CB        12.3810   48.4050  -31.2850 C.3    71  ALA71       0.0334
    105  N         11.0100   51.0630  -32.6000 N.am   72  GLN72      -0.1963
    106  CA        10.1670   51.6320  -33.6570 C.3    72  GLN72       0.1733
    107  C         11.0030   52.6380  -34.4750 C.2    72  GLN72       0.2616
    108  O         10.8970   52.6400  -35.7160 O.2    72  GLN72      -0.2715
    109  CB         8.9390   52.3220  -33.1100 C.3    72  GLN72       0.0408
    110  CG         7.9830   52.7970  -34.2070 C.3    72  GLN72       0.0908
    111  CD         7.2490   51.6400  -34.8060 C.2    72  GLN72       0.2608
    112  OE1        6.5080   50.9340  -34.0930 O.2    72  GLN72      -0.2717
    113  NE2        7.5060   51.3490  -36.0680 N.am   72  GLN72      -0.0878
    114  N         11.8010   53.4590  -33.8420 N.am   73  MET73      -0.1977
    115  CA        12.6310   54.3650  -34.6070 C.3    73  MET73       0.1605
    116  C         13.6120   53.5750  -35.4770 C.2    73  MET73       0.2287
    117  O         13.7700   53.8770  -36.6500 O.2    73  MET73      -0.2864
    118  CB        13.3530   55.3560  -33.7040 C.3    73  MET73       0.0413
    119  CG        14.1140   56.4110  -34.4420 C.3    73  MET73       0.0598
    120  SD        13.1190   57.6310  -35.2750 S.3    73  MET73      -0.1393
    121  CE        13.1800   57.0630  -36.9910 C.3    73  MET73       0.0692
    122  N         11.7100   52.0090  -38.3820 N.3    76  ASN76      -0.1240
    123  CA        11.3490   53.0170  -39.3480 C.3    76  ASN76       0.1653
    124  C         12.5180   53.4900  -40.1650 C.2    76  ASN76       0.2266
    125  O         12.3470   53.7990  -41.3630 O.2    76  ASN76      -0.2867
    126  CB        10.6970   54.2140  -38.6460 C.3    76  ASN76       0.1155
    127  CG         9.2710   53.9260  -38.1700 C.2    76  ASN76       0.2627
    128  OD1        8.7980   52.7680  -38.1790 O.2    76  ASN76      -0.2716
    129  ND2        8.6120   54.9890  -37.6990 N.am   76  ASN76      -0.0877
    130  N         14.7840   50.3830  -13.4010 N.3   127  ALA127     -0.1231
    131  CA        15.8800   51.1520  -14.0080 C.3   127  ALA127      0.1694
    132  C         15.6650   51.2150  -15.4790 C.2   127  ALA127      0.2592
    133  O         16.5210   50.7440  -16.2980 O.2   127  ALA127     -0.2718
    134  CB        17.2260   50.5090  -13.6760 C.3   127  ALA127      0.0304
    135  N         14.5090   51.7800  -15.8360 N.am  128  ILE128     -0.1966
    136  CA        14.0140   51.7650  -17.2030 C.3   128  ILE128      0.1727
    137  C         13.5020   53.1130  -17.6920 C.2   128  ILE128      0.2616
    138  O         12.8170   53.1740  -18.7340 O.2   128  ILE128     -0.2715
    139  CB        12.8730   50.7610  -17.3090 C.3   128  ILE128      0.0290
    140  CG1       11.7210   51.1640  -16.3780 C.3   128  ILE128      0.0022
    141  CG2       13.4210   49.3560  -17.0380 C.3   128  ILE128      0.0023
    142  CD1       10.5660   50.2230  -16.4300 C.3   128  ILE128      0.0001
    143  N         13.8860   54.1790  -16.9990 N.am  129  GLY129     -0.1955
    144  CA        13.4920   55.5390  -17.3990 C.3   129  GLY129      0.1869
    145  C         12.0590   55.8030  -17.0000 C.2   129  GLY129      0.2309
    146  O         11.5710   55.1830  -16.0450 O.2   129  GLY129     -0.2863
    147  N          9.3130   55.7670  -19.3880 N.3   131  GLN131     -0.1231
    148  CA         8.3040   55.1290  -20.2360 C.3   131  GLN131      0.1698
    149  C          7.7120   53.8400  -19.6720 C.2   131  GLN131      0.2592
    150  O          8.4020   52.9510  -19.1820 O.2   131  GLN131     -0.2718
    151  CB         8.8450   54.8660  -21.6500 C.3   131  GLN131      0.0381
    152  CG         9.0560   56.1470  -22.3860 C.3   131  GLN131      0.0905
    153  CD         9.3110   55.9180  -23.8530 C.2   131  GLN131      0.2608
    154  OE1        8.4840   55.3520  -24.5790 O.2   131  GLN131     -0.2717
    155  NE2       10.4320   56.4070  -24.3010 N.am  131  GLN131     -0.0878
    156  N          6.4000   53.8010  -19.7160 N.am  132  HIS132     -0.1976
    157  CA         5.6750   52.6450  -19.3410 C.3   132  HIS132      0.1656
    158  C          5.7990   52.2720  -17.8770 C.2   132  HIS132      0.2291
    159  O          5.4420   51.1530  -17.5240 O.2   132  HIS132     -0.2864
    160  CB         6.0790   51.4560  -20.2180 C.3   132  HIS132      0.0771
    161  CG         5.8540   51.6950  -21.6840 C.ar  132  HIS132      0.0820
    162  ND1        4.5930   51.8530  -22.2240 N.ar  132  HIS132     -0.2267
    163  CD2        6.7250   51.8180  -22.7140 C.ar  132  HIS132      0.1154
    164  CE1        4.6940   52.0580  -23.5290 C.ar  132  HIS132      0.1986
    165  NE2        5.9750   52.0450  -23.8510 N.ar  132  HIS132     -0.2212
    166  N         16.6860   47.0310  -18.7430 N.3   190  LYS190     -0.1245
    167  CA        16.7540   46.6040  -20.1450 C.3   190  LYS190      0.1561
    168  C         18.1810   46.2860  -20.5240 C.2   190  LYS190      0.2260
    169  O         19.1380   46.9230  -20.0510 O.2   190  LYS190     -0.2867
    170  CB        16.2230   47.7580  -21.0060 C.3   190  LYS190      0.0271
    171  CG        14.7410   48.0350  -20.7160 C.3   190  LYS190      0.0035
    172  CD        14.0700   49.2410  -21.3330 C.3   190  LYS190      0.0206
    173  CE        12.5460   49.2350  -21.1680 C.3   190  LYS190      0.1093
    174  NZ        11.7490   50.4120  -21.7180 N.3   190  LYS190     -0.1314
    175  N         20.5960   47.0470  -22.4360 N.3   192  ALA192     -0.1245
    176  CA        21.1300   48.0900  -23.3090 C.3   192  ALA192      0.1562
    177  C         22.5190   47.7710  -23.8520 C.2   192  ALA192      0.2260
    178  O         22.8060   48.0420  -25.0370 O.2   192  ALA192     -0.2867
    179  CB        21.0820   49.4020  -22.6380 C.3   192  ALA192      0.0290
    180  N         24.6330   49.8590  -12.5640 N.3   200  LYS200     -0.1245
    181  CA        23.6180   49.3220  -11.7210 C.3   200  LYS200      0.1561
    182  C         23.7180   47.7920  -11.6380 C.2   200  LYS200      0.2260
    183  O         23.3620   47.2320  -10.6520 O.2   200  LYS200     -0.2867
    184  CB        22.2000   49.7110  -12.2260 C.3   200  LYS200      0.0271
    185  CG        21.9740   49.3150  -13.6500 C.3   200  LYS200      0.0035
    186  CD        20.5560   49.7000  -14.1460 C.3   200  LYS200      0.0206
    187  CE        20.3350   49.3920  -15.6140 C.3   200  LYS200      0.1093
    188  NZ        21.0640   50.3190  -16.5080 N.3   200  LYS200     -0.1314
@<TRIPOS>BOND
     1   125   124    2
     2    62    61    2
     3    66    65    2
     4    65    64    1
     5   124   123    1
     6    51    50    2
     7    61    63   am
     8    61    60    1
     9    54    56   ar
    10    54    53   ar
    11    64    63    1
    12   123   126    1
    13   123   122    1
    14    52    53    1
    15    52    49    1
    16    56    58   ar
    17    50    49    1
    18    50    59   am
    19    60    59    1
    20    53    55   ar
    21   126   127    1
    22    49    48    1
    23   128   127    2
    24   127   129   am
    25    58    57   ar
    26    55    57   ar
    27     7     6    1
    28   121   120    1
    29    48    46   am
    30     8     6    1
    31     6     5    1
    32   117   116    2
    33    47    46    2
    34   113   111   am
    35    46    45    1
    36   108   107    2
    37     1     2    1
    38   116   115    1
    39     5     2    1
    40   120   119    1
    41    21    22    1
    42    21    18    1
    43   111   110    1
    44   111   112    2
    45     2     3    1
    46   115   114    1
    47   115   118    1
    48    45    44    1
    49   107   114   am
    50   107   106    1
    51   119   118    1
    52    43    42    2
    53    17    18    1
    54   110   109    1
    55   103   102    2
    56    18    19    1
    57   106   109    1
    58   106   105    1
    59    44    42   am
    60    42    41    1
    61     3     4    2
    62     3     9   am
    63   102   105   am
    64   102   101    1
    65    19    20    2
    66    19    23   am
    67    41    40    1
    68     9    10    1
    69    73    71    1
    70    72    71    1
    71    23    24    1
    72    67    68    1
    73   101   104    1
    74   101   100    1
    75    98    97    2
    76    71    68    1
    77    26    25    2
    78    10    11    1
    79    68    69    1
    80    25    24    1
    81    25    35   am
    82    97   100   am
    83    97    96    1
    84    24    27    1
    85    12    11    2
    86    70    69    2
    87    35    36    1
    88    11    13   am
    89    36    37    1
    90    36    39    1
    91    69    74   am
    92    38    37    2
    93    99    96    1
    94    27    28    1
    95    96    95    1
    96    77    76    2
    97    30    28   ar
    98    30    32   ar
    99    28    29   ar
   100    13    14    1
   101    74    75    1
   102    76    75    1
   103    95    86   am
   104    32    33   ar
   105    29    31   ar
   106    75    78    1
   107    86    87    2
   108    86    85    1
   109    14    15    1
   110    33    31   ar
   111    33    34    1
   112    84    85    1
   113    85    88    1
   114    78    79    1
   115    15    16    2
   116    88    89    1
   117    79    80   ar
   118    79    81   ar
   119    80    82   ar
   120   178   177    2
   121    89    90   ar
   122    89    91   ar
   123    90    92   ar
   124    91    93   ar
   125   154   153    2
   126    92    94   ar
   127   155   153   am
   128    81    83   ar
   129    93    94   ar
   130    82    83   ar
   131   153   152    1
   132   177   176    1
   133   165   164   ar
   134   165   163   ar
   135   164   162   ar
   136   176   179    1
   137   176   175    1
   138   163   161   ar
   139   152   151    1
   140   162   161   ar
   141   174   173    1
   142   161   160    1
   143   151   148    1
   144   172   173    1
   145   172   171    1
   146   170   171    1
   147   170   167    1
   148   168   167    1
   149   168   169    2
   150   148   149    1
   151   148   147    1
   152   160   157    1
   153   167   166    1
   154   156   149   am
   155   156   157    1
   156   149   150    2
   157   157   158    1
   158   138   137    2
   159   158   159    2
   160   137   136    1
   161   137   143   am
   162   144   145    1
   163   144   143    1
   164   139   136    1
   165   139   141    1
   166   139   140    1
   167   136   135    1
   168   145   146    2
   169   188   187    1
   170   142   140    1
   171   133   132    2
   172   135   132   am
   173   187   186    1
   174   132   131    1
   175   186   185    1
   176   131   134    1
   177   131   130    1
   178   185   184    1
   179   180   181    1
   180   184   181    1
   181   181   182    1
   182   182   183    2
