@<TRIPOS>MOLECULE
tmp/5c4oA00.pdb
 202 191 0 0 0
SMALL
GASTEIGER

@<TRIPOS>ATOM
      1  N        -35.1500    8.9610   31.0790 N.3    51  TRP51      -0.1241
      2  CA       -35.7990   10.2270   31.3380 C.3    51  TRP51       0.1605
      3  C        -34.9420   11.0890   32.2530 C.2    51  TRP51       0.2264
      4  O        -34.7570   12.2540   31.9490 O.2    51  TRP51      -0.2867
      5  CB       -37.2240   10.0380   31.9010 C.3    51  TRP51       0.0550
      6  CG       -37.7210   11.2000   32.7000 C.ar   51  TRP51       0.0003
      7  CD1      -37.9890   11.2140   34.0340 C.ar   51  TRP51       0.0946
      8  CD2      -37.9640   12.5430   32.2230 C.ar   51  TRP51       0.0152
      9  NE1      -38.4030   12.4700   34.4230 N.ar   51  TRP51      -0.2442
     10  CE2      -38.3940   13.3080   33.3340 C.ar   51  TRP51       0.0810
     11  CE3      -37.8230   13.1820   30.9700 C.ar   51  TRP51       0.0012
     12  CZ2      -38.7080   14.6760   33.2340 C.ar   51  TRP51       0.0191
     13  CZ3      -38.1520   14.5320   30.8670 C.ar   51  TRP51       0.0001
     14  CH2      -38.5930   15.2610   31.9890 C.ar   51  TRP51       0.0015
     15  N        -33.5620   14.4540   30.9060 N.3    55  ALA55      -0.1245
     16  CA       -34.0660   15.6250   31.5890 C.3    55  ALA55       0.1562
     17  C        -32.9080   16.4380   32.1180 C.2    55  ALA55       0.2260
     18  O        -32.9440   17.6520   31.9670 O.2    55  ALA55      -0.2867
     19  CB       -35.0220   15.2580   32.7100 C.3    55  ALA55       0.0290
     20  N        -31.1120   18.1760   29.1920 N.3    58  LEU58      -0.1231
     21  CA       -31.9740   19.2690   28.7120 C.3    58  LEU58       0.1693
     22  C        -32.0440   20.4510   29.6790 C.2    58  LEU58       0.2592
     23  O        -32.1170   21.5780   29.2020 O.2    58  LEU58      -0.2718
     24  CB       -33.3830   18.8180   28.3090 C.3    58  LEU58       0.0284
     25  CG       -33.4860   18.0070   27.0300 C.3    58  LEU58       0.0019
     26  CD1      -34.8690   17.4120   26.8800 C.3    58  LEU58       0.0001
     27  CD2      -33.0550   18.8230   25.7720 C.3    58  LEU58       0.0001
     28  N        -31.9950   20.2080   31.0190 N.am   59  THR59      -0.1953
     29  CA       -32.0150   21.2970   32.0200 C.3    59  THR59       0.1897
     30  C        -30.7010   22.0440   31.9480 C.2    59  THR59       0.2313
     31  O        -30.7120   23.2550   32.0090 O.2    59  THR59      -0.2863
     32  CB       -32.2540   20.8080   33.4760 C.3    59  THR59       0.1794
     33  OG1      -31.2310   19.8780   33.8360 O.3    59  THR59      -0.2208
     34  CG2      -33.6000   20.2010   33.6680 C.3    59  THR59       0.0378
     35  N        -30.7830   24.2900   28.9270 N.3    62  ILE62      -0.1231
     36  CA       -31.5750   25.4940   29.1990 C.3    62  ILE62       0.1692
     37  C        -30.7670   26.4960   30.0270 C.2    62  ILE62       0.2591
     38  O        -30.8350   27.6940   29.7620 O.2    62  ILE62      -0.2718
     39  CB       -32.9340   25.1530   29.8960 C.3    62  ILE62       0.0266
     40  CG1      -33.8870   24.3860   28.9580 C.3    62  ILE62       0.0019
     41  CG2      -33.6290   26.4030   30.4580 C.3    62  ILE62       0.0020
     42  CD1      -34.6160   25.2680   27.8850 C.3    62  ILE62       0.0001
     43  N        -30.0120   26.0040   31.0310 N.am   63  GLN63      -0.1979
     44  CA       -29.2210   26.8650   31.9170 C.3    63  GLN63       0.1601
     45  C        -28.0940   27.5860   31.1770 C.2    63  GLN63       0.2287
     46  O        -27.7310   28.7000   31.5460 O.2    63  GLN63      -0.2864
     47  CB       -28.7180   26.1030   33.1500 C.3    63  GLN63       0.0394
     48  CG       -29.8630   25.7150   34.1110 C.3    63  GLN63       0.0908
     49  CD       -29.4460   24.6870   35.1570 C.2    63  GLN63       0.2608
     50  OE1      -28.4140   23.9980   35.0370 O.2    63  GLN63      -0.2717
     51  NE2      -30.2390   24.5710   36.2150 N.am   63  GLN63      -0.0878
     52  N        -30.0660   30.3370   29.4160 N.3    66  VAL66      -0.1245
     53  CA       -30.4160   31.4150   30.3680 C.3    66  VAL66       0.1561
     54  C        -29.1780   32.3420   30.5600 C.2    66  VAL66       0.2260
     55  O        -29.3240   33.5660   30.5790 O.2    66  VAL66      -0.2867
     56  CB       -30.9550   30.8540   31.7180 C.3    66  VAL66       0.0252
     57  CG1      -31.0400   31.9360   32.7900 C.3    66  VAL66       0.0019
     58  CG2      -32.3070   30.1690   31.5310 C.3    66  VAL66       0.0019
     59  N        -37.6440   34.0230   27.9650 N.3    87  LEU87      -0.1231
     60  CA       -37.0020   32.7140   28.2120 C.3    87  LEU87       0.1693
     61  C        -38.0060   31.5130   28.2340 C.2    87  LEU87       0.2591
     62  O        -37.6930   30.4270   27.7290 O.2    87  LEU87      -0.2718
     63  CB       -36.1430   32.7460   29.4940 C.3    87  LEU87       0.0284
     64  CG       -34.8500   33.5560   29.3890 C.3    87  LEU87       0.0019
     65  CD1      -34.3350   33.9290   30.7550 C.3    87  LEU87       0.0001
     66  CD2      -33.7860   32.8040   28.5760 C.3    87  LEU87       0.0001
     67  N        -39.2060   31.7300   28.7740 N.am   88  LYS88      -0.1980
     68  CA       -40.2510   30.7160   28.8210 C.3    88  LYS88       0.1596
     69  C        -40.6040   30.2880   27.4030 C.2    88  LYS88       0.2287
     70  O        -40.7000   29.1030   27.1380 O.2    88  LYS88      -0.2864
     71  CB       -41.5130   31.2600   29.5320 C.3    88  LYS88       0.0298
     72  CG       -42.5590   30.1800   29.7920 C.3    88  LYS88       0.0038
     73  CD       -43.8250   30.7060   30.4210 C.3    88  LYS88       0.0206
     74  CE       -44.8700   29.6120   30.4850 C.3    88  LYS88       0.1093
     75  NZ       -46.0560   30.0120   31.2860 N.3    88  LYS88      -0.1314
     76  N        -36.2000   29.9120   25.3720 N.3    91  ALA91      -0.1231
     77  CA       -35.0420   29.1140   25.7950 C.3    91  ALA91       0.1694
     78  C        -34.9410   27.7300   25.1680 C.2    91  ALA91       0.2591
     79  O        -33.8710   27.3850   24.6510 O.2    91  ALA91      -0.2718
     80  CB       -34.9610   29.0100   27.3020 C.3    91  ALA91       0.0304
     81  N        -36.0420   26.9410   25.1760 N.am   92  MET92      -0.1979
     82  CA       -36.0430   25.5900   24.6070 C.3    92  MET92       0.1605
     83  C        -35.9400   25.6450   23.1200 C.2    92  MET92       0.2287
     84  O        -35.3700   24.7380   22.5370 O.2    92  MET92      -0.2864
     85  CB       -37.2570   24.7530   25.0590 C.3    92  MET92       0.0413
     86  CG       -37.1930   23.2530   24.5790 C.3    92  MET92       0.0598
     87  SD       -35.7250   22.3160   25.1690 S.3    92  MET92      -0.1393
     88  CE       -36.1420   22.1940   26.9560 C.3    92  MET92       0.0692
     89  N        -41.2780   22.9480   19.6000 N.3   210  CYS210     -0.1235
     90  CA       -40.9620   23.3060   20.9690 C.3   210  CYS210      0.1677
     91  C        -42.1270   23.1230   21.9380 C.2   210  CYS210      0.2270
     92  O        -41.8940   22.6460   23.0610 O.2   210  CYS210     -0.2867
     93  CB       -40.3860   24.7210   21.0350 C.3   210  CYS210      0.0956
     94  SG       -40.1220   25.3440   22.7180 S.3   210  CYS210     -0.0801
     95  N        -41.8980   20.5310   24.9690 N.3   214  VAL214     -0.1245
     96  CA       -42.1060   20.9910   26.3450 C.3   214  VAL214      0.1561
     97  C        -43.3400   20.3160   26.9860 C.2   214  VAL214      0.2260
     98  O        -43.2960   20.0060   28.1860 O.2   214  VAL214     -0.2867
     99  CB       -42.0970   22.5440   26.4500 C.3   214  VAL214      0.0252
    100  CG1      -42.5280   23.0350   27.8320 C.3   214  VAL214      0.0019
    101  CG2      -40.7010   23.1040   26.0950 C.3   214  VAL214      0.0019
    102  N        -42.2270   16.8160   27.8780 N.3   217  LEU217     -0.1231
    103  CA       -41.3230   16.9860   29.0150 C.3   217  LEU217      0.1693
    104  C        -42.1250   17.2140   30.2870 C.2   217  LEU217      0.2591
    105  O        -41.7410   16.7290   31.3450 O.2   217  LEU217     -0.2718
    106  CB       -40.4020   18.2090   28.7690 C.3   217  LEU217      0.0284
    107  CG       -38.9640   18.0170   28.2540 C.3   217  LEU217      0.0019
    108  CD1      -38.6830   16.6340   27.7080 C.3   217  LEU217      0.0001
    109  CD2      -38.5910   19.0990   27.2720 C.3   217  LEU217      0.0001
    110  N        -43.2240   17.9810   30.1870 N.am  218  GLN218     -0.1979
    111  CA       -44.0970   18.3180   31.3220 C.3   218  GLN218      0.1601
    112  C        -44.8970   17.1130   31.8460 C.2   218  GLN218      0.2287
    113  O        -45.1350   17.0090   33.0590 O.2   218  GLN218     -0.2864
    114  CB       -44.9940   19.5090   30.9940 C.3   218  GLN218      0.0394
    115  CG       -44.2430   20.8180   31.2480 C.3   218  GLN218      0.0908
    116  CD       -44.9400   22.0690   30.8060 C.2   218  GLN218      0.2608
    117  OE1      -44.8160   23.1130   31.4480 O.2   218  GLN218     -0.2717
    118  NE2      -45.6710   22.0120   29.6980 N.am  218  GLN218     -0.0878
    119  N        -42.2840   14.9700   33.6790 N.3   221  GLN221     -0.1245
    120  CA       -41.9550   15.6360   34.9380 C.3   221  GLN221      0.1566
    121  C        -43.0650   15.4070   35.9810 C.2   221  GLN221      0.2260
    122  O        -42.7990   15.3820   37.1910 O.2   221  GLN221     -0.2867
    123  CB       -41.7170   17.1450   34.6880 C.3   221  GLN221      0.0367
    124  CG       -41.4500   17.9960   35.9350 C.3   221  GLN221      0.0905
    125  CD       -40.1680   17.6540   36.6770 C.2   221  GLN221      0.2608
    126  OE1      -39.3140   16.8990   36.2090 O.2   221  GLN221     -0.2717
    127  NE2      -39.9910   18.2320   37.8570 N.am  221  GLN221     -0.0878
    128  N        -37.7830   15.1590   38.3130 N.3   226  ILE226     -0.1245
    129  CA       -36.3380   15.2980   38.5440 C.3   226  ILE226      0.1561
    130  C        -36.1880   16.5700   39.3780 C.2   226  ILE226      0.2260
    131  O        -37.1000   17.4000   39.3960 O.2   226  ILE226     -0.2867
    132  CB       -35.4520   15.3750   37.2620 C.3   226  ILE226      0.0252
    133  CG1      -35.7730   16.6390   36.4050 C.3   226  ILE226      0.0019
    134  CG2      -35.4840   14.0870   36.4340 C.3   226  ILE226      0.0019
    135  CD1      -34.5060   17.3580   35.8370 C.3   226  ILE226      0.0001
    136  N        -33.8810   20.0010   40.1040 N.3   228  VAL228     -0.1245
    137  CA       -32.8540   20.8970   39.5760 C.3   228  VAL228      0.1561
    138  C        -32.7000   22.1370   40.4640 C.2   228  VAL228      0.2260
    139  O        -33.6960   22.7080   40.9380 O.2   228  VAL228     -0.2867
    140  CB       -33.0770   21.2280   38.0510 C.3   228  VAL228      0.0252
    141  CG1      -34.4210   20.6960   37.5230 C.3   228  VAL228      0.0019
    142  CG2      -32.9030   22.7180   37.7200 C.3   228  VAL228      0.0019
    143  N        -32.2060   25.6740   40.6130 N.3   230  ALA230     -0.1231
    144  CA       -32.5810   26.7890   39.7410 C.3   230  ALA230      0.1694
    145  C        -31.5110   27.8690   39.5620 C.2   230  ALA230      0.2592
    146  O        -30.9680   28.3900   40.5440 O.2   230  ALA230     -0.2718
    147  CB       -33.8790   27.4160   40.2180 C.3   230  ALA230      0.0304
    148  N        -31.2090   28.1850   38.2880 N.am  231  ALA231     -0.1966
    149  CA       -30.2610   29.2300   37.8930 C.3   231  ALA231      0.1728
    150  C        -31.0630   30.5370   37.8640 C.2   231  ALA231      0.2616
    151  O        -30.5440   31.5890   38.2250 O.2   231  ALA231     -0.2715
    152  CB       -29.6820   28.9330   36.5090 C.3   231  ALA231      0.0334
    153  N        -32.3390   30.4490   37.4520 N.am  232  PHE232     -0.1974
    154  CA       -33.2930   31.5470   37.3820 C.3   232  PHE232      0.1639
    155  C        -34.5900   31.1020   38.0990 C.2   232  PHE232      0.2290
    156  O        -35.5500   30.6850   37.4360 O.2   232  PHE232     -0.2864
    157  CB       -33.5410   31.9640   35.9150 C.3   232  PHE232      0.0560
    158  CG       -34.1080   33.3550   35.7010 C.ar  232  PHE232     -0.0200
    159  CD1      -34.1600   34.2780   36.7450 C.ar  232  PHE232     -0.0042
    160  CD2      -34.5600   33.7520   34.4470 C.ar  232  PHE232     -0.0042
    161  CE1      -34.6800   35.5580   36.5440 C.ar  232  PHE232     -0.0003
    162  CE2      -35.0800   35.0370   34.2460 C.ar  232  PHE232     -0.0003
    163  CZ       -35.1260   35.9340   35.2940 C.ar  232  PHE232     -0.0000
    164  N        -38.2370   31.7470   36.7320 N.3   235  LEU235     -0.1231
    165  CA       -38.4490   31.0670   35.4430 C.3   235  LEU235      0.1693
    166  C        -38.7660   29.5960   35.7470 C.2   235  LEU235      0.2592
    167  O        -39.7250   29.0410   35.2000 O.2   235  LEU235     -0.2718
    168  CB       -37.1440   31.1450   34.6060 C.3   235  LEU235      0.0284
    169  CG       -37.1370   31.0520   33.0660 C.3   235  LEU235      0.0019
    170  CD1      -35.9370   30.2800   32.5830 C.3   235  LEU235      0.0001
    171  CD2      -38.4240   30.5230   32.4560 C.3   235  LEU235      0.0001
    172  N        -37.9350   28.9670   36.6080 N.am  236  TYR236     -0.1976
    173  CA       -38.0710   27.5790   37.0520 C.3   236  TYR236      0.1639
    174  C        -39.4850   27.3470   37.5820 C.2   236  TYR236      0.2290
    175  O        -40.1290   26.4150   37.1260 O.2   236  TYR236     -0.2864
    176  CB       -37.0160   27.2530   38.1320 C.3   236  TYR236      0.0560
    177  CG       -37.0530   25.8240   38.6340 C.ar  236  TYR236     -0.0198
    178  CD1      -36.3580   24.8150   37.9780 C.ar  236  TYR236     -0.0009
    179  CD2      -37.7550   25.4860   39.7890 C.ar  236  TYR236     -0.0009
    180  CE1      -36.3800   23.5000   38.4410 C.ar  236  TYR236      0.0417
    181  CE2      -37.7840   24.1720   40.2620 C.ar  236  TYR236      0.0417
    182  CZ       -37.0900   23.1830   39.5870 C.ar  236  TYR236      0.1957
    183  OH       -37.1010   21.8880   40.0500 O.3   236  TYR236     -0.2866
    184  N        -42.3170   26.9320   34.9600 N.3   239  LEU239     -0.1231
    185  CA       -42.2650   25.7140   34.1440 C.3   239  LEU239      0.1693
    186  C        -42.5160   24.4520   34.9440 C.2   239  LEU239      0.2592
    187  O        -43.0210   23.4650   34.3880 O.2   239  LEU239     -0.2718
    188  CB       -40.8790   25.5860   33.4560 C.3   239  LEU239      0.0284
    189  CG       -40.6770   26.1780   32.0470 C.3   239  LEU239      0.0019
    190  CD1      -41.6220   25.5670   31.0140 C.3   239  LEU239      0.0001
    191  CD2      -40.7010   27.6980   32.0550 C.3   239  LEU239      0.0001
    192  N        -42.1300   24.4770   36.2350 N.am  240  PHE240     -0.1976
    193  CA       -42.2240   23.3520   37.1670 C.3   240  PHE240      0.1639
    194  C        -43.3900   23.4880   38.1990 C.2   240  PHE240      0.2290
    195  O        -43.2970   22.9610   39.3130 O.2   240  PHE240     -0.2864
    196  CB       -40.8490   23.1430   37.8450 C.3   240  PHE240      0.0560
    197  CG       -39.7550   22.6820   36.9020 C.ar  240  PHE240     -0.0200
    198  CD1      -39.0680   23.5950   36.0990 C.ar  240  PHE240     -0.0042
    199  CD2      -39.4100   21.3360   36.8120 C.ar  240  PHE240     -0.0042
    200  CE1      -38.0600   23.1700   35.2240 C.ar  240  PHE240     -0.0003
    201  CE2      -38.3970   20.9120   35.9400 C.ar  240  PHE240     -0.0003
    202  CZ       -37.7290   21.8340   35.1520 C.ar  240  PHE240     -0.0000
@<TRIPOS>BOND
     1    89    90    1
     2    90    93    1
     3    90    91    1
     4    93    94    1
     5    91    92    2
     6    84    83    2
     7    83    82    1
     8    86    85    1
     9    86    87    1
    10    82    85    1
    11    82    81    1
    12    79    78    2
    13    95    96    1
    14    78    81   am
    15    78    77    1
    16    87    88    1
    17    76    77    1
    18    27    25    1
    19    77    80    1
    20   101    99    1
    21    96    99    1
    22    96    97    1
    23    99   100    1
    24    26    25    1
    25    97    98    2
    26    25    24    1
    27    70    69    2
    28   109   107    1
    29    69    68    1
    30   108   107    1
    31    62    61    2
    32   102   103    1
    33    42    40    1
    34    59    60    1
    35    60    61    1
    36    60    63    1
    37    61    67   am
    38   107   106    1
    39    24    21    1
    40    66    64    1
    41    21    20    1
    42    21    22    1
    43   106   103    1
    44    67    68    1
    45    68    71    1
    46    35    36    1
    47    40    39    1
    48   103   104    1
    49    36    39    1
    50    36    37    1
    51    23    22    2
    52    64    63    1
    53    64    65    1
    54    52    53    1
    55    71    72    1
    56    22    28   am
    57   118   116   am
    58    38    37    2
    59    72    73    1
    60    39    41    1
    61    37    43   am
    62   110   104   am
    63   110   111    1
    64   104   105    2
    65    53    54    1
    66    53    56    1
    67    73    74    1
    68    74    75    1
    69    54    55    2
    70   116   115    1
    71   116   117    2
    72    13    11   ar
    73    13    14   ar
    74    15    16    1
    75    11     8   ar
    76   114   115    1
    77   114   111    1
    78   190   189    1
    79    28    29    1
    80    43    44    1
    81     1     2    1
    82    45    46    2
    83    45    44    1
    84   111   112    1
    85     2     5    1
    86     2     3    1
    87    58    56    1
    88    16    17    1
    89    16    19    1
    90    56    57    1
    91   112   113    2
    92     5     6    1
    93    44    47    1
    94    30    31    2
    95    30    29    1
    96     4     3    2
    97    18    17    2
    98    14    12   ar
    99    29    32    1
   100   189   191    1
   101   189   188    1
   102     8     6   ar
   103     8    10   ar
   104   171   169    1
   105   170   169    1
   106     6     7   ar
   107   169   168    1
   108    47    48    1
   109    12    10   ar
   110    10     9   ar
   111   188   185    1
   112    32    34    1
   113    32    33    1
   114   119   120    1
   115     7     9   ar
   116    48    49    1
   117   185   186    1
   118   185   184    1
   119   162   160   ar
   120   162   163   ar
   121   187   186    2
   122   160   158   ar
   123   168   165    1
   124   123   120    1
   125   123   124    1
   126   120   121    1
   127   186   192   am
   128    50    49    2
   129   202   200   ar
   130   202   201   ar
   131    49    51   am
   132   167   166    2
   133   200   198   ar
   134   163   161   ar
   135   165   166    1
   136   165   164    1
   137   158   157    1
   138   158   159   ar
   139   166   172   am
   140   135   133    1
   141   157   154    1
   142   124   125    1
   143   201   199   ar
   144   121   122    2
   145   198   197   ar
   146   126   125    2
   147   192   193    1
   148   133   132    1
   149   134   132    1
   150   152   149    1
   151   161   159   ar
   152   172   173    1
   153   125   127   am
   154   199   197   ar
   155   197   196    1
   156   173   174    1
   157   173   176    1
   158   175   174    2
   159   193   196    1
   160   193   194    1
   161   132   129    1
   162   154   153    1
   163   154   155    1
   164   156   155    2
   165   153   150   am
   166   141   140    1
   167   142   140    1
   168   150   149    1
   169   150   151    2
   170   149   148    1
   171   178   180   ar
   172   178   177   ar
   173   140   137    1
   174   176   177    1
   175   194   195    2
   176   148   145   am
   177   128   129    1
   178   180   182   ar
   179   129   130    1
   180   177   179   ar
   181   130   131    2
   182   145   144    1
   183   145   146    2
   184   137   136    1
   185   137   138    1
   186   182   183    1
   187   182   181   ar
   188   144   147    1
   189   144   143    1
   190   179   181   ar
   191   138   139    2
