@<TRIPOS>MOLECULE
tmp/5c4qA00.pdb
 157 158 0 0 0
SMALL
GASTEIGER

@<TRIPOS>ATOM
      1  N          1.9780   29.7000   46.5750 N.3    29  LEU29      -0.1231
      2  CA         2.2240   28.7180   47.6200 C.3    29  LEU29       0.1693
      3  C          2.5140   27.3330   47.0570 C.2    29  LEU29       0.2592
      4  O          2.7420   26.3970   47.8250 O.2    29  LEU29      -0.2718
      5  CB         1.0180   28.6350   48.5580 C.3    29  LEU29       0.0284
      6  CG         0.5990   29.9130   49.2870 C.3    29  LEU29       0.0019
      7  CD1       -0.6000   29.6410   50.2090 C.3    29  LEU29       0.0001
      8  CD2        1.7770   30.4340   50.0700 C.3    29  LEU29       0.0001
      9  N          2.4780   27.2060   45.7290 N.am   30  ALA30      -0.1966
     10  CA         2.5660   25.9060   45.0560 C.3    30  ALA30       0.1728
     11  C          1.4800   24.9620   45.5550 C.2    30  ALA30       0.2616
     12  O          1.6780   23.7400   45.6110 O.2    30  ALA30      -0.2715
     13  CB         3.9480   25.2770   45.2610 C.3    30  ALA30       0.0334
     14  N          0.3280   25.5100   45.9240 N.am   31  MET31      -0.1963
     15  CA        -0.6740   24.6640   46.5490 C.3    31  MET31       0.1736
     16  C         -1.4720   23.8770   45.5130 C.2    31  MET31       0.2616
     17  O         -2.0030   22.8130   45.8100 O.2    31  MET31      -0.2715
     18  CB        -1.6180   25.4890   47.4280 C.3    31  MET31       0.0427
     19  CG        -2.4750   26.5120   46.6990 C.3    31  MET31       0.0599
     20  SD        -3.5070   27.4460   47.8520 S.3    31  MET31      -0.1393
     21  CE        -4.6970   26.1960   48.3520 C.3    31  MET31       0.0692
     22  N         -1.5430   24.3980   44.2950 N.am   32  PHE32      -0.1960
     23  CA        -2.3940   23.8130   43.2690 C.3    32  PHE32       0.1771
     24  C         -1.6180   22.9420   42.2790 C.2    32  PHE32       0.2620
     25  O         -2.1920   22.4230   41.3250 O.2    32  PHE32      -0.2715
     26  CB        -3.1170   24.9240   42.5070 C.3    32  PHE32       0.0574
     27  CG        -4.0640   25.7340   43.3490 C.ar   32  PHE32      -0.0200
     28  CD1       -5.1870   25.1450   43.9280 C.ar   32  PHE32      -0.0042
     29  CD2       -3.8740   27.0970   43.5120 C.ar   32  PHE32      -0.0042
     30  CE1       -6.0770   25.9000   44.6780 C.ar   32  PHE32      -0.0003
     31  CE2       -4.7620   27.8630   44.2620 C.ar   32  PHE32      -0.0003
     32  CZ        -5.8690   27.2710   44.8390 C.ar   32  PHE32      -0.0000
     33  N         -0.3200   22.7890   42.5030 N.am   33  HIS33      -0.1959
     34  CA         0.5520   22.1610   41.5160 C.3    33  HIS33       0.1787
     35  C          0.3260   20.6450   41.3080 C.2    33  HIS33       0.2620
     36  O          0.4150   20.1690   40.1780 O.2    33  HIS33      -0.2715
     37  CB         2.0140   22.4260   41.8870 C.3    33  HIS33       0.0785
     38  CG         2.4600   23.8280   41.5870 C.ar   33  HIS33       0.0821
     39  ND1        3.7650   24.2470   41.7320 N.ar   33  HIS33      -0.2267
     40  CD2        1.7660   24.9070   41.1450 C.ar   33  HIS33       0.1154
     41  CE1        3.8600   25.5190   41.3850 C.ar   33  HIS33       0.1986
     42  NE2        2.6590   25.9430   41.0210 N.ar   33  HIS33      -0.2212
     43  N          0.0440   19.9020   42.3780 N.am   34  TYR34      -0.1960
     44  CA        -0.1090   18.4360   42.3110 C.3    34  TYR34       0.1756
     45  C         -1.3420   17.9860   43.0730 C.2    34  TYR34       0.2461
     46  O         -1.8170   18.7150   43.9350 O.2    34  TYR34      -0.2730
     47  CB         1.1370   17.7300   42.8790 C.3    34  TYR34       0.0574
     48  CG         2.3730   18.2290   42.2110 C.ar   34  TYR34      -0.0198
     49  CD1        2.6560   17.8740   40.9090 C.ar   34  TYR34      -0.0009
     50  CD2        3.2220   19.1210   42.8540 C.ar   34  TYR34      -0.0009
     51  CE1        3.7700   18.3600   40.2680 C.ar   34  TYR34       0.0417
     52  CE2        4.3500   19.6090   42.2190 C.ar   34  TYR34       0.0417
     53  CZ         4.6090   19.2340   40.9280 C.ar   34  TYR34       0.1957
     54  OH         5.7060   19.7260   40.2700 O.3    34  TYR34      -0.2866
     55  N         -1.8580   16.7760   42.7720 N.am   35  PRO35      -0.2716
     56  CA        -2.9130   16.2230   43.6340 C.3    35  PRO35       0.1536
     57  C         -2.4590   16.2450   45.0900 C.2    35  PRO35       0.2598
     58  O         -1.2820   16.0570   45.3720 O.2    35  PRO35      -0.2715
     59  CB        -3.0820   14.7870   43.1300 C.3    35  PRO35       0.0310
     60  CG        -2.5320   14.7880   41.7460 C.3    35  PRO35       0.0237
     61  CD        -1.4850   15.8550   41.6850 C.3    35  PRO35       0.0939
     62  N         -3.3790   16.5310   45.9970 N.am   36  VAL36      -0.1964
     63  CA        -3.0370   16.6400   47.4040 C.3    36  VAL36       0.1727
     64  C         -2.6330   15.2860   47.9750 C.2    36  VAL36       0.2616
     65  O         -3.3110   14.2950   47.7390 O.2    36  VAL36      -0.2715
     66  CB        -4.2150   17.2140   48.2040 C.3    36  VAL36       0.0290
     67  CG1       -4.0580   16.9250   49.6870 C.3    36  VAL36       0.0023
     68  CG2       -4.3450   18.7040   47.9410 C.3    36  VAL36       0.0023
     69  N         -1.5120   15.2470   48.6990 N.am   37  SER37      -0.1950
     70  CA        -1.1610   14.0590   49.4730 C.3    37  SER37       0.1924
     71  C         -1.8050   14.1400   50.8500 C.2    37  SER37       0.2314
     72  O         -1.5530   15.0780   51.6220 O.2    37  SER37      -0.2863
     73  CB         0.3580   13.9050   49.6100 C.3    37  SER37       0.2116
     74  OG         0.9390   13.4210   48.4120 O.3    37  SER37      -0.2180
     75  N          0.1640   15.0420   53.8070 N.3    40  GLU40      -0.1231
     76  CA         0.6250   16.4310   53.9400 C.3    40  GLU40       0.1699
     77  C         -0.5370   17.3580   54.2940 C.2    40  GLU40       0.2592
     78  O         -0.3450   18.4170   54.8920 O.2    40  GLU40      -0.2718
     79  CB         1.3150   16.8990   52.6480 C.3    40  GLU40       0.0402
     80  CG         2.5680   16.0810   52.3090 C.3    40  GLU40       0.1161
     81  CD         3.0980   16.3080   50.9020 C.2    40  GLU40       0.3649
     82  OE1        4.1100   15.6650   50.5580 O.co2  40  GLU40      -0.2457
     83  OE2        2.5130   17.1080   50.1390 O.co2  40  GLU40      -0.2457
     84  N         -1.7430   16.9560   53.9050 N.am   41  VAL41      -0.1980
     85  CA        -2.9470   17.7000   54.2370 C.3    41  VAL41       0.1595
     86  C         -3.9540   16.7080   54.7980 C.2    41  VAL41       0.2287
     87  O         -4.8200   16.2020   54.0790 O.2    41  VAL41      -0.2864
     88  CB        -3.5380   18.4360   53.0140 C.3    41  VAL41       0.0276
     89  CG1       -4.6330   19.3890   53.4480 C.3    41  VAL41       0.0022
     90  CG2       -2.4470   19.1970   52.2640 C.3    41  VAL41       0.0022
     91  N         -7.9290   15.8720   53.9750 N.3    44  TYR44      -0.1241
     92  CA        -8.2750   16.5980   52.7550 C.3    44  TYR44       0.1605
     93  C         -9.4000   15.9100   51.9740 C.2    44  TYR44       0.2264
     94  O        -10.3940   16.5470   51.6110 O.2    44  TYR44      -0.2867
     95  CB        -7.0490   16.7860   51.8520 C.3    44  TYR44       0.0534
     96  CG        -7.3790   17.6170   50.6370 C.ar   44  TYR44      -0.0201
     97  CD1       -7.4570   19.0030   50.7200 C.ar   44  TYR44      -0.0009
     98  CD2       -7.6600   17.0150   49.4150 C.ar   44  TYR44      -0.0009
     99  CE1       -7.7910   19.7710   49.6070 C.ar   44  TYR44       0.0417
    100  CE2       -7.9850   17.7590   48.3060 C.ar   44  TYR44       0.0417
    101  CZ        -8.0540   19.1320   48.4020 C.ar   44  TYR44       0.1957
    102  OH        -8.3940   19.8550   47.2860 O.3    44  TYR44      -0.2866
    103  N         -9.0330   18.3190   42.0120 N.3    52  MET52      -0.1245
    104  CA        -8.5240   18.7990   40.7390 C.3    52  MET52       0.1570
    105  C         -7.2710   19.5990   41.0460 C.2    52  MET52       0.2261
    106  O         -7.1930   20.2600   42.0770 O.2    52  MET52      -0.2867
    107  CB        -9.5640   19.6490   39.9950 C.3    52  MET52       0.0387
    108  CG        -9.1040   20.1050   38.6080 C.3    52  MET52       0.0595
    109  SD        -8.5390   18.7330   37.5660 S.3    52  MET52      -0.1393
    110  CE       -10.0270   17.7240   37.5570 C.3    52  MET52       0.0692
    111  N        -10.5080   24.5820   47.1330 N.3    83  ALA83      -0.1245
    112  CA        -9.6260   25.2620   48.0700 C.3    83  ALA83       0.1562
    113  C        -10.4190   26.2100   48.9490 C.2    83  ALA83       0.2260
    114  O        -10.1420   26.3460   50.1390 O.2    83  ALA83      -0.2867
    115  CB        -8.5240   26.0240   47.3250 C.3    83  ALA83       0.0290
    116  N        -12.4060   23.7950   51.4390 N.3    86  PHE86      -0.1227
    117  CA       -11.5910   23.1050   52.4320 C.3    86  PHE86       0.1736
    118  C        -10.9980   24.0680   53.4460 C.2    86  PHE86       0.2595
    119  O        -10.9720   23.7800   54.6400 O.2    86  PHE86      -0.2718
    120  CB       -10.4720   22.3220   51.7570 C.3    86  PHE86       0.0547
    121  CG        -9.5620   21.5940   52.7190 C.ar   86  PHE86      -0.0202
    122  CD1       -9.9620   20.4060   53.3150 C.ar   86  PHE86      -0.0042
    123  CD2       -8.2950   22.0890   53.0090 C.ar   86  PHE86      -0.0042
    124  CE1       -9.1070   19.7250   54.1940 C.ar   86  PHE86      -0.0003
    125  CE2       -7.4370   21.4180   53.8770 C.ar   86  PHE86      -0.0003
    126  CZ        -7.8440   20.2360   54.4680 C.ar   86  PHE86      -0.0000
    127  N        -10.5330   25.2180   52.9750 N.am   87  ASN87      -0.1960
    128  CA        -9.7550   26.0900   53.8430 C.3    87  ASN87       0.1819
    129  C        -10.5900   27.1040   54.6050 C.2    87  ASN87       0.2621
    130  O        -11.6890   27.4510   54.2020 O.2    87  ASN87      -0.2715
    131  CB        -8.6800   26.8050   53.0300 C.3    87  ASN87       0.1195
    132  CG        -7.6550   25.8470   52.4770 C.2    87  ASN87       0.2630
    133  OD1       -6.8120   25.3220   53.2150 O.2    87  ASN87      -0.2716
    134  ND2       -7.7350   25.5870   51.1750 N.am   87  ASN87      -0.0877
    135  N        -10.0580   27.5610   55.7280 N.am   88  GLU88      -0.1977
    136  CA       -10.7440   28.5510   56.5410 C.3    88  GLU88       0.1602
    137  C        -10.4140   29.9440   56.0330 C.2    88  GLU88       0.2287
    138  O         -9.2660   30.2250   55.6740 O.2    88  GLU88      -0.2864
    139  CB       -10.3460   28.4090   58.0140 C.3    88  GLU88       0.0415
    140  CG       -10.7150   27.0410   58.5630 C.3    88  GLU88       0.1163
    141  CD        -9.5140   26.1120   58.5330 C.2    88  GLU88       0.3649
    142  OE1       -8.4330   26.4920   58.0290 O.co2  88  GLU88      -0.2457
    143  OE2       -9.6550   24.9800   59.0400 O.co2  88  GLU88      -0.2457
    144  N         -3.9160   29.7870   52.4560 N.3    93  TRP93      -0.1241
    145  CA        -4.4820   28.9010   51.4380 C.3    93  TRP93       0.1605
    146  C         -5.7680   29.4800   50.8180 C.2    93  TRP93       0.2264
    147  O         -5.9050   29.5610   49.5970 O.2    93  TRP93      -0.2867
    148  CB        -4.7630   27.5200   52.0380 C.3    93  TRP93       0.0550
    149  CG        -3.6440   26.9620   52.8600 C.ar   93  TRP93       0.0003
    150  CD1       -3.6090   26.8500   54.2210 C.ar   93  TRP93       0.0946
    151  CD2       -2.3970   26.4260   52.3820 C.ar   93  TRP93       0.0152
    152  NE1       -2.4230   26.2790   54.6180 N.ar   93  TRP93      -0.2442
    153  CE2       -1.6590   26.0160   53.5100 C.ar   93  TRP93       0.0810
    154  CE3       -1.8330   26.2600   51.1100 C.ar   93  TRP93       0.0012
    155  CZ2       -0.3860   25.4510   53.4090 C.ar   93  TRP93       0.0191
    156  CZ3       -0.5650   25.7000   51.0120 C.ar   93  TRP93       0.0001
    157  CH2        0.1390   25.2970   52.1560 C.ar   93  TRP93       0.0015
@<TRIPOS>BOND
     1   110   109    1
     2   109   108    1
     3   108   107    1
     4   107   104    1
     5    36    35    2
     6    51    49   ar
     7    51    53   ar
     8    54    53    1
     9   104   105    1
    10   104   103    1
    11    49    48   ar
    12    53    52   ar
    13    42    40   ar
    14    42    41   ar
    15   105   106    2
    16    40    38   ar
    17    35    34    1
    18    35    43   am
    19    25    24    2
    20    41    39   ar
    21    34    37    1
    22    34    33    1
    23    38    39   ar
    24    38    37    1
    25    61    60    1
    26    61    55    1
    27    60    59    1
    28    48    50   ar
    29    48    47    1
    30    52    50   ar
    31    24    33   am
    32    24    23    1
    33    44    43    1
    34    44    47    1
    35    44    45    1
    36    26    23    1
    37    26    27    1
    38    55    45   am
    39    55    56    1
    40    45    46    2
    41    59    56    1
    42    23    22    1
    43    27    29   ar
    44    27    28   ar
    45    29    31   ar
    46    56    57    1
    47    28    30   ar
    48    31    32   ar
    49    22    16   am
    50    30    32   ar
    51    10    13    1
    52    10    11    1
    53    10     9    1
    54    57    58    2
    55    57    62   am
    56    16    17    2
    57    16    15    1
    58    11    12    2
    59    11    14   am
    60     9     3   am
    61    14    15    1
    62    62    63    1
    63    15    18    1
    64     1     2    1
    65    19    18    1
    66    19    20    1
    67     3     2    1
    68     3     4    2
    69   111   112    1
    70   102   101    1
    71   115   112    1
    72    63    64    1
    73    63    66    1
    74     2     5    1
    75    65    64    2
    76    20    21    1
    77    68    66    1
    78    64    69   am
    79   112   113    1
    80    66    67    1
    81   100   101   ar
    82   100    98   ar
    83   101    99   ar
    84    74    73    1
    85     5     6    1
    86    69    70    1
    87   113   114    2
    88     6     8    1
    89     6     7    1
    90    98    96   ar
    91    70    73    1
    92    70    71    1
    93   147   146    2
    94    99    97   ar
    95    83    81   ar
    96    82    81   ar
    97    96    97   ar
    98    96    95    1
    99   146   145    1
   100    71    72    2
   101    81    80    1
   102   156   154   ar
   103   156   157   ar
   104   154   151   ar
   105   134   132   am
   106   145   148    1
   107   145   144    1
   108   116   117    1
   109    94    93    2
   110   120   117    1
   111   120   121    1
   112    95    92    1
   113    93    92    1
   114   148   149    1
   115   157   155   ar
   116    90    88    1
   117    80    79    1
   118   151   149   ar
   119   151   153   ar
   120   117   118    1
   121   132   131    1
   122   132   133    2
   123    79    76    1
   124   121   123   ar
   125   121   122   ar
   126    92    91    1
   127   149   150   ar
   128   127   118   am
   129   127   128    1
   130   123   125   ar
   131    88    89    1
   132    88    85    1
   133   131   128    1
   134   122   124   ar
   135   155   153   ar
   136   118   119    2
   137   153   152   ar
   138    75    76    1
   139   128   129    1
   140   125   126   ar
   141    84    85    1
   142    84    77   am
   143    76    77    1
   144    87    86    2
   145   124   126   ar
   146   130   129    2
   147   150   152   ar
   148    85    86    1
   149    77    78    2
   150   129   135   am
   151   138   137    2
   152   135   136    1
   153   137   136    1
   154   136   139    1
   155   139   140    1
   156   142   141   ar
   157   141   140    1
   158   141   143   ar
