@<TRIPOS>MOLECULE
tmp/5c4qB00.pdb
 132 130 0 0 0
SMALL
GASTEIGER

@<TRIPOS>ATOM
      1  N        -29.8510    4.5630   -3.1890 N.3    28  LEU28      -0.1231
      2  CA       -30.6600    5.5230   -3.9380 C.3    28  LEU28       0.1693
      3  C        -30.0230    6.8980   -3.9420 C.2    28  LEU28       0.2592
      4  O        -30.6040    7.8490   -4.4910 O.2    28  LEU28      -0.2718
      5  CB       -32.0780    5.6150   -3.3560 C.3    28  LEU28       0.0284
      6  CG       -32.8930    4.3080   -3.3350 C.3    28  LEU28       0.0019
      7  CD1      -34.2150    4.4940   -2.5930 C.3    28  LEU28       0.0001
      8  CD2      -33.1450    3.7760   -4.7470 C.3    28  LEU28       0.0001
      9  N        -28.8390    6.9940   -3.3290 N.am   29  ALA29      -0.1966
     10  CA       -28.1760    8.2760   -3.0770 C.3    29  ALA29       0.1728
     11  C        -29.1170    9.2640   -2.4070 C.2    29  ALA29       0.2616
     12  O        -29.0860   10.4600   -2.6960 O.2    29  ALA29      -0.2715
     13  CB       -27.6280    8.8640   -4.3700 C.3    29  ALA29       0.0334
     14  N        -29.9630    8.7820   -1.5090 N.am   30  MET30      -0.1963
     15  CA       -30.9370    9.6850   -0.9070 C.3    30  MET30       0.1736
     16  C        -30.3140   10.5420    0.1850 C.2    30  MET30       0.2616
     17  O        -30.8150   11.6130    0.5060 O.2    30  MET30      -0.2715
     18  CB       -32.1300    8.9110   -0.3420 C.3    30  MET30       0.0427
     19  CG       -31.7790    7.8910    0.7010 C.3    30  MET30       0.0599
     20  SD       -33.2340    6.9430    1.2050 S.3    30  MET30      -0.1393
     21  CE       -34.1940    8.2090    2.0560 C.3    30  MET30       0.0692
     22  N        -29.2090   10.0630    0.7480 N.am   31  PHE31      -0.1974
     23  CA       -28.6230   10.6800    1.9160 C.3    31  PHE31       0.1639
     24  C        -27.3630   11.4900    1.6030 C.2    31  PHE31       0.2290
     25  O        -26.7040   11.9760    2.5170 O.2    31  PHE31      -0.2864
     26  CB       -28.2700    9.6050    2.9400 C.3    31  PHE31       0.0560
     27  CG       -29.4530    8.8820    3.5160 C.ar   31  PHE31      -0.0200
     28  CD1      -30.4550    9.5680    4.1760 C.ar   31  PHE31      -0.0042
     29  CD2      -29.5280    7.5020    3.4560 C.ar   31  PHE31      -0.0042
     30  CE1      -31.5180    8.8880    4.7630 C.ar   31  PHE31      -0.0003
     31  CE2      -30.5970    6.8160    4.0250 C.ar   31  PHE31      -0.0003
     32  CZ       -31.5860    7.5100    4.6890 C.ar   31  PHE31      -0.0000
     33  N        -26.6980   14.4650    0.0030 N.3    33  TYR33      -0.1241
     34  CA       -26.6920   15.9260    0.1290 C.3    33  TYR33       0.1605
     35  C        -27.9540   16.4090    0.8600 C.2    33  TYR33       0.2264
     36  O        -28.9320   15.6740    0.9510 O.2    33  TYR33      -0.2867
     37  CB       -26.5720   16.5790   -1.2650 C.3    33  TYR33       0.0534
     38  CG       -25.3960   16.0440   -2.0660 C.ar   33  TYR33      -0.0201
     39  CD1      -24.0940   16.3680   -1.7110 C.ar   33  TYR33      -0.0009
     40  CD2      -25.5880   15.2170   -3.1690 C.ar   33  TYR33      -0.0009
     41  CE1      -23.0160   15.8780   -2.4210 C.ar   33  TYR33       0.0417
     42  CE2      -24.5140   14.7120   -3.8890 C.ar   33  TYR33       0.0417
     43  CZ       -23.2250   15.0460   -3.5030 C.ar   33  TYR33       0.1957
     44  OH       -22.1390   14.5590   -4.1860 O.3    33  TYR33      -0.2866
     45  N        -31.5010   17.8530    1.3940 N.3    35  VAL35      -0.1245
     46  CA       -32.6740   17.7200    0.5360 C.3    35  VAL35       0.1561
     47  C        -33.0040   19.0490   -0.0960 C.2    35  VAL35       0.2260
     48  O        -32.9950   20.0660    0.5890 O.2    35  VAL35      -0.2867
     49  CB       -33.8920   17.2230    1.3360 C.3    35  VAL35       0.0252
     50  CG1      -35.1860   17.4640    0.5600 C.3    35  VAL35       0.0019
     51  CG2      -33.7300   15.7430    1.6790 C.3    35  VAL35       0.0019
     52  N        -36.9950   19.1800   -5.1400 N.3    39  GLU39      -0.1231
     53  CA       -36.8660   17.7780   -5.5650 C.3    39  GLU39       0.1699
     54  C        -37.6760   16.8130   -4.6790 C.2    39  GLU39       0.2592
     55  O        -38.0210   15.7000   -5.0840 O.2    39  GLU39      -0.2718
     56  CB       -35.3930   17.3770   -5.5770 C.3    39  GLU39       0.0402
     57  CG       -34.5840   18.2160   -6.5790 C.3    39  GLU39       0.1161
     58  CD       -33.0760   18.0520   -6.4710 C.2    39  GLU39       0.3649
     59  OE1      -32.5760   17.3090   -5.5820 O.co2  39  GLU39      -0.2457
     60  OE2      -32.3850   18.6840   -7.2990 O.co2  39  GLU39      -0.2457
     61  N        -37.9600   17.2510   -3.4610 N.am   40  VAL40      -0.1966
     62  CA       -38.7470   16.4850   -2.5110 C.3    40  VAL40       0.1712
     63  C        -39.7190   17.4900   -1.9310 C.2    40  VAL40       0.2458
     64  O        -39.4610   18.0750   -0.8870 O.2    40  VAL40      -0.2730
     65  CB       -37.8750   15.8390   -1.3890 C.3    40  VAL40       0.0289
     66  CG1      -38.6920   14.8530   -0.5870 C.3    40  VAL40       0.0023
     67  CG2      -36.6520   15.1480   -1.9720 C.3    40  VAL40       0.0023
     68  N        -40.8120   17.7640   -2.6580 N.am   41  PRO41      -0.2727
     69  CA       -41.7410   18.8030   -2.2080 C.3    41  PRO41       0.1402
     70  C        -42.3600   18.4800   -0.8540 C.2    41  PRO41       0.2269
     71  O        -42.6930   17.3330   -0.5820 O.2    41  PRO41      -0.2865
     72  CB       -42.7990   18.8240   -3.3210 C.3    41  PRO41       0.0296
     73  CG       -42.0550   18.3630   -4.5370 C.3    41  PRO41       0.0237
     74  CD       -41.1230   17.3000   -4.0230 C.3    41  PRO41       0.0939
     75  N        -40.8250   18.6060    1.9720 N.3    43  TYR43      -0.1241
     76  CA       -39.8800   17.9730    2.8800 C.3    43  TYR43       0.1605
     77  C        -39.6210   18.7940    4.1460 C.2    43  TYR43       0.2264
     78  O        -39.5610   18.2430    5.2440 O.2    43  TYR43      -0.2867
     79  CB       -38.5510   17.6970    2.1800 C.3    43  TYR43       0.0534
     80  CG       -37.5790   16.9550    3.0760 C.ar   43  TYR43      -0.0201
     81  CD1      -37.6670   15.5740    3.2340 C.ar   43  TYR43      -0.0009
     82  CD2      -36.5900   17.6300    3.7760 C.ar   43  TYR43      -0.0009
     83  CE1      -36.7900   14.8880    4.0530 C.ar   43  TYR43       0.0417
     84  CE2      -35.7020   16.9460    4.6060 C.ar   43  TYR43       0.0417
     85  CZ       -35.8080   15.5750    4.7380 C.ar   43  TYR43       0.1957
     86  OH       -34.9360   14.8940    5.5720 O.3    43  TYR43      -0.2866
     87  N        -30.4040   16.3870    8.2400 N.3    51  MET51      -0.1245
     88  CA       -29.0390   15.9080    8.3950 C.3    51  MET51       0.1570
     89  C        -28.7690   15.0180    7.2100 C.2    51  MET51       0.2261
     90  O        -29.6630   14.3060    6.7860 O.2    51  MET51      -0.2867
     91  CB       -28.8670   15.1600    9.7060 C.3    51  MET51       0.0387
     92  CG       -27.4340   14.6050    9.9470 C.3    51  MET51       0.0595
     93  SD       -26.1520   15.8830    9.8810 S.3    51  MET51      -0.1393
     94  CE       -26.8370   17.0510   11.0390 C.3    51  MET51       0.0692
     95  N        -35.6270   10.1810    7.6900 N.3    82  ALA82      -0.1245
     96  CA       -36.1140    9.4490    6.5230 C.3    82  ALA82       0.1562
     97  C        -37.3020    8.5780    6.8870 C.2    82  ALA82       0.2260
     98  O        -38.3250    8.5960    6.2050 O.2    82  ALA82      -0.2867
     99  CB       -35.0040    8.6080    5.9180 C.3    82  ALA82       0.0290
    100  N        -40.3210   11.0040    7.4170 N.3    85  PHE85      -0.1227
    101  CA       -40.8840   11.6750    6.2570 C.3    85  PHE85       0.1736
    102  C        -41.5170   10.7050    5.2770 C.2    85  PHE85       0.2595
    103  O        -42.5780   10.9790    4.7200 O.2    85  PHE85      -0.2718
    104  CB       -39.8220   12.4900    5.5320 C.3    85  PHE85       0.0547
    105  CG       -40.3030   13.0810    4.2380 C.ar   85  PHE85      -0.0202
    106  CD1      -41.1250   14.1980    4.2370 C.ar   85  PHE85      -0.0042
    107  CD2      -39.9320   12.5190    3.0220 C.ar   85  PHE85      -0.0042
    108  CE1      -41.5780   14.7420    3.0400 C.ar   85  PHE85      -0.0003
    109  CE2      -40.3730   13.0560    1.8270 C.ar   85  PHE85      -0.0003
    110  CZ       -41.1990   14.1730    1.8370 C.ar   85  PHE85      -0.0000
    111  N        -40.8660    9.5700    5.0640 N.am   86  ASN86      -0.1974
    112  CA       -41.3030    8.6430    4.0250 C.3    86  ASN86       0.1688
    113  C        -42.3690    7.6700    4.4960 C.2    86  ASN86       0.2292
    114  O        -42.3980    7.2910    5.6590 O.2    86  ASN86      -0.2864
    115  CB       -40.1120    7.8620    3.4820 C.3    86  ASN86       0.1181
    116  CG       -39.1460    8.7400    2.7530 C.2    86  ASN86       0.2629
    117  OD1      -39.3930    9.1410    1.6110 O.2    86  ASN86      -0.2716
    118  ND2      -38.0290    9.0690    3.4140 N.am   86  ASN86      -0.0877
    119  N        -37.7390    4.6190   -0.4510 N.3    92  TRP92      -0.1241
    120  CA       -36.9930    5.4990    0.4500 C.3    92  TRP92       0.1605
    121  C        -37.0390    4.9660    1.8760 C.2    92  TRP92       0.2264
    122  O        -36.0290    4.9440    2.5810 O.2    92  TRP92      -0.2867
    123  CB       -37.5590    6.9280    0.4150 C.3    92  TRP92       0.0550
    124  CG       -37.8020    7.4640   -0.9570 C.ar   92  TRP92       0.0003
    125  CD1      -39.0230    7.6450   -1.5690 C.ar   92  TRP92       0.0946
    126  CD2      -36.8120    7.8870   -1.9070 C.ar   92  TRP92       0.0152
    127  NE1      -38.8380    8.1500   -2.8260 N.ar   92  TRP92      -0.2442
    128  CE2      -37.4960    8.3100   -3.0610 C.ar   92  TRP92       0.0810
    129  CE3      -35.4140    7.9420   -1.8950 C.ar   92  TRP92       0.0012
    130  CZ2      -36.8330    8.7950   -4.1860 C.ar   92  TRP92       0.0191
    131  CZ3      -34.7520    8.4300   -3.0200 C.ar   92  TRP92       0.0001
    132  CH2      -35.4610    8.8420   -4.1480 C.ar   92  TRP92       0.0015
@<TRIPOS>BOND
     1    60    58   ar
     2    57    58    1
     3    57    56    1
     4    58    59   ar
     5    56    53    1
     6    53    52    1
     7    53    54    1
     8    55    54    2
     9     8     6    1
    10    54    61   am
    11    73    74    1
    12    73    72    1
    13     4     3    2
    14    13    10    1
    15   130   132   ar
    16   130   128   ar
    17    44    43    1
    18   132   131   ar
    19    74    68    1
    20     3     2    1
    21     3     9   am
    22     2     5    1
    23     2     1    1
    24    42    43   ar
    25    42    40   ar
    26    43    41   ar
    27    61    62    1
    28     5     6    1
    29     6     7    1
    30     9    10    1
    31    72    69    1
    32    40    38   ar
    33    10    11    1
    34   128   127   ar
    35   128   126   ar
    36   131   129   ar
    37   127   125   ar
    38    12    11    2
    39    68    69    1
    40    68    63   am
    41    62    63    1
    42    62    65    1
    43    41    39   ar
    44    11    14   am
    45    69    70    1
    46    38    39   ar
    47    38    37    1
    48    67    65    1
    49    63    64    2
    50   126   129   ar
    51   126   124   ar
    52   125   124   ar
    53    14    15    1
    54    65    66    1
    55    37    34    1
    56   124   123    1
    57    15    18    1
    58    15    16    1
    59    70    71    2
    60   119   120    1
    61    18    19    1
    62    47    46    1
    63    47    48    2
    64    33    34    1
    65    34    35    1
    66    16    17    2
    67    16    22   am
    68   123   120    1
    69   120   121    1
    70    46    49    1
    71    46    45    1
    72    50    49    1
    73    19    20    1
    74    22    23    1
    75    35    36    2
    76    20    21    1
    77    49    51    1
    78    24    23    1
    79    24    25    2
    80   117   116    2
    81   109   110   ar
    82   109   107   ar
    83   110   108   ar
    84   121   122    2
    85    23    26    1
    86    75    76    1
    87    79    76    1
    88    79    80    1
    89   116   118   am
    90   116   115    1
    91    76    77    1
    92    26    27    1
    93   107   105   ar
    94   108   106   ar
    95    80    81   ar
    96    80    82   ar
    97    81    83   ar
    98    29    27   ar
    99    29    31   ar
   100   115   112    1
   101    27    28   ar
   102    82    84   ar
   103    31    32   ar
   104   112   113    1
   105   112   111    1
   106    83    85   ar
   107    77    78    2
   108    28    30   ar
   109   106   105   ar
   110   105   104    1
   111   113   114    2
   112    84    85   ar
   113    32    30   ar
   114   103   102    2
   115    85    86    1
   116   111   102   am
   117   102   101    1
   118   104   101    1
   119    99    96    1
   120    98    97    2
   121   101   100    1
   122    96    97    1
   123    96    95    1
   124    90    89    2
   125    89    88    1
   126    87    88    1
   127    88    91    1
   128    91    92    1
   129    93    92    1
   130    93    94    1
