@<TRIPOS>MOLECULE
tmp/5c4uA00.pdb
 196 186 0 0 0
SMALL
GASTEIGER

@<TRIPOS>ATOM
      1  N        -35.1600    8.3990   31.9340 N.3    51  TRP51      -0.1241
      2  CA       -35.8030    9.6870   32.1850 C.3    51  TRP51       0.1605
      3  C        -34.8760   10.5620   33.0280 C.2    51  TRP51       0.2264
      4  O        -34.7190   11.7450   32.7320 O.2    51  TRP51      -0.2867
      5  CB       -37.1940    9.5420   32.8400 C.3    51  TRP51       0.0550
      6  CG       -37.6720   10.7560   33.5860 C.ar   51  TRP51       0.0003
      7  CD1      -37.9480   10.8350   34.9180 C.ar   51  TRP51       0.0946
      8  CD2      -37.8860   12.0820   33.0490 C.ar   51  TRP51       0.0152
      9  NE1      -38.3330   12.1180   35.2460 N.ar   51  TRP51      -0.2442
     10  CE2      -38.3290   12.8970   34.1160 C.ar   51  TRP51       0.0810
     11  CE3      -37.7660   12.6520   31.7590 C.ar   51  TRP51       0.0012
     12  CZ2      -38.6180   14.2640   33.9520 C.ar   51  TRP51       0.0191
     13  CZ3      -38.0750   14.0010   31.5950 C.ar   51  TRP51       0.0001
     14  CH2      -38.4970   14.7900   32.6820 C.ar   51  TRP51       0.0015
     15  N        -33.5160   13.9380   31.6740 N.3    55  ALA55      -0.1245
     16  CA       -34.0070   15.0970   32.4270 C.3    55  ALA55       0.1562
     17  C        -32.8300   15.9600   32.9070 C.2    55  ALA55       0.2260
     18  O        -32.9040   17.1790   32.7830 O.2    55  ALA55      -0.2867
     19  CB       -34.8320   14.6640   33.6420 C.3    55  ALA55       0.0290
     20  N        -31.1700   17.7280   29.8910 N.3    58  LEU58      -0.1231
     21  CA       -32.0430   18.8000   29.4110 C.3    58  LEU58       0.1693
     22  C        -32.1030   19.9610   30.3680 C.2    58  LEU58       0.2592
     23  O        -32.1250   21.0970   29.9100 O.2    58  LEU58      -0.2718
     24  CB       -33.4490   18.2970   29.0530 C.3    58  LEU58       0.0284
     25  CG       -33.4990   17.4180   27.8030 C.3    58  LEU58       0.0019
     26  CD1      -34.8650   16.7390   27.6850 C.3    58  LEU58       0.0001
     27  CD2      -33.1420   18.2240   26.5260 C.3    58  LEU58       0.0001
     28  N        -32.1140   19.7050   31.6980 N.am   59  THR59      -0.1953
     29  CA       -32.1330   20.8280   32.6500 C.3    59  THR59       0.1897
     30  C        -30.8300   21.6300   32.6080 C.2    59  THR59       0.2313
     31  O        -30.8820   22.8430   32.6720 O.2    59  THR59      -0.2863
     32  CB       -32.5100   20.4310   34.0800 C.3    59  THR59       0.1794
     33  OG1      -31.5220   19.5620   34.6000 O.3    59  THR59      -0.2208
     34  CG2      -33.8820   19.8210   34.1780 C.3    59  THR59       0.0378
     35  N        -30.9400   23.7880   29.5340 N.3    62  ILE62      -0.1231
     36  CA       -31.7760   24.9810   29.7460 C.3    62  ILE62       0.1692
     37  C        -31.0090   26.0050   30.5800 C.2    62  ILE62       0.2591
     38  O        -31.0920   27.2090   30.3280 O.2    62  ILE62      -0.2718
     39  CB       -33.1470   24.6500   30.4150 C.3    62  ILE62       0.0266
     40  CG1      -34.1100   23.9100   29.4580 C.3    62  ILE62       0.0019
     41  CG2      -33.7870   25.8750   31.0270 C.3    62  ILE62       0.0020
     42  CD1      -34.8650   24.8100   28.3570 C.3    62  ILE62       0.0001
     43  N        -30.2920   25.5190   31.6020 N.am   63  GLN63      -0.1979
     44  CA       -29.5200   26.3760   32.5010 C.3    63  GLN63       0.1601
     45  C        -28.4660   27.2080   31.7390 C.2    63  GLN63       0.2287
     46  O        -28.2990   28.3780   32.0310 O.2    63  GLN63      -0.2864
     47  CB       -28.9360   25.5470   33.6450 C.3    63  GLN63       0.0394
     48  CG       -30.0300   25.2520   34.6840 C.3    63  GLN63       0.0908
     49  CD       -29.5580   24.4290   35.8570 C.2    63  GLN63       0.2608
     50  OE1      -28.5150   23.7760   35.7980 O.2    63  GLN63      -0.2717
     51  NE2      -30.3290   24.4470   36.9450 N.am   63  GLN63      -0.0878
     52  N        -30.4720   29.9700   29.9580 N.3    66  VAL66      -0.1245
     53  CA       -30.8890   31.0230   30.9080 C.3    66  VAL66       0.1561
     54  C        -29.6890   31.9920   31.0830 C.2    66  VAL66       0.2260
     55  O        -29.8790   33.2080   31.1270 O.2    66  VAL66      -0.2867
     56  CB       -31.3170   30.3680   32.2540 C.3    66  VAL66       0.0252
     57  CG1      -31.5220   31.3980   33.3610 C.3    66  VAL66       0.0019
     58  CG2      -32.5770   29.5130   32.0680 C.3    66  VAL66       0.0019
     59  N        -38.2320   33.3250   28.3900 N.3    87  LEU87      -0.1231
     60  CA       -37.5440   32.0860   28.7090 C.3    87  LEU87       0.1693
     61  C        -38.4930   30.8750   28.7130 C.2    87  LEU87       0.2591
     62  O        -38.1200   29.8220   28.1970 O.2    87  LEU87      -0.2718
     63  CB       -36.7530   32.2280   30.0110 C.3    87  LEU87       0.0284
     64  CG       -35.4810   33.0820   29.9280 C.3    87  LEU87       0.0019
     65  CD1      -34.8850   33.2980   31.3140 C.3    87  LEU87       0.0001
     66  CD2      -34.4360   32.4650   28.9940 C.3    87  LEU87       0.0001
     67  N        -39.7370   31.0460   29.2070 N.am   88  LYS88      -0.1980
     68  CA       -40.7370   29.9650   29.2550 C.3    88  LYS88       0.1596
     69  C        -41.0230   29.4750   27.8580 C.2    88  LYS88       0.2287
     70  O        -40.9690   28.2820   27.6080 O.2    88  LYS88      -0.2864
     71  CB       -42.0380   30.4270   29.9640 C.3    88  LYS88       0.0298
     72  CG       -43.0660   29.3200   30.2280 C.3    88  LYS88       0.0038
     73  CD       -44.1800   29.8230   31.1310 C.3    88  LYS88       0.0206
     74  CE       -45.0240   28.7260   31.7270 C.3    88  LYS88       0.1093
     75  NZ       -45.9390   29.2560   32.7760 N.3    88  LYS88      -0.1314
     76  N        -36.5950   29.2090   25.9340 N.3    91  ALA91      -0.1231
     77  CA       -35.4030   28.4680   26.3580 C.3    91  ALA91       0.1694
     78  C        -35.3360   27.0720   25.7570 C.2    91  ALA91       0.2591
     79  O        -34.2700   26.6760   25.2820 O.2    91  ALA91      -0.2718
     80  CB       -35.2820   28.4170   27.8750 C.3    91  ALA91       0.0304
     81  N        -36.4730   26.3250   25.7240 N.am   92  MET92      -0.1979
     82  CA       -36.4190   24.9740   25.1580 C.3    92  MET92       0.1605
     83  C        -36.2710   25.0010   23.6490 C.2    92  MET92       0.2287
     84  O        -35.6550   24.0970   23.0880 O.2    92  MET92      -0.2864
     85  CB       -37.5910   24.0740   25.6160 C.3    92  MET92       0.0413
     86  CG       -37.4390   22.5910   25.1180 C.3    92  MET92       0.0598
     87  SD       -35.9100   21.7920   25.6870 S.3    92  MET92      -0.1393
     88  CE       -36.2950   21.5100   27.3580 C.3    92  MET92       0.0692
     89  N        -41.9500   19.8370   25.6290 N.3   214  VAL214     -0.1245
     90  CA       -42.1650   20.3010   27.0020 C.3   214  VAL214      0.1561
     91  C        -43.3640   19.5870   27.6490 C.2   214  VAL214      0.2260
     92  O        -43.2930   19.2370   28.8280 O.2   214  VAL214     -0.2867
     93  CB       -42.2590   21.8350   27.1430 C.3   214  VAL214      0.0252
     94  CG1      -42.4970   22.2290   28.5970 C.3   214  VAL214      0.0019
     95  CG2      -40.9920   22.5110   26.6160 C.3   214  VAL214      0.0019
     96  N        -42.1690   16.1830   28.7070 N.3   217  LEU217     -0.1231
     97  CA       -41.2670   16.4090   29.8360 C.3   217  LEU217      0.1693
     98  C        -42.0840   16.6340   31.0890 C.2   217  LEU217      0.2591
     99  O        -41.7440   16.1080   32.1520 O.2   217  LEU217     -0.2718
    100  CB       -40.3920   17.6500   29.5310 C.3   217  LEU217      0.0284
    101  CG       -38.9330   17.4560   29.0630 C.3   217  LEU217      0.0019
    102  CD1      -38.6270   16.1030   28.4420 C.3   217  LEU217      0.0001
    103  CD2      -38.4500   18.6390   28.2150 C.3   217  LEU217      0.0001
    104  N        -43.1960   17.3900   30.9510 N.am  218  GLN218     -0.1979
    105  CA       -44.1210   17.6810   32.0490 C.3   218  GLN218      0.1601
    106  C        -44.8260   16.4110   32.5590 C.2   218  GLN218      0.2287
    107  O        -44.9710   16.2590   33.7740 O.2   218  GLN218     -0.2864
    108  CB       -45.1010   18.7930   31.6630 C.3   218  GLN218      0.0394
    109  CG       -44.3730   20.1540   31.6090 C.3   218  GLN218      0.0908
    110  CD       -45.2180   21.3810   31.3660 C.2   218  GLN218      0.2608
    111  OE1      -45.2480   22.2970   32.1960 O.2   218  GLN218     -0.2717
    112  NE2      -45.8960   21.4530   30.2190 N.am  218  GLN218     -0.0878
    113  N        -42.1770   14.3980   34.4130 N.3   221  GLN221     -0.1245
    114  CA       -41.9030   15.1140   35.6550 C.3   221  GLN221      0.1566
    115  C        -43.0160   14.8750   36.6930 C.2   221  GLN221      0.2260
    116  O        -42.7430   14.8650   37.8980 O.2   221  GLN221     -0.2867
    117  CB       -41.7000   16.6210   35.4040 C.3   221  GLN221      0.0367
    118  CG       -41.4070   17.4410   36.6700 C.3   221  GLN221      0.0905
    119  CD       -40.1090   17.1050   37.3750 C.2   221  GLN221      0.2608
    120  OE1      -39.2530   16.3610   36.8910 O.2   221  GLN221     -0.2717
    121  NE2      -39.9340   17.6520   38.5570 N.am  221  GLN221     -0.0878
    122  N        -38.0070   15.0690   39.2550 N.3   226  ILE226     -0.1245
    123  CA       -36.5860   15.3060   39.4840 C.3   226  ILE226      0.1561
    124  C        -36.5400   16.7040   40.1180 C.2   226  ILE226      0.2260
    125  O        -37.3360   17.5730   39.7460 O.2   226  ILE226     -0.2867
    126  CB       -35.6890   15.2010   38.1930 C.3   226  ILE226      0.0252
    127  CG1      -35.9820   16.3520   37.1640 C.3   226  ILE226      0.0019
    128  CG2      -35.7610   13.8080   37.5280 C.3   226  ILE226      0.0019
    129  CD1      -34.7060   17.0830   36.5690 C.3   226  ILE226      0.0001
    130  N        -34.4070   20.2200   40.8910 N.3   228  VAL228     -0.1245
    131  CA       -33.2660   20.9240   40.3190 C.3   228  VAL228      0.1561
    132  C        -32.9670   22.1840   41.1470 C.2   228  VAL228      0.2260
    133  O        -33.8860   22.8450   41.6330 O.2   228  VAL228     -0.2867
    134  CB       -33.3580   21.1560   38.7600 C.3   228  VAL228      0.0252
    135  CG1      -34.6250   20.5400   38.1410 C.3   228  VAL228      0.0019
    136  CG2      -33.1760   22.6180   38.3400 C.3   228  VAL228      0.0019
    137  N        -32.4220   25.4840   41.0180 N.3   230  ALA230     -0.1231
    138  CA       -32.8070   26.5540   40.1100 C.3   230  ALA230      0.1694
    139  C        -31.8380   27.7140   39.9950 C.2   230  ALA230      0.2592
    140  O        -31.4710   28.3410   40.9910 O.2   230  ALA230     -0.2718
    141  CB       -34.1800   27.0810   40.4820 C.3   230  ALA230      0.0304
    142  N        -31.4470   28.0000   38.7520 N.am  231  ALA231     -0.1966
    143  CA       -30.5850   29.1120   38.3930 C.3   231  ALA231      0.1728
    144  C        -31.4760   30.3770   38.3730 C.2   231  ALA231      0.2616
    145  O        -31.0930   31.4060   38.9210 O.2   231  ALA231     -0.2715
    146  CB       -29.9710   28.8620   37.0280 C.3   231  ALA231      0.0334
    147  N        -32.6860   30.2680   37.7930 N.am  232  PHE232     -0.1974
    148  CA       -33.6860   31.3320   37.6990 C.3   232  PHE232      0.1639
    149  C        -34.9850   30.8750   38.4020 C.2   232  PHE232      0.2290
    150  O        -35.9430   30.4440   37.7380 O.2   232  PHE232     -0.2864
    151  CB       -33.9110   31.7430   36.2240 C.3   232  PHE232      0.0560
    152  CG       -34.7060   33.0120   35.9960 C.ar  232  PHE232     -0.0200
    153  CD1      -34.6280   34.0780   36.8890 C.ar  232  PHE232     -0.0042
    154  CD2      -35.5010   33.1580   34.8680 C.ar  232  PHE232     -0.0042
    155  CE1      -35.3750   35.2410   36.6810 C.ar  232  PHE232     -0.0003
    156  CE2      -36.2330   34.3280   34.6520 C.ar  232  PHE232     -0.0003
    157  CZ       -36.1660   35.3590   35.5620 C.ar  232  PHE232     -0.0000
    158  N        -38.7370   31.4400   37.0060 N.3   235  LEU235     -0.1231
    159  CA       -38.9940   30.6570   35.7870 C.3   235  LEU235      0.1693
    160  C        -39.2480   29.2110   36.2610 C.2   235  LEU235      0.2592
    161  O        -40.2640   28.6170   35.8960 O.2   235  LEU235     -0.2718
    162  CB       -37.7590   30.6810   34.8400 C.3   235  LEU235      0.0284
    163  CG       -37.9260   30.4950   33.3080 C.3   235  LEU235      0.0019
    164  CD1      -36.7760   29.7020   32.7290 C.3   235  LEU235      0.0001
    165  CD2      -39.2610   29.8950   32.8920 C.3   235  LEU235      0.0001
    166  N        -38.3210   28.6630   37.0800 N.am  236  TYR236     -0.1976
    167  CA       -38.4020   27.3170   37.6580 C.3   236  TYR236      0.1639
    168  C        -39.7930   27.0470   38.2870 C.2   236  TYR236      0.2290
    169  O        -40.3900   26.0140   38.0000 O.2   236  TYR236     -0.2864
    170  CB       -37.2770   27.1230   38.6810 C.3   236  TYR236      0.0560
    171  CG       -37.1690   25.7190   39.2440 C.ar  236  TYR236     -0.0198
    172  CD1      -36.6400   24.6800   38.4840 C.ar  236  TYR236     -0.0009
    173  CD2      -37.5520   25.4400   40.5520 C.ar  236  TYR236     -0.0009
    174  CE1      -36.5340   23.3880   38.9990 C.ar  236  TYR236      0.0417
    175  CE2      -37.4410   24.1530   41.0820 C.ar  236  TYR236      0.0417
    176  CZ       -36.9340   23.1280   40.3020 C.ar  236  TYR236      0.1957
    177  OH       -36.8200   21.8590   40.8290 O.3   236  TYR236     -0.2866
    178  N        -42.8040   26.0910   35.8090 N.3   239  LEU239     -0.1231
    179  CA       -42.8100   24.7790   35.1310 C.3   239  LEU239      0.1693
    180  C        -42.8270   23.6050   36.1180 C.2   239  LEU239      0.2592
    181  O        -43.4540   22.5740   35.8530 O.2   239  LEU239     -0.2718
    182  CB       -41.6000   24.6400   34.1990 C.3   239  LEU239      0.0284
    183  CG       -41.5140   25.6670   33.1090 C.3   239  LEU239      0.0019
    184  CD1      -40.2160   26.3660   33.1740 C.3   239  LEU239      0.0001
    185  CD2      -41.7680   25.0560   31.7620 C.3   239  LEU239      0.0001
    186  N        -42.1210   23.7700   37.2490 N.am  240  PHE240     -0.1976
    187  CA       -41.9900   22.7850   38.3140 C.3   240  PHE240      0.1639
    188  C        -43.0400   23.0320   39.4400 C.2   240  PHE240      0.2290
    189  O        -42.8110   22.6890   40.6100 O.2   240  PHE240     -0.2864
    190  CB       -40.5250   22.7480   38.8150 C.3   240  PHE240      0.0560
    191  CG       -39.5320   22.1400   37.8400 C.ar  240  PHE240     -0.0200
    192  CD1      -39.0910   22.8530   36.7260 C.ar  240  PHE240     -0.0042
    193  CD2      -39.0220   20.8620   38.0450 C.ar  240  PHE240     -0.0042
    194  CE1      -38.1670   22.2930   35.8330 C.ar  240  PHE240     -0.0003
    195  CE2      -38.1080   20.2980   37.1450 C.ar  240  PHE240     -0.0003
    196  CZ       -37.6800   21.0210   36.0490 C.ar  240  PHE240     -0.0000
@<TRIPOS>BOND
     1    84    83    2
     2    83    82    1
     3    86    85    1
     4    86    87    1
     5    82    85    1
     6    82    81    1
     7    79    78    2
     8    89    90    1
     9    87    88    1
    10    81    78   am
    11    78    77    1
    12    76    77    1
    13    77    80    1
    14    27    25    1
    15    95    93    1
    16    90    93    1
    17    90    91    1
    18    93    94    1
    19    70    69    2
    20    91    92    2
    21    26    25    1
    22    25    24    1
    23    69    68    1
    24    62    61    2
    25   103   101    1
    26    42    40    1
    27    59    60    1
    28   102   101    1
    29    96    97    1
    30    60    61    1
    31    60    63    1
    32    61    67   am
    33    66    64    1
    34    24    21    1
    35   101   100    1
    36    67    68    1
    37    68    71    1
    38    21    20    1
    39    21    22    1
    40    40    39    1
    41   100    97    1
    42    35    36    1
    43    36    39    1
    44    36    37    1
    45    97    98    1
    46    23    22    2
    47    64    63    1
    48    64    65    1
    49    52    53    1
    50    71    72    1
    51   112   110   am
    52    72    73    1
    53    38    37    2
    54    22    28   am
    55    39    41    1
    56    37    43   am
    57    53    54    1
    58    53    56    1
    59   104    98   am
    60   104   105    1
    61    54    55    2
    62    98    99    2
    63    73    74    1
    64   110   109    1
    65   110   111    2
    66    13    11   ar
    67    13    14   ar
    68    43    44    1
    69   109   108    1
    70   108   105    1
    71    15    16    1
    72    28    29    1
    73    74    75    1
    74    45    46    2
    75    45    44    1
    76    11     8   ar
    77   185   183    1
    78     1     2    1
    79   105   106    1
    80    58    56    1
    81     2     5    1
    82     2     3    1
    83    56    57    1
    84    16    17    1
    85    16    19    1
    86    44    47    1
    87   106   107    2
    88    30    29    1
    89    30    31    2
    90    29    32    1
    91    14    12   ar
    92   164   163    1
    93     4     3    2
    94    18    17    2
    95     5     6    1
    96   165   163    1
    97     8     6   ar
    98     8    10   ar
    99   183   184    1
   100   183   182    1
   101   163   162    1
   102     6     7   ar
   103    47    48    1
   104    12    10   ar
   105    32    34    1
   106    32    33    1
   107    10     9   ar
   108   182   179    1
   109   113   114    1
   110   156   154   ar
   111   156   157   ar
   112    48    49    1
   113   162   159    1
   114   154   152   ar
   115     7     9   ar
   116   179   178    1
   117   179   180    1
   118   117   114    1
   119   117   118    1
   120   157   155   ar
   121   114   115    1
   122   159   160    1
   123   159   158    1
   124    50    49    2
   125   194   196   ar
   126   194   192   ar
   127   181   180    2
   128    49    51   am
   129   161   160    2
   130   152   151    1
   131   152   153   ar
   132   196   195   ar
   133   180   186   am
   134   151   148    1
   135   160   166   am
   136   129   127    1
   137   118   119    1
   138   155   153   ar
   139   115   116    2
   140   192   191   ar
   141   120   119    2
   142   146   143    1
   143   166   167    1
   144   195   193   ar
   145   127   126    1
   146   186   187    1
   147   119   121   am
   148   128   126    1
   149   167   168    1
   150   167   170    1
   151   148   147    1
   152   148   149    1
   153   150   149    2
   154   147   144   am
   155   191   193   ar
   156   191   190    1
   157   169   168    2
   158   135   134    1
   159   126   123    1
   160   187   190    1
   161   187   188    1
   162   136   134    1
   163   144   143    1
   164   144   145    2
   165   143   142    1
   166   172   174   ar
   167   172   171   ar
   168   170   171    1
   169   142   139   am
   170   134   131    1
   171   174   176   ar
   172   171   173   ar
   173   122   123    1
   174   188   189    2
   175   123   124    1
   176   125   124    2
   177   139   138    1
   178   139   140    2
   179   138   141    1
   180   138   137    1
   181   176   177    1
   182   176   175   ar
   183   131   130    1
   184   131   132    1
   185   173   175   ar
   186   132   133    2
