@<TRIPOS>MOLECULE
tmp/5c4wA00.pdb
 230 221 0 0 0
SMALL
GASTEIGER

@<TRIPOS>ATOM
      1  N         69.1090  203.3410   77.4500 N.3   101  ILE101     -0.1231
      2  CA        69.6210  203.6180   78.7660 C.3   101  ILE101      0.1692
      3  C         70.9560  204.3290   78.7140 C.2   101  ILE101      0.2592
      4  O         71.9590  203.7890   78.2370 O.2   101  ILE101     -0.2718
      5  CB        69.7240  202.3260   79.5590 C.3   101  ILE101      0.0266
      6  CG1       68.3510  201.6400   79.5650 C.3   101  ILE101      0.0019
      7  CG2       70.1980  202.6220   80.9660 C.3   101  ILE101      0.0020
      8  CD1       68.3840  200.2200   80.0380 C.3   101  ILE101      0.0001
      9  N         70.9310  205.5660   79.1910 N.am  102  ASP102     -0.1960
     10  CA        72.0990  206.4340   79.2610 C.3   102  ASP102      0.1840
     11  C         71.7990  207.3530   80.4430 C.2   102  ASP102      0.2622
     12  O         70.8710  208.1570   80.3840 O.2   102  ASP102     -0.2715
     13  CB        72.2290  207.2570   77.9850 C.3   102  ASP102      0.1450
     14  CG        73.5130  208.0590   77.9430 C.2   102  ASP102      0.3671
     15  OD1       73.9100  208.5940   79.0010 O.co2 102  ASP102     -0.2456
     16  OD2       74.1170  208.1590   76.8510 O.co2 102  ASP102     -0.2456
     17  N         72.5820  207.2460   81.5100 N.am  103  LEU103     -0.1963
     18  CA        72.3200  208.0460   82.7030 C.3   103  LEU103      0.1728
     19  C         73.0600  209.3760   82.8000 C.2   103  LEU103      0.2616
     20  O         72.9070  210.1100   83.7800 O.2   103  LEU103     -0.2715
     21  CB        72.6390  207.1990   83.9310 C.3   103  LEU103      0.0311
     22  CG        72.1920  205.7390   83.7990 C.3   103  LEU103      0.0022
     23  CD1       72.3700  205.0220   85.1190 C.3   103  LEU103      0.0001
     24  CD2       70.7350  205.6850   83.3800 C.3   103  LEU103      0.0001
     25  N         73.8370  209.7000   81.7760 N.am  104  MET104     -0.1977
     26  CA        74.6350  210.9190   81.7840 C.3   104  MET104      0.1605
     27  C         73.9160  212.2080   81.3740 C.2   104  MET104      0.2287
     28  O         74.5530  213.2410   81.1250 O.2   104  MET104     -0.2864
     29  CB        75.8690  210.6840   80.9160 C.3   104  MET104      0.0413
     30  CG        76.5710  209.3710   81.2550 C.3   104  MET104      0.0598
     31  SD        77.4000  209.4060   82.8760 S.3   104  MET104     -0.1393
     32  CE        76.0120  209.3970   84.0720 C.3   104  MET104      0.0692
     33  N         78.9200  198.5950   90.9300 N.3   121  PHE121     -0.1241
     34  CA        77.8650  198.6530   91.9310 C.3   121  PHE121      0.1605
     35  C         76.5650  198.0250   91.4790 C.2   121  PHE121      0.2264
     36  O         76.4090  197.6360   90.3200 O.2   121  PHE121     -0.2867
     37  CB        77.5930  200.1100   92.2980 C.3   121  PHE121      0.0534
     38  CG        77.2500  200.9650   91.1150 C.ar  121  PHE121     -0.0203
     39  CD1       75.9980  200.8720   90.5110 C.ar  121  PHE121     -0.0042
     40  CD2       78.2090  201.8120   90.5570 C.ar  121  PHE121     -0.0042
     41  CE1       75.7050  201.6060   89.3620 C.ar  121  PHE121     -0.0003
     42  CE2       77.9340  202.5530   89.4070 C.ar  121  PHE121     -0.0003
     43  CZ        76.6800  202.4500   88.8040 C.ar  121  PHE121     -0.0000
     44  N         72.2080  198.6170   91.9200 N.3   123  ALA123     -0.1245
     45  CA        71.3910  199.8150   91.9750 C.3   123  ALA123      0.1562
     46  C         69.9200  199.5630   92.2490 C.2   123  ALA123      0.2260
     47  O         69.3680  198.5180   91.8880 O.2   123  ALA123     -0.2867
     48  CB        71.5410  200.5830   90.6810 C.3   123  ALA123      0.0290
     49  N         66.3250  201.1710   91.4630 N.3   125  PHE125     -0.1241
     50  CA        65.6550  202.1140   90.5750 C.3   125  PHE125      0.1605
     51  C         64.2490  202.3510   91.0620 C.2   125  PHE125      0.2264
     52  O         63.5190  201.4030   91.3600 O.2   125  PHE125     -0.2867
     53  CB        65.6140  201.5750   89.1480 C.3   125  PHE125      0.0534
     54  CG        66.8910  201.7830   88.3950 C.ar  125  PHE125     -0.0203
     55  CD1       67.0400  202.8650   87.5410 C.ar  125  PHE125     -0.0042
     56  CD2       67.9630  200.9220   88.5690 C.ar  125  PHE125     -0.0042
     57  CE1       68.2460  203.0840   86.8720 C.ar  125  PHE125     -0.0003
     58  CE2       69.1730  201.1360   87.9010 C.ar  125  PHE125     -0.0003
     59  CZ        69.3130  202.2180   87.0530 C.ar  125  PHE125     -0.0000
     60  N         60.6130  204.3460   90.1640 N.3   127  PHE127     -0.1241
     61  CA        59.8690  204.9710   89.0720 C.3   127  PHE127      0.1605
     62  C         58.6790  205.7620   89.5560 C.2   127  PHE127      0.2264
     63  O         57.6310  205.1930   89.9290 O.2   127  PHE127     -0.2867
     64  CB        59.3850  203.9140   88.1030 C.3   127  PHE127      0.0534
     65  CG        60.4650  203.0430   87.6140 C.ar  127  PHE127     -0.0203
     66  CD1       61.1880  203.3870   86.4820 C.ar  127  PHE127     -0.0042
     67  CD2       60.7990  201.8880   88.3070 C.ar  127  PHE127     -0.0042
     68  CE1       62.2350  202.5870   86.0400 C.ar  127  PHE127     -0.0003
     69  CE2       61.8520  201.0740   87.8750 C.ar  127  PHE127     -0.0003
     70  CZ        62.5700  201.4200   86.7420 C.ar  127  PHE127     -0.0000
     71  N         56.3600  198.6190   82.5670 N.3   143  TYR143     -0.1241
     72  CA        57.7250  199.0220   82.2800 C.3   143  TYR143      0.1605
     73  C         58.4560  197.7040   81.9830 C.2   143  TYR143      0.2264
     74  O         58.2930  196.7200   82.7150 O.2   143  TYR143     -0.2867
     75  CB        58.3960  199.7150   83.4760 C.3   143  TYR143      0.0534
     76  CG        57.6100  200.7790   84.2580 C.ar  143  TYR143     -0.0201
     77  CD1       56.8830  201.7960   83.6350 C.ar  143  TYR143     -0.0009
     78  CD2       57.6730  200.8000   85.6470 C.ar  143  TYR143     -0.0009
     79  CE1       56.2360  202.8190   84.4200 C.ar  143  TYR143      0.0417
     80  CE2       57.0490  201.7920   86.4130 C.ar  143  TYR143      0.0417
     81  CZ        56.3330  202.7930   85.8100 C.ar  143  TYR143      0.1957
     82  OH        55.7240  203.7220   86.6470 O.3   143  TYR143     -0.2866
     83  N         62.2930  195.8160   80.6720 N.3   145  TYR145     -0.1241
     84  CA        63.7070  195.9600   80.3960 C.3   145  TYR145      0.1605
     85  C         64.0690  195.1010   79.1760 C.2   145  TYR145      0.2264
     86  O         63.8510  193.8870   79.1490 O.2   145  TYR145     -0.2867
     87  CB        64.5210  195.5660   81.6290 C.3   145  TYR145      0.0534
     88  CG        66.0160  195.5530   81.3890 C.ar  145  TYR145     -0.0201
     89  CD1       66.6630  196.6410   80.8030 C.ar  145  TYR145     -0.0009
     90  CD2       66.7830  194.4400   81.7230 C.ar  145  TYR145     -0.0009
     91  CE1       68.0420  196.6140   80.5490 C.ar  145  TYR145      0.0417
     92  CE2       68.1650  194.4040   81.4730 C.ar  145  TYR145      0.0417
     93  CZ        68.7830  195.4890   80.8860 C.ar  145  TYR145      0.1957
     94  OH        70.1330  195.4330   80.6210 O.3   145  TYR145     -0.2866
     95  N         62.3930  191.0540   82.0320 N.3   167  PRO167     -0.2116
     96  CA        61.6560  191.3490   83.2650 C.3   167  PRO167      0.1372
     97  C         60.7730  192.5690   83.0250 C.2   167  PRO167      0.2244
     98  O         61.2120  193.5580   82.4300 O.2   167  PRO167     -0.2868
     99  CB        62.7660  191.6200   84.2870 C.3   167  PRO167      0.0268
    100  CG        63.8840  192.1520   83.4440 C.3   167  PRO167      0.0207
    101  CD        63.8390  191.2710   82.2120 C.3   167  PRO167      0.0892
    102  N         57.4820  195.1240   84.7970 N.3   169  VAL169     -0.1245
    103  CA        56.8060  195.5400   86.0150 C.3   169  VAL169      0.1561
    104  C         55.4640  196.1400   85.6160 C.2   169  VAL169      0.2260
    105  O         55.4010  196.9490   84.6960 O.2   169  VAL169     -0.2867
    106  CB        57.6150  196.6150   86.7520 C.3   169  VAL169      0.0252
    107  CG1       56.8340  197.1290   87.9390 C.3   169  VAL169      0.0019
    108  CG2       58.9560  196.0420   87.1920 C.3   169  VAL169      0.0019
    109  N         62.7910  198.5770   92.1890 N.3   180  VAL180     -0.1245
    110  CA        63.4540  197.2880   92.0340 C.3   180  VAL180      0.1561
    111  C         64.9570  197.3710   92.1970 C.2   180  VAL180      0.2260
    112  O         65.5400  198.4560   92.1450 O.2   180  VAL180     -0.2867
    113  CB        63.1880  196.6880   90.6460 C.3   180  VAL180      0.0252
    114  CG1       61.7190  196.4880   90.4480 C.3   180  VAL180      0.0019
    115  CG2       63.7340  197.6010   89.5750 C.3   180  VAL180      0.0019
    116  N         68.7040  196.1400   90.8220 N.3   182  VAL182     -0.1245
    117  CA        69.3850  195.7460   89.6010 C.3   182  VAL182      0.1561
    118  C         70.8230  195.3690   89.9470 C.2   182  VAL182      0.2260
    119  O         71.5100  196.0850   90.6820 O.2   182  VAL182     -0.2867
    120  CB        69.3790  196.9120   88.6050 C.3   182  VAL182      0.0252
    121  CG1       70.2200  196.5740   87.3970 C.3   182  VAL182      0.0019
    122  CG2       67.9430  197.2270   88.2070 C.3   182  VAL182      0.0019
    123  N         75.7070  194.7150   85.7440 N.3   185  MET185     -0.1245
    124  CA        75.6040  193.9800   84.4890 C.3   185  MET185      0.1570
    125  C         76.6300  194.1030   83.3800 C.2   185  MET185      0.2261
    126  O         76.4710  193.4900   82.3270 O.2   185  MET185     -0.2867
    127  CB        74.2130  194.2350   83.9090 C.3   185  MET185      0.0387
    128  CG        73.1200  194.0610   84.9530 C.3   185  MET185      0.0595
    129  SD        71.4870  194.1780   84.2740 S.3   185  MET185     -0.1393
    130  CE        71.3220  195.9590   84.1550 C.3   185  MET185      0.0692
    131  N         81.9160  199.4890   85.4240 N.3   191  TYR191     -0.1241
    132  CA        81.4210  200.4770   84.4720 C.3   191  TYR191      0.1605
    133  C         82.5340  201.5160   84.3960 C.2   191  TYR191      0.2264
    134  O         83.2180  201.7610   85.3990 O.2   191  TYR191     -0.2867
    135  CB        80.1740  201.1750   84.9990 C.3   191  TYR191      0.0534
    136  CG        78.9880  200.2810   85.2380 C.ar  191  TYR191     -0.0201
    137  CD1       78.5080  199.4470   84.2300 C.ar  191  TYR191     -0.0009
    138  CD2       78.3210  200.2920   86.4700 C.ar  191  TYR191     -0.0009
    139  CE1       77.3900  198.6430   84.4390 C.ar  191  TYR191      0.0417
    140  CE2       77.2010  199.4900   86.6910 C.ar  191  TYR191      0.0417
    141  CZ        76.7430  198.6680   85.6680 C.ar  191  TYR191      0.1957
    142  OH        75.6470  197.8600   85.8700 O.3   191  TYR191     -0.2866
    143  N         83.3260  205.5050   83.2160 N.3   193  TRP193     -0.1241
    144  CA        82.8230  206.7840   82.7390 C.3   193  TRP193      0.1605
    145  C         83.7370  207.4070   81.6970 C.2   193  TRP193      0.2264
    146  O         83.3590  208.3720   81.0450 O.2   193  TRP193     -0.2867
    147  CB        82.6680  207.7390   83.9140 C.3   193  TRP193      0.0550
    148  CG        81.9200  207.1410   85.0550 C.ar  193  TRP193      0.0003
    149  CD1       82.2200  207.2500   86.3880 C.ar  193  TRP193      0.0946
    150  CD2       80.7250  206.3600   84.9750 C.ar  193  TRP193      0.0152
    151  NE1       81.2810  206.5830   87.1430 N.ar  193  TRP193     -0.2442
    152  CE2       80.3520  206.0280   86.2990 C.ar  193  TRP193      0.0810
    153  CE3       79.9310  205.9060   83.9140 C.ar  193  TRP193      0.0012
    154  CZ2       79.2180  205.2630   86.5880 C.ar  193  TRP193      0.0191
    155  CZ3       78.8010  205.1410   84.2020 C.ar  193  TRP193      0.0001
    156  CH2       78.4580  204.8290   85.5290 C.ar  193  TRP193      0.0015
    157  N         83.0530  205.7750   73.0730 N.3   214  GLN214     -0.1231
    158  CA        81.9030  204.9070   73.2650 C.3   214  GLN214      0.1698
    159  C         82.3140  203.5120   73.7130 C.2   214  GLN214      0.2592
    160  O         82.9010  202.7420   72.9450 O.2   214  GLN214     -0.2718
    161  CB        81.0900  204.8270   71.9720 C.3   214  GLN214      0.0381
    162  CG        80.6310  206.1930   71.4770 C.3   214  GLN214      0.0905
    163  CD        79.9440  206.9690   72.5630 C.2   214  GLN214      0.2608
    164  OE1       78.8230  206.6390   72.9720 O.2   214  GLN214     -0.2717
    165  NE2       80.6230  207.9960   73.0630 N.am  214  GLN214     -0.0878
    166  N         81.9930  203.1850   74.9590 N.am  215  CYS215     -0.1970
    167  CA        82.3410  201.8840   75.4950 C.3   215  CYS215      0.1712
    168  C         81.1230  200.9710   75.5680 C.2   215  CYS215      0.2296
    169  O         80.2320  201.1660   76.3950 O.2   215  CYS215     -0.2864
    170  CB        82.9450  202.0500   76.8790 C.3   215  CYS215      0.0983
    171  SG        83.5730  200.5190   77.5000 S.3   215  CYS215     -0.0798
    172  N         79.2410  199.5550   78.6720 N.3   218  ASN218     -0.1225
    173  CA        78.3550  200.4100   79.4750 C.3   218  ASN218      0.1785
    174  C         76.9650  200.5060   78.8470 C.2   218  ASN218      0.2597
    175  O         76.0390  201.0810   79.4310 O.2   218  ASN218     -0.2718
    176  CB        78.9250  201.8270   79.5890 C.3   218  ASN218      0.1169
    177  CG        80.1870  201.8930   80.4230 C.2   218  ASN218      0.2627
    178  OD1       80.8100  202.9430   80.5090 O.2   218  ASN218     -0.2716
    179  ND2       80.5710  200.7750   81.0410 N.am  218  ASN218     -0.0877
    180  N         76.8210  199.9580   77.6470 N.am  219  MET219     -0.1965
    181  CA        75.5390  200.0050   76.9600 C.3   219  MET219      0.1736
    182  C         74.6860  198.8590   77.4480 C.2   219  MET219      0.2616
    183  O         74.9110  197.7100   77.0830 O.2   219  MET219     -0.2715
    184  CB        75.7830  199.9550   75.4600 C.3   219  MET219      0.0427
    185  CG        76.5040  201.2260   75.0200 C.3   219  MET219      0.0599
    186  SD        77.1140  201.2610   73.3420 S.3   219  MET219     -0.1393
    187  CE        78.1320  202.8000   73.4470 C.3   219  MET219      0.0692
    188  N         73.7100  199.1950   78.2900 N.am  220  MET220     -0.1977
    189  CA        72.8330  198.2060   78.9080 C.3   220  MET220      0.1605
    190  C         71.5180  197.9100   78.2070 C.2   220  MET220      0.2287
    191  O         70.6790  197.1900   78.7440 O.2   220  MET220     -0.2864
    192  CB        72.5380  198.6220   80.3580 C.3   220  MET220      0.0413
    193  CG        73.7720  198.6730   81.2570 C.3   220  MET220      0.0598
    194  SD        74.6230  197.0560   81.3490 S.3   220  MET220     -0.1393
    195  CE        75.9260  197.2300   80.1010 C.3   220  MET220      0.0692
    196  N         64.9880  200.6150   77.7760 N.3   223  PHE223     -0.1241
    197  CA        63.9540  200.5740   78.8070 C.3   223  PHE223      0.1605
    198  C         62.6850  201.0090   78.0850 C.2   223  PHE223      0.2264
    199  O         62.6130  202.1220   77.5670 O.2   223  PHE223     -0.2867
    200  CB        64.2640  201.5550   79.9280 C.3   223  PHE223      0.0534
    201  CG        63.1050  201.8030   80.8630 C.ar  223  PHE223     -0.0203
    202  CD1       62.3310  202.9560   80.7450 C.ar  223  PHE223     -0.0042
    203  CD2       62.8040  200.9000   81.8850 C.ar  223  PHE223     -0.0042
    204  CE1       61.2750  203.2120   81.6360 C.ar  223  PHE223     -0.0003
    205  CE2       61.7490  201.1450   82.7860 C.ar  223  PHE223     -0.0003
    206  CZ        60.9870  202.3010   82.6600 C.ar  223  PHE223     -0.0000
    207  N         67.8200  206.7370   90.4540 N.3   243  MET243     -0.1245
    208  CA        68.7530  205.6590   90.7030 C.3   243  MET243      0.1570
    209  C         69.5220  205.8260   92.0040 C.2   243  MET243      0.2261
    210  O         69.9990  206.9160   92.3380 O.2   243  MET243     -0.2867
    211  CB        69.7510  205.5310   89.5690 C.3   243  MET243      0.0387
    212  CG        70.7580  204.4580   89.8810 C.3   243  MET243      0.0595
    213  SD        71.8420  204.1290   88.5310 S.3   243  MET243     -0.1393
    214  CE        72.9920  205.4230   88.7920 C.3   243  MET243      0.0692
    215  N         75.5990  214.1200   76.5110 N.3   264  LYS264     -0.1231
    216  CA        75.6040  212.9170   77.3240 C.3   264  LYS264      0.1693
    217  C         76.8630  212.0720   77.1040 C.2   264  LYS264      0.2592
    218  O         77.4770  211.6000   78.0640 O.2   264  LYS264     -0.2718
    219  CB        74.3880  212.0490   76.9940 C.3   264  LYS264      0.0285
    220  CG        73.0280  212.6930   77.1810 C.3   264  LYS264      0.0035
    221  CD        71.9420  211.6830   76.7940 C.3   264  LYS264      0.0206
    222  CE        70.5740  212.3280   76.6390 C.3   264  LYS264      0.1093
    223  NZ        69.5400  211.3130   76.2520 N.3   264  LYS264     -0.1314
    224  N         77.2590  211.9110   75.8430 N.am  265  THR265     -0.1953
    225  CA        78.3880  211.0470   75.4870 C.3   265  THR265      0.1897
    226  C         79.8270  211.5530   75.3810 C.2   265  THR265      0.2313
    227  O         80.7100  210.8090   74.9310 O.2   265  THR265     -0.2863
    228  CB        78.0890  210.3270   74.1730 C.3   265  THR265      0.1794
    229  OG1       78.1220  211.2740   73.0940 O.3   265  THR265     -0.2208
    230  CG2       76.7150  209.6870   74.2360 C.3   265  THR265      0.0378
@<TRIPOS>BOND
     1   162   161    1
     2   162   163    1
     3   161   158    1
     4   163   164    2
     5   163   165   am
     6   160   159    2
     7   157   158    1
     8   229   228    1
     9   158   159    1
    10   186   187    1
    11   186   185    1
    12   159   166   am
    13   228   230    1
    14   228   225    1
    15   227   226    2
    16   166   167    1
    17   185   184    1
    18   226   225    1
    19   184   181    1
    20   225   224    1
    21   167   168    1
    22   167   170    1
    23   168   169    2
    24   224   217   am
    25   223   222    1
    26   215   216    1
    27   222   221    1
    28   221   220    1
    29    16    14   ar
    30   170   171    1
    31   181   182    1
    32   181   180    1
    33   219   220    1
    34   219   216    1
    35   183   182    2
    36   217   216    1
    37   217   218    2
    38   182   188   am
    39     1     2    1
    40   199   198    2
    41   180   174   am
    42   196   197    1
    43    14    13    1
    44    14    15   ar
    45    13    10    1
    46   198   197    1
    47   190   191    2
    48   190   189    1
    49     4     3    2
    50   188   189    1
    51   172   173    1
    52     3     2    1
    53     3     9   am
    54     2     5    1
    55   197   200    1
    56   174   175    2
    57   174   173    1
    58   189   192    1
    59    86    85    2
    60    85    84    1
    61     9    10    1
    62    10    11    1
    63   173   176    1
    64     5     6    1
    65     5     7    1
    66     6     8    1
    67   176   177    1
    68   200   201    1
    69   195   194    1
    70   192   193    1
    71    12    11    2
    72    84    83    1
    73    84    87    1
    74   177   178    2
    75   177   179   am
    76    11    17   am
    77    91    89   ar
    78    91    93   ar
    79    94    93    1
    80   202   201   ar
    81   202   204   ar
    82    89    88   ar
    83   201   203   ar
    84    93    92   ar
    85    29    30    1
    86    29    26    1
    87   146   145    2
    88    28    27    2
    89    30    31    1
    90   193   194    1
    91    27    26    1
    92    88    87    1
    93    88    90   ar
    94    92    90   ar
    95    17    18    1
    96   204   206   ar
    97   145   144    1
    98    25    26    1
    99    25    19   am
   100   203   205   ar
   101    73    72    1
   102    73    74    2
   103    95   101    1
   104    95    96    1
   105   101   100    1
   106    72    71    1
   107    72    75    1
   108   126   125    2
   109    98    97    2
   110   206   205   ar
   111    18    19    1
   112    18    21    1
   113   144   143    1
   114   144   147    1
   115    19    20    2
   116    31    32    1
   117    97    96    1
   118    96    99    1
   119   125   124    1
   120    24    22    1
   121   100    99    1
   122    75    76    1
   123    77    76   ar
   124    77    79   ar
   125    22    21    1
   126    22    23    1
   127   127   124    1
   128   127   128    1
   129   153   155   ar
   130   153   150   ar
   131   147   148    1
   132   130   129    1
   133   155   156   ar
   134   137   139   ar
   135   137   136   ar
   136    76    78   ar
   137   129   128    1
   138   133   132    1
   139   133   134    2
   140    79    81   ar
   141   139   141   ar
   142   132   135    1
   143   132   131    1
   144   124   123    1
   145   105   104    2
   146   102   103    1
   147   150   148   ar
   148   150   152   ar
   149   135   136    1
   150   148   149   ar
   151   136   138   ar
   152   156   154   ar
   153   104   103    1
   154    78    80   ar
   155   141   142    1
   156   141   140   ar
   157    81    80   ar
   158    81    82    1
   159   103   106    1
   160    68    66   ar
   161    68    70   ar
   162   152   154   ar
   163   152   151   ar
   164   149   151   ar
   165   138   140   ar
   166    66    65   ar
   167    70    69   ar
   168   106   108    1
   169   106   107    1
   170    57    59   ar
   171    57    55   ar
   172    59    58   ar
   173   121   120    1
   174    55    54   ar
   175    65    64    1
   176    65    67   ar
   177    69    67   ar
   178    58    56   ar
   179    64    61    1
   180   122   120    1
   181    54    56   ar
   182    54    53    1
   183   213   214    1
   184   213   212    1
   185   120   117    1
   186    43    41   ar
   187    43    42   ar
   188    61    62    1
   189    61    60    1
   190    53    50    1
   191    41    39   ar
   192    42    40   ar
   193    62    63    2
   194   211   212    1
   195   211   208    1
   196   115   113    1
   197   117   118    1
   198   117   116    1
   199   118   119    2
   200    36    35    2
   201   114   113    1
   202   207   208    1
   203    39    38   ar
   204    40    38   ar
   205    50    51    1
   206    50    49    1
   207   113   110    1
   208    48    45    1
   209   208   209    1
   210    33    34    1
   211    51    52    2
   212    38    37    1
   213    35    34    1
   214    47    46    2
   215    44    45    1
   216    34    37    1
   217    45    46    1
   218   209   210    2
   219   110   109    1
   220   110   111    1
   221   112   111    2
