@<TRIPOS>MOLECULE
tmp/5c50A00.pdb
 76 73 0 0 0
SMALL
GASTEIGER

@<TRIPOS>ATOM
      1  N         42.2730   27.1080   39.3270 N.3     9  GLU9       -0.1231
      2  CA        42.2000   27.4520   40.7450 C.3     9  GLU9        0.1699
      3  C         43.3430   28.3960   41.1010 C.2     9  GLU9        0.2592
      4  O         44.4840   28.1650   40.7030 O.2     9  GLU9       -0.2718
      5  CB        42.2660   26.1970   41.6240 C.3     9  GLU9        0.0402
      6  CG        41.2280   25.1370   41.2910 C.3     9  GLU9        0.1161
      7  CD        41.3340   23.9180   42.1920 C.2     9  GLU9        0.3649
      8  OE1       42.1740   23.9330   43.1160 O.co2   9  GLU9       -0.2457
      9  OE2       40.5790   22.9470   41.9760 O.co2   9  GLU9       -0.2457
     10  N         43.0350   29.4530   41.8460 N.am   10  VAL10      -0.1966
     11  CA        44.0720   30.3710   42.3020 C.3    10  VAL10       0.1727
     12  C         43.8440   30.7680   43.7570 C.2    10  VAL10       0.2616
     13  O         42.7060   30.9190   44.2010 O.2    10  VAL10      -0.2715
     14  CB        44.1420   31.6470   41.4270 C.3    10  VAL10       0.0290
     15  CG1       44.3750   31.2780   39.9720 C.3    10  VAL10       0.0023
     16  CG2       42.8750   32.4720   41.5450 C.3    10  VAL10       0.0023
     17  N         44.9480   30.9250   44.4870 N.am   11  SER11      -0.1950
     18  CA        44.9190   31.4180   45.8620 C.3    11  SER11       0.1924
     19  C         45.5330   32.8100   45.8870 C.2    11  SER11       0.2314
     20  O         46.6640   32.9920   45.4300 O.2    11  SER11      -0.2863
     21  CB        45.6840   30.4820   46.7960 C.3    11  SER11       0.2116
     22  OG        45.0220   29.2410   46.9390 O.3    11  SER11      -0.2180
     23  N         35.8310   31.2940   49.7880 N.3    95  LEU95      -0.1231
     24  CA        35.8180   30.3820   48.6450 C.3    95  LEU95       0.1693
     25  C         34.6740   30.7210   47.6940 C.2    95  LEU95       0.2593
     26  O         33.5140   30.7790   48.0960 O.2    95  LEU95      -0.2718
     27  CB        35.6960   28.9320   49.1260 C.3    95  LEU95       0.0284
     28  CG        36.8850   28.4310   49.9540 C.3    95  LEU95       0.0019
     29  CD1       36.4820   27.2820   50.8580 C.3    95  LEU95       0.0001
     30  CD2       38.0110   28.0060   49.0430 C.3    95  LEU95       0.0001
     31  N         35.0040   30.9450   46.4250 N.am   96  GLY96      -0.1942
     32  CA        34.0010   31.2680   45.4400 C.3    96  GLY96       0.2014
     33  C         34.5480   30.9300   44.0750 C.2    96  GLY96       0.2638
     34  O         35.6960   30.5120   43.9550 O.2    96  GLY96      -0.2714
     35  N         33.7190   31.0800   43.0550 N.am   97  GLN97      -0.1977
     36  CA        34.1580   30.7950   41.7070 C.3    97  GLN97       0.1601
     37  C         33.3540   31.6030   40.7220 C.2    97  GLN97       0.2287
     38  O         32.2170   31.9680   40.9980 O.2    97  GLN97      -0.2864
     39  CB        34.0220   29.3080   41.3950 C.3    97  GLN97       0.0394
     40  CG        32.6170   28.7680   41.5630 C.3    97  GLN97       0.0908
     41  CD        32.5720   27.2630   41.4860 C.2    97  GLN97       0.2608
     42  OE1       33.2490   26.5690   42.2480 O.2    97  GLN97      -0.2717
     43  NE2       31.7740   26.7440   40.5650 N.am   97  GLN97      -0.0878
     44  N         38.1370   29.0710   40.1270 N.3   125  LYS125     -0.1231
     45  CA        37.9330   28.9780   41.5780 C.3   125  LYS125      0.1693
     46  C         38.9660   29.8180   42.3190 C.2   125  LYS125      0.2592
     47  O         40.1530   29.8040   41.9840 O.2   125  LYS125     -0.2718
     48  CB        38.0060   27.5170   42.0280 C.3   125  LYS125      0.0285
     49  CG        37.0260   26.5960   41.3030 C.3   125  LYS125      0.0035
     50  CD        37.0380   25.1880   41.8810 C.3   125  LYS125      0.0206
     51  CE        36.0270   24.2950   41.1840 C.3   125  LYS125      0.1093
     52  NZ        36.0980   22.8850   41.6470 N.3   125  LYS125     -0.1314
     53  N         38.5200   30.5480   43.3380 N.am  126  VAL126     -0.1966
     54  CA        39.4060   31.4010   44.1040 C.3   126  VAL126      0.1727
     55  C         39.3280   31.0040   45.5690 C.2   126  VAL126      0.2616
     56  O         38.2750   30.6000   46.0660 O.2   126  VAL126     -0.2715
     57  CB        39.0500   32.8940   43.9560 C.3   126  VAL126      0.0290
     58  CG1       37.6460   33.1700   44.4650 C.3   126  VAL126      0.0023
     59  CG2       40.0720   33.7640   44.6850 C.3   126  VAL126      0.0023
     60  N         40.4720   31.0940   46.2270 N.am  127  HIS127     -0.1973
     61  CA        40.5520   31.0210   47.6770 C.3   127  HIS127      0.1656
     62  C         41.2460   32.2770   48.1590 C.2   127  HIS127      0.2291
     63  O         42.3740   32.5460   47.7610 O.2   127  HIS127     -0.2864
     64  CB        41.3080   29.7790   48.1220 C.3   127  HIS127      0.0771
     65  CG        41.3980   29.6370   49.6080 C.ar  127  HIS127      0.0820
     66  ND1       42.5270   29.1710   50.2470 N.ar  127  HIS127     -0.2267
     67  CD2       40.4980   29.9100   50.5820 C.ar  127  HIS127      0.1154
     68  CE1       42.3160   29.1610   51.5510 C.ar  127  HIS127      0.1986
     69  NE2       41.0950   29.6000   51.7820 N.ar  127  HIS127     -0.2212
     70  N         30.7980   29.4370   47.6450 N.3   197  THR197     -0.1218
     71  CA        30.6200   28.0480   48.0750 C.3   197  THR197      0.1862
     72  C         30.8590   27.8610   49.5730 C.2   197  THR197      0.2287
     73  O         30.2350   27.0080   50.2040 O.2   197  THR197     -0.2866
     74  CB        31.5530   27.1180   47.2750 C.3   197  THR197      0.1770
     75  OG1       32.8940   27.6160   47.3320 O.3   197  THR197     -0.2211
     76  CG2       31.1070   27.0660   45.8150 C.3   197  THR197      0.0375
@<TRIPOS>BOND
     1     1     2    1
     2    15    14    1
     3    44    45    1
     4    43    41   am
     5     4     3    2
     6    37    38    2
     7    37    36    1
     8     2     3    1
     9     2     5    1
    10     3    10   am
    11    51    52    1
    12    51    50    1
    13     6     5    1
    14     6     7    1
    15    49    50    1
    16    49    48    1
    17    39    40    1
    18    39    36    1
    19    14    16    1
    20    14    11    1
    21    41    40    1
    22    41    42    2
    23    45    48    1
    24    45    46    1
    25    36    35    1
    26    10    11    1
    27     9     7   ar
    28    47    46    2
    29     7     8   ar
    30    11    12    1
    31    46    53   am
    32    35    33   am
    33    53    54    1
    34    12    13    2
    35    12    17   am
    36    34    33    2
    37    57    54    1
    38    57    58    1
    39    57    59    1
    40    33    32    1
    41    54    55    1
    42    17    18    1
    43    20    19    2
    44    32    31    1
    45    55    56    2
    46    55    60   am
    47    76    74    1
    48    18    19    1
    49    18    21    1
    50    60    61    1
    51    31    25   am
    52    21    22    1
    53    74    75    1
    54    74    71    1
    55    70    71    1
    56    61    64    1
    57    61    62    1
    58    25    26    2
    59    25    24    1
    60    63    62    2
    61    71    72    1
    62    64    65    1
    63    24    27    1
    64    24    23    1
    65    30    28    1
    66    27    28    1
    67    72    73    2
    68    65    66   ar
    69    65    67   ar
    70    28    29    1
    71    66    68   ar
    72    67    69   ar
    73    68    69   ar
