@<TRIPOS>MOLECULE
tmp/5c52A00.pdb
 164 157 0 0 0
SMALL
GASTEIGER

@<TRIPOS>ATOM
      1  N        -56.6330   33.1010   16.2080 N.3   640  ARG640     -0.1245
      2  CA       -57.3540   31.9010   15.7960 C.3   640  ARG640      0.1563
      3  C        -58.1010   31.2670   16.9630 C.2   640  ARG640      0.2260
      4  O        -58.0680   31.7720   18.0860 O.2   640  ARG640     -0.2867
      5  CB       -56.4000   30.8740   15.1870 C.3   640  ARG640      0.0307
      6  CG       -55.1900   31.4460   14.4970 C.3   640  ARG640      0.0489
      7  CD       -54.5420   30.3760   13.6340 C.3   640  ARG640      0.2205
      8  NE       -55.2180   30.2080   12.3510 N.pl3 640  ARG640     -0.0865
      9  CZ       -55.0210   29.1800   11.5300 C.cat 640  ARG640      0.5346
     10  NH1      -54.1690   28.2170   11.8520 N.pl3 640  ARG640      0.1354
     11  NH2      -55.6830   29.1130   10.3860 N.pl3 640  ARG640      0.1354
     12  N        -64.7480   23.2550    3.2710 N.3   677  ASP677     -0.1225
     13  CA       -63.3250   23.4380    3.5320 C.3   677  ASP677      0.1805
     14  C        -62.6920   24.2550    2.4070 C.2   677  ASP677      0.2598
     15  O        -62.7750   23.8810    1.2360 O.2   677  ASP677     -0.2718
     16  CB       -62.6290   22.0770    3.6730 C.3   677  ASP677      0.1424
     17  CG       -61.1350   22.1990    3.9210 C.2   677  ASP677      0.3668
     18  OD1      -60.3690   22.2580    2.9370 O.co2 677  ASP677     -0.2456
     19  OD2      -60.7260   22.2260    5.1020 O.co2 677  ASP677     -0.2456
     20  N        -62.0760   25.3790    2.7610 N.am  678  VAL678     -0.1966
     21  CA       -61.4260   26.2310    1.7710 C.3   678  VAL678      0.1727
     22  C        -60.2260   25.5180    1.1660 C.2   678  VAL678      0.2616
     23  O        -59.3130   25.1010    1.8790 O.2   678  VAL678     -0.2715
     24  CB       -60.9670   27.5650    2.3760 C.3   678  VAL678      0.0290
     25  CG1      -60.3990   28.4660    1.2900 C.3   678  VAL678      0.0023
     26  CG2      -62.1230   28.2440    3.0880 C.3   678  VAL678      0.0023
     27  N        -60.2360   25.3740   -0.1540 N.am  679  ASP679     -0.1957
     28  CA       -59.1820   24.6480   -0.8490 C.3   679  ASP679      0.1840
     29  C        -58.6420   25.4230   -2.0500 C.2   679  ASP679      0.2623
     30  O        -59.1980   25.3570   -3.1440 O.2   679  ASP679     -0.2715
     31  CB       -59.6940   23.2720   -1.2900 C.3   679  ASP679      0.1450
     32  CG       -61.1710   23.2830   -1.6360 C.2   679  ASP679      0.3671
     33  OD1      -61.8150   22.2150   -1.5470 O.co2 679  ASP679     -0.2456
     34  OD2      -61.6890   24.3620   -1.9910 O.co2 679  ASP679     -0.2456
     35  N        -57.5660   26.1750   -1.8370 N.am  680  SER680     -0.1936
     36  CA       -56.9750   26.3550   -0.5130 C.3   680  SER680      0.2055
     37  C        -56.9360   27.8480   -0.1970 C.2   680  SER680      0.2643
     38  O        -57.1640   28.6690   -1.0870 O.2   680  SER680     -0.2714
     39  CB       -55.5710   25.7530   -0.4490 C.3   680  SER680      0.2130
     40  OG       -54.6950   26.4160   -1.3410 O.3   680  SER680     -0.2179
     41  N        -56.6490   28.2150    1.0510 N.am  681  GLN681     -0.1963
     42  CA       -56.6420   29.6360    1.3870 C.3   681  GLN681      0.1733
     43  C        -55.2450   30.2400    1.4770 C.2   681  GLN681      0.2616
     44  O        -54.9620   31.1860    0.7560 O.2   681  GLN681     -0.2715
     45  CB       -57.4240   29.9060    2.6800 C.3   681  GLN681      0.0408
     46  CG       -57.1100   29.0350    3.8880 C.3   681  GLN681      0.0908
     47  CD       -58.0040   29.3790    5.0690 C.2   681  GLN681      0.2608
     48  OE1      -58.9080   30.2010    4.9540 O.2   681  GLN681     -0.2717
     49  NE2      -57.7590   28.7510    6.2010 N.am  681  GLN681     -0.0878
     50  N        -54.3700   29.6880    2.3100 N.am  682  GLU682     -0.1977
     51  CA       -53.0670   30.2990    2.5210 C.3   682  GLU682      0.1602
     52  C        -52.2370   30.4110    1.2490 C.2   682  GLU682      0.2287
     53  O        -51.5680   31.4240    1.0310 O.2   682  GLU682     -0.2864
     54  CB       -52.2970   29.5230    3.5820 C.3   682  GLU682      0.0415
     55  CG       -52.7320   29.8760    5.0080 C.3   682  GLU682      0.1163
     56  CD       -51.5640   30.0810    5.9410 C.2   682  GLU682      0.3649
     57  OE1      -50.7210   29.1750    6.0530 O.co2 682  GLU682     -0.2457
     58  OE2      -51.5130   31.1410    6.5960 O.co2 682  GLU682     -0.2457
     59  N        -50.6380   21.6670   -5.1720 N.3   719  HIS719     -0.1241
     60  CA       -50.1860   20.6670   -4.2140 C.3   719  HIS719      0.1621
     61  C        -50.1130   19.2970   -4.8720 C.2   719  HIS719      0.2264
     62  O        -49.1660   18.5440   -4.6600 O.2   719  HIS719     -0.2867
     63  CB       -51.1170   20.6140   -3.0010 C.3   719  HIS719      0.0745
     64  CG       -51.1490   21.8810   -2.2050 C.ar  719  HIS719      0.0817
     65  ND1      -50.1720   22.2100   -1.2890 N.ar  719  HIS719     -0.2268
     66  CD2      -52.0440   22.8950   -2.1810 C.ar  719  HIS719      0.1154
     67  CE1      -50.4630   23.3750   -0.7390 C.ar  719  HIS719      0.1986
     68  NE2      -51.5950   23.8120   -1.2610 N.ar  719  HIS719     -0.2212
     69  N        -51.0160   13.3090   -0.2220 N.3   730  ARG730     -0.1245
     70  CA       -51.0320   14.6700   -0.7580 C.3   730  ARG730      0.1563
     71  C        -50.7060   15.6700    0.3430 C.2   730  ARG730      0.2260
     72  O        -50.1510   16.7370    0.0830 O.2   730  ARG730     -0.2867
     73  CB       -52.3910   14.9920   -1.3830 C.3   730  ARG730      0.0307
     74  CG       -52.4810   16.3760   -2.0160 C.3   730  ARG730      0.0489
     75  CD       -53.8720   16.6460   -2.5680 C.3   730  ARG730      0.2205
     76  NE       -53.9720   17.9730   -3.1700 N.pl3 730  ARG730     -0.0865
     77  CZ       -54.4500   19.0450   -2.5460 C.cat 730  ARG730      0.5346
     78  NH1      -54.8800   18.9470   -1.2940 N.pl3 730  ARG730      0.1354
     79  NH2      -54.5000   20.2150   -3.1750 N.pl3 730  ARG730      0.1354
     80  N        -48.2550   19.2070    0.7210 N.3   734  LYS734     -0.1231
     81  CA       -48.8030   20.4150    1.3270 C.3   734  LYS734      0.1693
     82  C        -47.8770   20.9280    2.4260 C.2   734  LYS734      0.2591
     83  O        -47.5810   22.1260    2.4950 O.2   734  LYS734     -0.2718
     84  CB       -50.1980   20.1390    1.8910 C.3   734  LYS734      0.0285
     85  CG       -50.8800   21.3430    2.5100 C.3   734  LYS734      0.0035
     86  CD       -52.1650   20.9360    3.2100 C.3   734  LYS734      0.0206
     87  CE       -53.0820   20.1560    2.2790 C.3   734  LYS734      0.1093
     88  NZ       -54.3740   19.7930    2.9310 N.3   734  LYS734     -0.1314
     89  N        -47.4200   20.0110    3.2760 N.am  735  ILE735     -0.1980
     90  CA       -46.4770   20.3430    4.3400 C.3   735  ILE735      0.1595
     91  C        -45.1490   20.8400    3.7610 C.2   735  ILE735      0.2287
     92  O        -44.5110   21.7440    4.3090 O.2   735  ILE735     -0.2864
     93  CB       -46.2200   19.1300    5.2640 C.3   735  ILE735      0.0276
     94  CG1      -47.5010   18.7480    6.0090 C.3   735  ILE735      0.0022
     95  CG2      -45.1080   19.4310    6.2550 C.3   735  ILE735      0.0022
     96  CD1      -47.3060   17.6790    7.0530 C.3   735  ILE735      0.0001
     97  N        -46.0710   24.6050    2.2450 N.3   738  TYR738     -0.1227
     98  CA       -46.2830   25.5780    3.3160 C.3   738  TYR738      0.1736
     99  C        -45.0600   25.6890    4.2140 C.2   738  TYR738      0.2596
    100  O        -44.8650   26.7010    4.8820 O.2   738  TYR738     -0.2718
    101  CB       -47.5140   25.2150    4.1480 C.3   738  TYR738      0.0548
    102  CG       -48.8130   25.5100    3.4430 C.ar  738  TYR738     -0.0200
    103  CD1      -48.8680   26.4450    2.4190 C.ar  738  TYR738     -0.0009
    104  CD2      -49.9810   24.8510    3.7930 C.ar  738  TYR738     -0.0009
    105  CE1      -50.0500   26.7200    1.7670 C.ar  738  TYR738      0.0417
    106  CE2      -51.1650   25.1180    3.1470 C.ar  738  TYR738      0.0417
    107  CZ       -51.1950   26.0540    2.1350 C.ar  738  TYR738      0.1957
    108  OH       -52.3750   26.3270    1.4850 O.3   738  TYR738     -0.2866
    109  N        -44.2380   24.6450    4.2250 N.am  739  GLY739     -0.1957
    110  CA       -42.9680   24.6960    4.9180 C.3   739  GLY739      0.1869
    111  C        -41.9670   25.5110    4.1250 C.2   739  GLY739      0.2309
    112  O        -41.1140   26.1920    4.6980 O.2   739  GLY739     -0.2863
    113  N        -42.5450   29.4150    4.3940 N.3   742  TYR742     -0.1241
    114  CA       -42.0800   29.9900    5.6540 C.3   742  TYR742      0.1605
    115  C        -40.7310   29.4140    6.0790 C.2   742  TYR742      0.2264
    116  O        -40.5970   28.8770    7.1790 O.2   742  TYR742     -0.2867
    117  CB       -43.1040   29.7630    6.7670 C.3   742  TYR742      0.0534
    118  CG       -44.5430   29.9150    6.3320 C.ar  742  TYR742     -0.0201
    119  CD1      -44.9380   30.9450    5.4900 C.ar  742  TYR742     -0.0009
    120  CD2      -45.5050   29.0170    6.7610 C.ar  742  TYR742     -0.0009
    121  CE1      -46.2550   31.0710    5.0910 C.ar  742  TYR742      0.0417
    122  CE2      -46.8200   29.1350    6.3690 C.ar  742  TYR742      0.0417
    123  CZ       -47.1910   30.1610    5.5370 C.ar  742  TYR742      0.1957
    124  OH       -48.5060   30.2670    5.1520 O.3   742  TYR742     -0.2866
    125  N        -45.5940   34.3330    8.7730 N.3   853  ASN853     -0.1240
    126  CA       -46.6780   33.4410    9.1480 C.3   853  ASN853      0.1653
    127  C        -47.8430   34.2210    9.7410 C.2   853  ASN853      0.2266
    128  O        -48.9960   33.9150    9.4650 O.2   853  ASN853     -0.2867
    129  CB       -46.1970   32.3860   10.1420 C.3   853  ASN853      0.1155
    130  CG       -47.2670   31.3580   10.4590 C.2   853  ASN853      0.2627
    131  OD1      -47.8750   31.3850   11.5300 O.2   853  ASN853     -0.2716
    132  ND2      -47.5100   30.4500    9.5200 N.am  853  ASN853     -0.0877
    133  N        -51.4180   33.9230    7.8800 N.3   857  GLN857     -0.1245
    134  CA       -52.3910   33.2700    8.7530 C.3   857  GLN857      0.1566
    135  C        -53.4360   34.2640    9.2260 C.2   857  GLN857      0.2260
    136  O        -54.5760   33.8950    9.4880 O.2   857  GLN857     -0.2867
    137  CB       -51.6980   32.6230    9.9500 C.3   857  GLN857      0.0367
    138  CG       -52.4650   31.4930   10.5920 C.3   857  GLN857      0.0905
    139  CD       -51.5470   30.4410   11.1800 C.2   857  GLN857      0.2608
    140  OE1      -51.8680   29.8050   12.1810 O.2   857  GLN857     -0.2717
    141  NE2      -50.3980   30.2470   10.5520 N.am  857  GLN857     -0.0878
    142  N        -55.8170   34.4550    6.6510 N.3   860  ALA860     -0.1245
    143  CA       -56.6890   33.2940    6.8070 C.3   860  ALA860      0.1562
    144  C        -57.7670   33.5180    7.8690 C.2   860  ALA860      0.2260
    145  O        -58.9080   33.0810    7.7100 O.2   860  ALA860     -0.2867
    146  CB       -55.8660   32.0580    7.1500 C.3   860  ALA860      0.0290
    147  N        -60.6390   26.7190   11.7540 N.3   889  HIS889     -0.1226
    148  CA       -59.6690   27.4910   10.9780 C.3   889  HIS889      0.1752
    149  C        -60.0230   27.5830    9.4950 C.2   889  HIS889      0.2596
    150  O        -60.5480   28.5890    9.0250 O.2   889  HIS889     -0.2718
    151  CB       -58.2760   26.8850   11.1420 C.3   889  HIS889      0.0759
    152  CG       -57.8050   26.8400   12.5610 C.ar  889  HIS889      0.0818
    153  ND1      -58.4290   27.5370   13.5720 N.ar  889  HIS889     -0.2268
    154  CD2      -56.7700   26.1840   13.1350 C.ar  889  HIS889      0.1154
    155  CE1      -57.7980   27.3120   14.7120 C.ar  889  HIS889      0.1986
    156  NE2      -56.7880   26.4950   14.4730 N.ar  889  HIS889     -0.2212
    157  N        -59.7200   26.5230    8.7590 N.am  890  ASP890     -0.1974
    158  CA       -60.0280   26.4670    7.3390 C.3   890  ASP890      0.1709
    159  C        -61.4820   26.0600    7.1200 C.2   890  ASP890      0.2293
    160  O        -62.2120   26.7000    6.3650 O.2   890  ASP890     -0.2864
    161  CB       -59.0970   25.4770    6.6350 C.3   890  ASP890      0.1436
    162  CG       -59.2680   25.4820    5.1290 C.2   890  ASP890      0.3671
    163  OD1      -60.3730   25.1570    4.6470 O.co2 890  ASP890     -0.2456
    164  OD2      -58.2890   25.7860    4.4230 O.co2 890  ASP890     -0.2456
@<TRIPOS>BOND
     1    59    60    1
     2    61    62    2
     3    61    60    1
     4    60    63    1
     5    79    77    1
     6    76    75    1
     7    76    77    2
     8    30    29    2
     9    63    64    1
    10    75    74    1
    11    77    78    1
    12    64    66   ar
    13    64    65   ar
    14    66    68   ar
    15    29    35   am
    16    29    28    1
    17    74    73    1
    18    34    32   ar
    19    35    36    1
    20    32    33   ar
    21    32    31    1
    22    73    70    1
    23    40    39    1
    24    31    28    1
    25    65    67   ar
    26    68    67   ar
    27    38    37    2
    28    28    27    1
    29    70    69    1
    30    70    71    1
    31    36    39    1
    32    36    37    1
    33    37    41   am
    34    27    22   am
    35    72    71    2
    36    80    81    1
    37    44    43    2
    38    53    52    2
    39    41    42    1
    40    22    21    1
    41    22    23    2
    42    15    14    2
    43    52    51    1
    44    25    24    1
    45    81    84    1
    46    81    82    1
    47    42    43    1
    48    42    45    1
    49    43    50   am
    50   108   107    1
    51   105   107   ar
    52   105   103   ar
    53    21    24    1
    54    21    20    1
    55    84    85    1
    56   107   106   ar
    57    97    98    1
    58    87    88    1
    59    87    86    1
    60    50    51    1
    61    24    26    1
    62    14    20   am
    63    14    13    1
    64   103   102   ar
    65    82    83    2
    66    82    89   am
    67    85    86    1
    68    51    54    1
    69    45    46    1
    70    18    17   ar
    71   106   104   ar
    72    12    13    1
    73    89    90    1
    74    98   101    1
    75    98    99    1
    76   102   104   ar
    77   102   101    1
    78    13    16    1
    79    54    55    1
    80    16    17    1
    81    91    92    2
    82    91    90    1
    83    46    47    1
    84    17    19   ar
    85   111   112    2
    86   111   110    1
    87    99   109   am
    88    99   100    2
    89   109   110    1
    90    90    93    1
    91   113   114    1
    92   164   162   ar
    93   163   162   ar
    94    48    47    2
    95    55    56    1
    96    47    49   am
    97   121   119   ar
    98   121   123   ar
    99   162   161    1
   100   124   123    1
   101    93    94    1
   102    93    95    1
   103   119   118   ar
   104   123   122   ar
   105   114   115    1
   106   114   117    1
   107    56    57   ar
   108    56    58   ar
   109    94    96    1
   110   115   116    2
   111   118   120   ar
   112   118   117    1
   113   160   159    2
   114   122   120   ar
   115   161   158    1
   116   142   143    1
   117   143   146    1
   118   143   144    1
   119   159   158    1
   120   158   157    1
   121   145   144    2
   122   133   134    1
   123   134   135    1
   124   134   137    1
   125   157   149   am
   126   125   126    1
   127   150   149    2
   128   126   127    1
   129   126   129    1
   130   135   136    2
   131   128   127    2
   132   149   148    1
   133   132   130   am
   134   137   138    1
   135   129   130    1
   136    11     9    1
   137   130   131    2
   138   141   139   am
   139   138   139    1
   140   148   151    1
   141   148   147    1
   142   151   152    1
   143   139   140    2
   144     9    10    1
   145     9     8    2
   146     8     7    1
   147   152   154   ar
   148   152   153   ar
   149   154   156   ar
   150   153   155   ar
   151     7     6    1
   152   156   155   ar
   153     6     5    1
   154     5     2    1
   155     2     1    1
   156     2     3    1
   157     3     4    2
