@<TRIPOS>MOLECULE
tmp/5c53A01.pdb
 97 90 0 0 0
SMALL
GASTEIGER

@<TRIPOS>ATOM
      1  N         32.7420   56.4310  -25.3580 N.3   640  ARG640     -0.1245
      2  CA        31.4990   57.1130  -25.6950 C.3   640  ARG640      0.1563
      3  C         30.9330   57.8360  -24.4830 C.2   640  ARG640      0.2260
      4  O         31.4010   57.6480  -23.3600 O.2   640  ARG640     -0.2867
      5  CB        30.4620   56.1250  -26.2370 C.3   640  ARG640      0.0307
      6  CG        30.5940   55.8180  -27.7170 C.3   640  ARG640      0.0489
      7  CD        29.3160   55.2070  -28.2600 C.3   640  ARG640      0.2205
      8  NE        29.3410   55.0880  -29.7150 N.pl3 640  ARG640     -0.0865
      9  CZ        28.2960   54.7260  -30.4520 C.cat 640  ARG640      0.5346
     10  NH1       27.1360   54.4480  -29.8750 N.pl3 640  ARG640      0.1354
     11  NH2       28.4100   54.6440  -31.7700 N.pl3 640  ARG640      0.1354
     12  N         20.6560   60.0360  -22.8790 N.3   647  LEU647     -0.1245
     13  CA        21.1890   59.1750  -23.9240 C.3   647  LEU647      0.1561
     14  C         20.2350   58.0200  -24.2040 C.2   647  LEU647      0.2260
     15  O         20.3000   57.3970  -25.2620 O.2   647  LEU647     -0.2867
     16  CB        22.5750   58.6560  -23.5410 C.3   647  LEU647      0.0270
     17  CG        23.6740   59.7230  -23.5430 C.3   647  LEU647      0.0019
     18  CD1       25.0230   59.1150  -23.2080 C.3   647  LEU647      0.0001
     19  CD2       23.7350   60.4350  -24.8830 C.3   647  LEU647      0.0001
     20  N         12.3500   58.7530  -28.5300 N.3   651  ASN651     -0.1240
     21  CA        12.1120   59.6640  -29.6420 C.3   651  ASN651      0.1653
     22  C         10.6660   60.1390  -29.7050 C.2   651  ASN651      0.2266
     23  O          9.8840   59.9100  -28.7820 O.2   651  ASN651     -0.2867
     24  CB        12.5000   58.9990  -30.9630 C.3   651  ASN651      0.1155
     25  CG        14.0010   58.9830  -31.1890 C.2   651  ASN651      0.2627
     26  OD1       14.7090   59.9140  -30.8040 O.2   651  ASN651     -0.2716
     27  ND2       14.4920   57.9230  -31.8170 N.am  651  ASN651     -0.0877
     28  N         12.4620   64.6140  -25.5200 N.3   662  LYS662     -0.1245
     29  CA        13.5150   65.0630  -26.4180 C.3   662  LYS662      0.1561
     30  C         13.2380   66.4680  -26.9510 C.2   662  LYS662      0.2260
     31  O         14.1610   67.2590  -27.1410 O.2   662  LYS662     -0.2867
     32  CB        13.6680   64.0790  -27.5790 C.3   662  LYS662      0.0271
     33  CG        15.0150   64.1340  -28.2780 C.3   662  LYS662      0.0035
     34  CD        16.1350   63.7000  -27.3490 C.3   662  LYS662      0.0206
     35  CE        17.4280   63.4980  -28.1180 C.3   662  LYS662      0.1093
     36  NZ        17.2660   62.4830  -29.1950 N.3   662  LYS662     -0.1314
     37  N         23.0390   65.0720  -38.0600 N.3   677  ASP677     -0.1239
     38  CA        23.2560   63.6540  -37.8050 C.3   677  ASP677      0.1674
     39  C         24.0350   63.0250  -38.9570 C.2   677  ASP677      0.2266
     40  O         23.6490   63.1500  -40.1190 O.2   677  ASP677     -0.2867
     41  CB        21.9180   62.9360  -37.6050 C.3   677  ASP677      0.1410
     42  CG        22.0820   61.4520  -37.3320 C.2   677  ASP677      0.3668
     43  OD1       22.1050   60.6660  -38.3020 O.co2 677  ASP677     -0.2456
     44  OD2       22.1800   61.0690  -36.1470 O.co2 677  ASP677     -0.2456
     45  N         27.8730   56.9930  -40.4410 N.3   681  GLN681     -0.1245
     46  CA        29.2550   56.9730  -39.9750 C.3   681  GLN681      0.1566
     47  C         29.8910   55.5850  -40.0600 C.2   681  GLN681      0.2260
     48  O         30.7790   55.3690  -40.8780 O.2   681  GLN681     -0.2867
     49  CB        29.3540   57.5130  -38.5430 C.3   681  GLN681      0.0367
     50  CG        28.2900   57.0170  -37.5790 C.3   681  GLN681      0.0905
     51  CD        28.5100   57.5310  -36.1730 C.2   681  GLN681      0.2608
     52  OE1       29.2660   58.4770  -35.9580 O.2   681  GLN681     -0.2717
     53  NE2       27.8540   56.9040  -35.2050 N.am  681  GLN681     -0.0878
     54  N         25.0050   63.5400  -29.1540 N.3   888  ILE888     -0.1231
     55  CA        24.5470   62.1780  -28.8970 C.3   888  ILE888      0.1692
     56  C         25.1430   61.2080  -29.9200 C.2   888  ILE888      0.2592
     57  O         24.5130   60.8830  -30.9310 O.2   888  ILE888     -0.2718
     58  CB        23.0000   62.0690  -28.9190 C.3   888  ILE888      0.0266
     59  CG1       22.3980   62.9670  -30.0070 C.3   888  ILE888      0.0019
     60  CG2       22.4180   62.4210  -27.5570 C.3   888  ILE888      0.0020
     61  CD1       21.8900   64.3160  -29.5150 C.3   888  ILE888      0.0001
     62  N         26.3710   60.7680  -29.6460 N.am  889  HIS889     -0.1962
     63  CA        27.0720   59.7790  -30.4670 C.3   889  HIS889      0.1787
     64  C         27.1640   60.1820  -31.9360 C.2   889  HIS889      0.2620
     65  O         28.1430   60.7920  -32.3670 O.2   889  HIS889     -0.2715
     66  CB        26.3880   58.4140  -30.3470 C.3   889  HIS889      0.0785
     67  CG        26.3430   57.8810  -28.9480 C.ar  889  HIS889      0.0821
     68  ND1       27.0170   58.4750  -27.9020 N.ar  889  HIS889     -0.2267
     69  CD2       25.7030   56.8110  -28.4230 C.ar  889  HIS889      0.1154
     70  CE1       26.7950   57.7920  -26.7940 C.ar  889  HIS889      0.1986
     71  NE2       26.0000   56.7760  -27.0820 N.ar  889  HIS889     -0.2212
     72  N         26.1380   59.8270  -32.7000 N.am  890  ASP890     -0.1957
     73  CA        26.0860   60.1340  -34.1220 C.3   890  ASP890      0.1840
     74  C         25.7220   61.5970  -34.3410 C.2   890  ASP890      0.2621
     75  O         26.3300   62.2860  -35.1620 O.2   890  ASP890     -0.2715
     76  CB        25.0750   59.2170  -34.8210 C.3   890  ASP890      0.1450
     77  CG        25.1150   59.3330  -36.3370 C.2   890  ASP890      0.3671
     78  OD1       25.0180   60.4590  -36.8670 O.co2 890  ASP890     -0.2456
     79  OD2       25.2390   58.2850  -37.0050 O.co2 890  ASP890     -0.2456
     80  N         24.7260   62.0660  -33.5970 N.am  891  GLU891     -0.1977
     81  CA        24.1760   63.3980  -33.8130 C.3   891  GLU891      0.1602
     82  C         24.8810   64.4380  -32.9460 C.2   891  GLU891      0.2287
     83  O         25.5020   64.0970  -31.9410 O.2   891  GLU891     -0.2864
     84  CB        22.6710   63.3930  -33.5290 C.3   891  GLU891      0.0415
     85  CG        21.9030   64.5430  -34.1570 C.3   891  GLU891      0.1163
     86  CD        20.4180   64.4850  -33.8600 C.2   891  GLU891      0.3649
     87  OE1       20.0080   63.6500  -33.0260 O.co2 891  GLU891     -0.2457
     88  OE2       19.6610   65.2740  -34.4610 O.co2 891  GLU891     -0.2457
     89  N         14.0850   64.7870  -33.8480 N.3   946  LYS946     -0.1245
     90  CA        14.6050   63.9410  -34.9170 C.3   946  LYS946      0.1561
     91  C         14.3770   64.5810  -36.2830 C.2   946  LYS946      0.2260
     92  O         15.2960   65.1460  -36.8760 O.2   946  LYS946     -0.2867
     93  CB        13.9620   62.5500  -34.8740 C.3   946  LYS946      0.0271
     94  CG        14.0960   61.8300  -33.5380 C.3   946  LYS946      0.0035
     95  CD        12.9160   62.1280  -32.6230 C.3   946  LYS946      0.0206
     96  CE        13.3670   62.7990  -31.3350 C.3   946  LYS946      0.1093
     97  NZ        12.2140   63.2030  -30.4870 N.3   946  LYS946     -0.1314
@<TRIPOS>BOND
     1    48    47    2
     2    45    46    1
     3    40    39    2
     4    47    46    1
     5    46    49    1
     6    39    38    1
     7    49    50    1
     8    43    42   ar
     9    37    38    1
    10    38    41    1
    11    41    42    1
    12    50    51    1
    13    42    44   ar
    14    79    77   ar
    15    92    91    2
    16    78    77   ar
    17    77    76    1
    18    91    90    1
    19    51    52    2
    20    51    53   am
    21    75    74    2
    22    90    93    1
    23    90    89    1
    24    93    94    1
    25    76    73    1
    26    88    86   ar
    27    74    73    1
    28    74    80   am
    29    85    86    1
    30    85    84    1
    31    73    72    1
    32    86    87   ar
    33    81    80    1
    34    81    84    1
    35    81    82    1
    36    94    95    1
    37    82    83    2
    38    72    64   am
    39    95    96    1
    40    65    64    2
    41    64    63    1
    42    27    25   am
    43    11     9    1
    44    96    97    1
    45    25    24    1
    46    25    26    2
    47    24    21    1
    48    57    56    2
    49    63    66    1
    50    63    62    1
    51     9    10    1
    52     9     8    2
    53    66    67    1
    54    59    61    1
    55    59    58    1
    56    56    62   am
    57    56    55    1
    58     8     7    1
    59    22    21    1
    60    22    23    2
    61    21    20    1
    62    36    35    1
    63    54    55    1
    64    67    69   ar
    65    67    68   ar
    66    58    55    1
    67    58    60    1
    68    69    71   ar
    69    33    32    1
    70    33    34    1
    71     7     6    1
    72    35    34    1
    73    68    70   ar
    74     6     5    1
    75    32    29    1
    76    31    30    2
    77    71    70   ar
    78    30    29    1
    79    29    28    1
    80     5     2    1
    81     2     1    1
    82     2     3    1
    83    15    14    2
    84    19    17    1
    85     3     4    2
    86    14    13    1
    87    13    16    1
    88    13    12    1
    89    17    16    1
    90    17    18    1
