@<TRIPOS>MOLECULE
tmp/5c5jB00.pdb
 155 150 0 0 0
SMALL
GASTEIGER

@<TRIPOS>ATOM
      1  N         -9.3660   21.9190  -55.0610 N.3     9  ASP9       -0.1225
      2  CA        -9.2380   22.5840  -53.7670 C.3     9  ASP9        0.1805
      3  C        -10.1660   23.7930  -53.7470 C.2     9  ASP9        0.2598
      4  O         -9.9120   24.7720  -54.4520 O.2     9  ASP9       -0.2718
      5  CB        -7.7760   22.9940  -53.5330 C.3     9  ASP9        0.1424
      6  CG        -7.5100   23.4930  -52.1100 C.2     9  ASP9        0.3668
      7  OD1       -8.4040   24.1340  -51.5130 O.co2   9  ASP9       -0.2456
      8  OD2       -6.3940   23.2470  -51.5900 O.co2   9  ASP9       -0.2456
      9  N        -11.2260   23.7390  -52.9430 N.am   10  MET10      -0.1965
     10  CA       -12.1290   24.8810  -52.8130 C.3    10  MET10       0.1736
     11  C        -11.4200   26.0940  -52.2070 C.2    10  MET10       0.2616
     12  O        -10.5870   25.9610  -51.3120 O.2    10  MET10      -0.2715
     13  CB       -13.3260   24.5140  -51.9390 C.3    10  MET10       0.0427
     14  CG       -14.0670   23.2440  -52.3500 C.3    10  MET10       0.0599
     15  SD       -14.9200   23.4450  -53.9240 S.3    10  MET10      -0.1393
     16  CE       -15.7590   25.0010  -53.6700 C.3    10  MET10       0.0692
     17  N        -11.7850   27.2870  -52.6800 N.am   11  ASP11      -0.1957
     18  CA       -11.1530   28.5330  -52.2590 C.3    11  ASP11       0.1840
     19  C        -11.8560   29.0690  -51.0170 C.2    11  ASP11       0.2622
     20  O        -13.0740   29.2840  -51.0420 O.2    11  ASP11      -0.2715
     21  CB       -11.2080   29.5710  -53.3830 C.3    11  ASP11       0.1450
     22  CG       -10.6380   29.0560  -54.6950 C.2    11  ASP11       0.3671
     23  OD1       -9.4550   28.6690  -54.7210 O.co2  11  ASP11      -0.2456
     24  OD2      -11.3590   29.0560  -55.7140 O.co2  11  ASP11      -0.2456
     25  N        -11.0920   29.2990  -49.9410 N.am   12  CYS12      -0.1954
     26  CA       -11.6240   29.8440  -48.6860 C.3    12  CYS12       0.1843
     27  C        -12.9320   29.1590  -48.2890 C.2    12  CYS12       0.2625
     28  O        -13.9490   29.8040  -48.0240 O.2    12  CYS12      -0.2714
     29  CB       -11.8090   31.3550  -48.7840 C.3    12  CYS12       0.0997
     30  SG       -10.2670   32.1700  -49.1380 S.3    12  CYS12      -0.0797
     31  N        -12.8750   27.8280  -48.2260 N.am   13  PHE13      -0.1960
     32  CA       -14.0890   27.0220  -48.2290 C.3    13  PHE13       0.1771
     33  C        -15.1420   27.5690  -47.2700 C.2    13  PHE13       0.2619
     34  O        -16.2390   27.9360  -47.6980 O.2    13  PHE13      -0.2715
     35  CB       -13.7590   25.5670  -47.9070 C.3    13  PHE13       0.0574
     36  CG       -14.9320   24.6550  -48.0340 C.ar   13  PHE13      -0.0200
     37  CD1      -15.7990   24.7790  -49.1120 C.ar   13  PHE13      -0.0042
     38  CD2      -15.1730   23.6770  -47.0860 C.ar   13  PHE13      -0.0042
     39  CE1      -16.8800   23.9470  -49.2420 C.ar   13  PHE13      -0.0003
     40  CE2      -16.2550   22.8380  -47.2120 C.ar   13  PHE13      -0.0003
     41  CZ       -17.1140   22.9740  -48.2930 C.ar   13  PHE13      -0.0000
     42  N        -14.8170   27.6710  -45.9730 N.am   14  PHE14      -0.1974
     43  CA       -15.8510   28.0410  -45.0040 C.3    14  PHE14       0.1639
     44  C        -16.3430   29.4650  -45.2370 C.2    14  PHE14       0.2290
     45  O        -17.5440   29.7290  -45.1390 O.2    14  PHE14      -0.2864
     46  CB       -15.3580   27.9000  -43.5580 C.3    14  PHE14       0.0560
     47  CG       -15.0640   26.4800  -43.1200 C.ar   14  PHE14      -0.0200
     48  CD1      -15.3110   25.3930  -43.9510 C.ar   14  PHE14      -0.0042
     49  CD2      -14.5390   26.2430  -41.8550 C.ar   14  PHE14      -0.0042
     50  CE1      -15.0290   24.0960  -43.5300 C.ar   14  PHE14      -0.0003
     51  CE2      -14.2580   24.9620  -41.4280 C.ar   14  PHE14      -0.0003
     52  CZ       -14.4970   23.8830  -42.2640 C.ar   14  PHE14      -0.0000
     53  N         -8.6720   31.0450  -35.5090 N.3    42  ILE42      -0.1231
     54  CA        -9.3050   31.2110  -36.8150 C.3    42  ILE42       0.1692
     55  C         -9.2270   29.8930  -37.5770 C.2    42  ILE42       0.2593
     56  O         -8.1500   29.2980  -37.6910 O.2    42  ILE42      -0.2718
     57  CB        -8.6280   32.3410  -37.6110 C.3    42  ILE42       0.0266
     58  CG1       -8.6380   33.6410  -36.8070 C.3    42  ILE42       0.0019
     59  CG2       -9.3130   32.5170  -38.9750 C.3    42  ILE42       0.0020
     60  CD1      -10.0360   34.0530  -36.3560 C.3    42  ILE42       0.0001
     61  N        -10.3700   29.4360  -38.1090 N.am   43  SER43      -0.1938
     62  CA       -10.3810   28.3030  -39.0350 C.3    43  SER43       0.2055
     63  C         -9.9420   28.7360  -40.4270 C.2    43  SER43       0.2643
     64  O         -9.1260   28.0630  -41.0650 O.2    43  SER43      -0.2714
     65  CB       -11.7820   27.6710  -39.1140 C.3    43  SER43       0.2130
     66  OG       -11.9360   26.5640  -38.2370 O.3    43  SER43      -0.2179
     67  N        -10.5000   29.8440  -40.9180 N.am   44  THR44      -0.1950
     68  CA       -10.1790   30.3990  -42.2300 C.3    44  THR44       0.1897
     69  C        -10.7650   31.8070  -42.3190 C.2    44  THR44       0.2313
     70  O        -11.5930   32.2140  -41.4980 O.2    44  THR44      -0.2863
     71  CB       -10.7070   29.5230  -43.3740 C.3    44  THR44       0.1794
     72  OG1      -10.3350   30.1060  -44.6340 O.3    44  THR44      -0.2208
     73  CG2      -12.2210   29.4160  -43.3080 C.3    44  THR44       0.0378
     74  N        -10.5190   36.7970  -48.4680 N.3    47  TYR47      -0.1241
     75  CA        -9.3790   37.5820  -48.9370 C.3    47  TYR47       0.1605
     76  C         -9.3420   38.9970  -48.3730 C.2    47  TYR47       0.2264
     77  O         -8.2330   39.4890  -48.1060 O.2    47  TYR47      -0.2867
     78  CB        -9.3330   37.5800  -50.4700 C.3    47  TYR47       0.0534
     79  CG        -8.7160   36.2950  -51.0150 C.ar   47  TYR47      -0.0201
     80  CD1       -7.3410   36.1350  -51.0760 C.ar   47  TYR47      -0.0009
     81  CD2       -9.5160   35.2340  -51.4320 C.ar   47  TYR47      -0.0009
     82  CE1       -6.7710   34.9570  -51.5620 C.ar   47  TYR47       0.0417
     83  CE2       -8.9620   34.0550  -51.9160 C.ar   47  TYR47       0.0417
     84  CZ        -7.5890   33.9230  -51.9780 C.ar   47  TYR47       0.1957
     85  OH        -7.0260   32.7550  -52.4580 O.3    47  TYR47      -0.2866
     86  N         -7.4560   38.4590  -45.1970 N.3    50  ARG50      -0.1245
     87  CA        -6.0510   38.0810  -45.3470 C.3    50  ARG50       0.1563
     88  C         -5.1740   39.2520  -45.7490 C.2    50  ARG50       0.2260
     89  O         -3.9570   39.1930  -45.5630 O.2    50  ARG50      -0.2867
     90  CB        -5.8920   36.9760  -46.3850 C.3    50  ARG50       0.0307
     91  CG        -6.8140   35.8200  -46.2190 C.3    50  ARG50       0.0489
     92  CD        -6.2660   34.6430  -46.9690 C.3    50  ARG50       0.2205
     93  NE        -7.3010   33.6710  -47.2610 N.pl3  50  ARG50      -0.0865
     94  CZ        -7.5330   32.5990  -46.5170 C.cat  50  ARG50       0.5346
     95  NH1       -6.8020   32.3910  -45.4230 N.pl3  50  ARG50       0.1354
     96  NH2       -8.4960   31.7470  -46.8590 N.pl3  50  ARG50       0.1354
     97  N         -5.2600   31.1050  -41.2760 N.3    56  SER56      -0.1202
     98  CA        -5.6930   29.9110  -40.5680 C.3    56  SER56       0.2020
     99  C         -4.7470   29.6000  -39.4150 C.2    56  SER56       0.2618
    100  O         -3.5380   29.8350  -39.4980 O.2    56  SER56      -0.2717
    101  CB        -5.7580   28.7290  -41.5240 C.3    56  SER56       0.2103
    102  OG        -6.8040   28.9220  -42.4530 O.3    56  SER56      -0.2182
    103  N         -5.3210   29.0750  -38.3290 N.am   57  ALA57      -0.1979
    104  CA        -4.6420   28.6460  -37.1070 C.3    57  ALA57       0.1597
    105  C         -4.2030   29.8250  -36.2470 C.2    57  ALA57       0.2287
    106  O         -3.6830   29.6140  -35.1500 O.2    57  ALA57      -0.2864
    107  CB        -3.4220   27.7470  -37.3840 C.3    57  ALA57       0.0319
    108  N        -10.0130   16.1840  -46.9780 N.3   102  SER102     -0.1202
    109  CA       -10.7170   17.0400  -46.0390 C.3   102  SER102      0.2020
    110  C        -12.0890   17.2470  -46.6650 C.2   102  SER102      0.2619
    111  O        -12.4010   16.6300  -47.6910 O.2   102  SER102     -0.2717
    112  CB        -9.9670   18.3540  -45.8090 C.3   102  SER102      0.2103
    113  OG       -10.0830   19.2090  -46.9380 O.3   102  SER102     -0.2182
    114  N        -12.9110   18.1200  -46.0790 N.am  103  LEU103     -0.1965
    115  CA       -14.2080   18.3860  -46.6980 C.3   103  LEU103      0.1728
    116  C        -14.0710   19.0200  -48.0740 C.2   103  LEU103      0.2616
    117  O        -14.9140   18.7820  -48.9450 O.2   103  LEU103     -0.2715
    118  CB       -15.0730   19.2950  -45.8170 C.3   103  LEU103      0.0311
    119  CG       -15.2600   18.7970  -44.3920 C.3   103  LEU103      0.0022
    120  CD1      -15.8420   19.8970  -43.4840 C.3   103  LEU103      0.0001
    121  CD2      -16.1290   17.5460  -44.4040 C.3   103  LEU103      0.0001
    122  N        -13.0250   19.8210  -48.2980 N.am  104  ASP104     -0.1957
    123  CA       -12.9800   20.6350  -49.5050 C.3   104  ASP104      0.1840
    124  C        -11.7860   20.3250  -50.4050 C.2   104  ASP104      0.2621
    125  O        -11.4650   21.1220  -51.2940 O.2   104  ASP104     -0.2715
    126  CB       -12.9800   22.1120  -49.1330 C.3   104  ASP104      0.1450
    127  CG       -11.6390   22.5730  -48.5870 C.2   104  ASP104      0.3671
    128  OD1      -11.0260   21.8590  -47.7550 O.co2 104  ASP104     -0.2456
    129  OD2      -11.1890   23.6460  -49.0280 O.co2 104  ASP104     -0.2456
    130  N        -11.1140   19.1970  -50.2090 N.am  105  GLU105     -0.1977
    131  CA        -9.9660   18.8420  -51.0300 C.3   105  GLU105      0.1602
    132  C        -10.0700   17.3750  -51.4210 C.2   105  GLU105      0.2287
    133  O        -10.5600   16.5470  -50.6430 O.2   105  GLU105     -0.2864
    134  CB        -8.6240   19.0750  -50.2930 C.3   105  GLU105      0.0415
    135  CG        -8.3290   20.5220  -49.8860 C.3   105  GLU105      0.1163
    136  CD        -6.9010   20.6970  -49.3880 C.2   105  GLU105      0.3649
    137  OE1       -6.1610   19.6800  -49.3610 O.co2 105  GLU105     -0.2457
    138  OE2       -6.5150   21.8440  -49.0440 O.co2 105  GLU105     -0.2457
    139  N         -2.4080   25.3970  -55.8300 N.3   155  ASP155     -0.1239
    140  CA        -2.2430   26.6830  -55.1740 C.3   155  ASP155      0.1674
    141  C         -1.6840   27.7700  -56.0930 C.2   155  ASP155      0.2266
    142  O         -1.7840   28.9540  -55.7560 O.2   155  ASP155     -0.2867
    143  CB        -1.3360   26.5240  -53.9500 C.3   155  ASP155      0.1410
    144  CG        -2.0170   25.7660  -52.8220 C.2   155  ASP155      0.3668
    145  OD1       -3.2230   26.0090  -52.5800 O.co2 155  ASP155     -0.2456
    146  OD2       -1.3550   24.9220  -52.1780 O.co2 155  ASP155     -0.2456
    147  N         -4.4350   30.3470  -57.5420 N.3   158  LYS158     -0.1245
    148  CA        -5.5560   30.5500  -56.6290 C.3   158  LYS158      0.1561
    149  C         -5.8310   32.0300  -56.4380 C.2   158  LYS158      0.2260
    150  O         -4.9020   32.8230  -56.3780 O.2   158  LYS158     -0.2867
    151  CB        -5.2610   29.9090  -55.2760 C.3   158  LYS158      0.0271
    152  CG        -6.3410   29.0090  -54.8050 C.3   158  LYS158      0.0035
    153  CD        -6.0960   28.4980  -53.4010 C.3   158  LYS158      0.0206
    154  CE        -7.1460   27.4480  -53.0490 C.3   158  LYS158      0.1093
    155  NZ        -6.6670   26.0760  -53.3920 N.3   158  LYS158     -0.1314
@<TRIPOS>BOND
     1   147   148    1
     2   148   149    1
     3   148   151    1
     4   149   150    2
     5   141   142    2
     6   141   140    1
     7   139   140    1
     8    24    22   ar
     9   151   152    1
    10   140   143    1
    11     1     2    1
    12   152   153    1
    13    23    22   ar
    14    22    21    1
    15     4     3    2
    16   143   144    1
    17    15    16    1
    18    15    14    1
    19     2     3    1
    20     2     5    1
    21     3     9   am
    22     5     6    1
    23   153   154    1
    24   155   154    1
    25    21    18    1
    26     9    10    1
    27   144   145   ar
    28   144   146   ar
    29    10    11    1
    30    10    13    1
    31    17    18    1
    32    17    11   am
    33    85    84    1
    34    14    13    1
    35    18    19    1
    36    11    12    2
    37     6     8   ar
    38     6     7   ar
    39    84    83   ar
    40    84    82   ar
    41    83    81   ar
    42    82    80   ar
    43    81    79   ar
    44   132   131    1
    45   132   133    2
    46   125   124    2
    47    80    79   ar
    48    20    19    2
    49   131   134    1
    50   131   130    1
    51    19    25   am
    52    79    78    1
    53    78    75    1
    54   124   130   am
    55   124   123    1
    56   134   135    1
    57    25    26    1
    58   135   136    1
    59   123   126    1
    60   123   122    1
    61   136   137   ar
    62   136   138   ar
    63    39    37   ar
    64    39    41   ar
    65    30    29    1
    66   126   127    1
    67    37    36   ar
    68   129   127   ar
    69   117   116    2
    70    75    74    1
    71    75    76    1
    72    29    26    1
    73    26    27    1
    74   127   128   ar
    75    76    77    2
    76   122   116   am
    77    41    40   ar
    78    27    31   am
    79    27    28    2
    80    32    31    1
    81    32    35    1
    82    32    33    1
    83   116   115    1
    84    36    35    1
    85    36    38   ar
    86    34    33    2
    87   111   110    2
    88    33    42   am
    89    93    92    1
    90    93    94    2
    91    40    38   ar
    92   108   109    1
    93    92    91    1
    94   113   112    1
    95    96    94    1
    96   115   114    1
    97   115   118    1
    98   110   114   am
    99   110   109    1
   100    94    95    1
   101    90    91    1
   102    90    87    1
   103   109   112    1
   104    42    43    1
   105   118   119    1
   106    88    89    2
   107    88    87    1
   108    87    86    1
   109    44    45    2
   110    44    43    1
   111    43    46    1
   112    72    71    1
   113   121   119    1
   114   119   120    1
   115    48    50   ar
   116    48    47   ar
   117    46    47    1
   118    50    52   ar
   119    71    73    1
   120    71    68    1
   121    47    49   ar
   122   102   101    1
   123    69    68    1
   124    69    70    2
   125    52    51   ar
   126    68    67    1
   127    49    51   ar
   128   101    98    1
   129    97    98    1
   130    64    63    2
   131    67    63   am
   132    98    99    1
   133    63    62    1
   134   100    99    2
   135    99   103   am
   136    65    62    1
   137    65    66    1
   138    62    61    1
   139    59    57    1
   140   103   104    1
   141    61    55   am
   142    56    55    2
   143    57    54    1
   144    57    58    1
   145    55    54    1
   146   107   104    1
   147   104   105    1
   148    54    53    1
   149    58    60    1
   150   105   106    2
