@<TRIPOS>MOLECULE
tmp/5c5pA00.pdb
 154 157 0 0 0
SMALL
GASTEIGER

@<TRIPOS>ATOM
      1  N          4.4550   40.8280    8.4230 N.3    79  PHE79      -0.1227
      2  CA         4.6510   39.8180    9.4640 C.3    79  PHE79       0.1736
      3  C          4.8240   40.4210   10.8560 C.2    79  PHE79       0.2595
      4  O          5.2880   41.5530   11.0030 O.2    79  PHE79      -0.2718
      5  CB         5.8630   38.9410    9.1290 C.3    79  PHE79       0.0547
      6  CG         5.6830   38.1110    7.8890 C.ar   79  PHE79      -0.0202
      7  CD1        4.9100   36.9590    7.9140 C.ar   79  PHE79      -0.0042
      8  CD2        6.2660   38.4970    6.6910 C.ar   79  PHE79      -0.0042
      9  CE1        4.7200   36.2050    6.7610 C.ar   79  PHE79      -0.0003
     10  CE2        6.0800   37.7490    5.5380 C.ar   79  PHE79      -0.0003
     11  CZ         5.3050   36.6020    5.5760 C.ar   79  PHE79      -0.0000
     12  N          4.4480   39.6480   11.8750 N.am   80  HIS80      -0.1961
     13  CA         4.6890   40.0230   13.2650 C.3    80  HIS80       0.1787
     14  C          4.9580   38.7790   14.1080 C.2    80  HIS80       0.2621
     15  O          4.1210   37.8740   14.1800 O.2    80  HIS80      -0.2715
     16  CB         3.4790   40.7730   13.8300 C.3    80  HIS80       0.0785
     17  CG         3.6780   41.2820   15.2240 C.ar   80  HIS80       0.0821
     18  ND1        4.2950   42.4840   15.4960 N.ar   80  HIS80      -0.2267
     19  CD2        3.3300   40.7580   16.4250 C.ar   80  HIS80       0.1154
     20  CE1        4.3180   42.6800   16.8030 C.ar   80  HIS80       0.1986
     21  NE2        3.7380   41.6480   17.3900 N.ar   80  HIS80      -0.2212
     22  N          6.1310   38.7370   14.7340 N.am   81  GLY81      -0.1940
     23  CA         6.4540   37.6570   15.6510 C.3    81  GLY81       0.2014
     24  C          6.4720   38.1730   17.0730 C.2    81  GLY81       0.2640
     25  O          6.9240   39.2880   17.3190 O.2    81  GLY81      -0.2714
     26  N          5.9910   37.3760   18.0210 N.am   82  SER82      -0.1936
     27  CA         5.8700   37.8610   19.3870 C.3    82  SER82       0.2040
     28  C          5.5550   36.7480   20.3720 C.2    82  SER82       0.2485
     29  O          4.8100   35.8230   20.0570 O.2    82  SER82      -0.2729
     30  CB         4.7680   38.9150   19.4680 C.3    82  SER82       0.2129
     31  OG         4.5650   39.3310   20.8080 O.3    82  SER82      -0.2179
     32  N          6.1060   36.8370   21.5900 N.am   83  PRO83      -0.2715
     33  CA         5.6950   35.9240   22.6630 C.3    83  PRO83       0.1536
     34  C          4.2150   36.0930   23.0150 C.2    83  PRO83       0.2598
     35  O          3.6300   35.2480   23.6870 O.2    83  PRO83      -0.2715
     36  CB         6.6030   36.3040   23.8340 C.3    83  PRO83       0.0310
     37  CG         7.7720   36.9940   23.2020 C.3    83  PRO83       0.0237
     38  CD         7.2080   37.7180   22.0100 C.3    83  PRO83       0.0939
     39  N          3.6110   37.1860   22.5560 N.am   84  PHE84      -0.1974
     40  CA         2.2420   37.5130   22.9430 C.3    84  PHE84       0.1639
     41  C          1.2260   37.1380   21.8700 C.2    84  PHE84       0.2290
     42  O          0.0660   37.5430   21.9330 O.2    84  PHE84      -0.2864
     43  CB         2.1330   39.0040   23.2620 C.3    84  PHE84       0.0560
     44  CG         3.1900   39.4920   24.2080 C.ar   84  PHE84      -0.0200
     45  CD1        3.4990   38.7700   25.3500 C.ar   84  PHE84      -0.0042
     46  CD2        3.8890   40.6590   23.9460 C.ar   84  PHE84      -0.0042
     47  CE1        4.4920   39.2040   26.2170 C.ar   84  PHE84      -0.0003
     48  CE2        4.8810   41.0990   24.8060 C.ar   84  PHE84      -0.0003
     49  CZ         5.1830   40.3700   25.9430 C.ar   84  PHE84      -0.0000
     50  N          0.3060   46.9310   24.9940 N.3    96  ARG96      -0.1231
     51  CA         1.1160   45.8650   25.5720 C.3    96  ARG96       0.1694
     52  C          2.0730   45.2730   24.5410 C.2    96  ARG96       0.2592
     53  O          3.0630   44.6350   24.8950 O.2    96  ARG96      -0.2718
     54  CB         0.2140   44.7590   26.1250 C.3    96  ARG96       0.0321
     55  CG        -0.7030   45.2090   27.2490 C.3    96  ARG96       0.0489
     56  CD        -1.6850   44.1120   27.6230 C.3    96  ARG96       0.2205
     57  NE        -2.6750   43.8930   26.5730 N.pl3  96  ARG96      -0.0865
     58  CZ        -3.2660   42.7270   26.3340 C.cat  96  ARG96       0.5346
     59  NH1       -2.9670   41.6660   27.0720 N.pl3  96  ARG96       0.1354
     60  NH2       -4.1590   42.6220   25.3590 N.pl3  96  ARG96       0.1354
     61  N          1.7720   45.4890   23.2640 N.am   97  HIS97      -0.1962
     62  CA         2.5670   44.9150   22.1810 C.3    97  HIS97       0.1787
     63  C          3.4830   45.9540   21.5490 C.2    97  HIS97       0.2620
     64  O          4.0440   45.7340   20.4740 O.2    97  HIS97      -0.2715
     65  CB         1.6360   44.3120   21.1290 C.3    97  HIS97       0.0785
     66  CG         0.5620   43.4550   21.7190 C.ar   97  HIS97       0.0821
     67  ND1        0.8360   42.3960   22.5560 N.ar   97  HIS97      -0.2267
     68  CD2       -0.7870   43.5440   21.6540 C.ar   97  HIS97       0.1154
     69  CE1       -0.2980   41.8710   22.9850 C.ar   97  HIS97       0.1986
     70  NE2       -1.2980   42.5500   22.4540 N.ar   97  HIS97      -0.2212
     71  N          3.6270   47.0870   22.2280 N.am   98  ALA98      -0.1963
     72  CA         4.5330   48.1370   21.7830 C.3    98  ALA98       0.1728
     73  C          5.9630   47.7640   22.1400 C.2    98  ALA98       0.2616
     74  O          6.2070   47.0760   23.1330 O.2    98  ALA98      -0.2715
     75  CB         4.1610   49.4590   22.4320 C.3    98  ALA98       0.0334
     76  N          6.9030   48.2180   21.3190 N.am   99  TYR99      -0.1974
     77  CA         8.3210   47.9870   21.5560 C.3    99  TYR99       0.1639
     78  C          8.9240   49.2950   22.0490 C.2    99  TYR99       0.2290
     79  O          9.2490   50.1780   21.2550 O.2    99  TYR99      -0.2864
     80  CB         8.9950   47.5500   20.2550 C.3    99  TYR99       0.0560
     81  CG        10.4620   47.2120   20.3800 C.ar   99  TYR99      -0.0198
     82  CD1       11.0280   46.9180   21.6140 C.ar   99  TYR99      -0.0009
     83  CD2       11.2780   47.1640   19.2560 C.ar   99  TYR99      -0.0009
     84  CE1       12.3650   46.5850   21.7240 C.ar   99  TYR99       0.0417
     85  CE2       12.6120   46.8320   19.3540 C.ar   99  TYR99       0.0417
     86  CZ        13.1520   46.5430   20.5900 C.ar   99  TYR99       0.1957
     87  OH        14.4840   46.2140   20.6850 O.3    99  TYR99      -0.2866
     88  N          5.5190   47.0110   15.9090 N.3   109  TYR109     -0.1227
     89  CA         6.4170   46.8300   14.7720 C.3   109  TYR109      0.1736
     90  C          6.0230   45.6520   13.8840 C.2   109  TYR109      0.2595
     91  O          5.6370   44.5970   14.3810 O.2   109  TYR109     -0.2718
     92  CB         7.8340   46.5920   15.2720 C.3   109  TYR109      0.0548
     93  CG         8.5590   47.8330   15.7160 C.ar  109  TYR109     -0.0200
     94  CD1        8.1260   48.5610   16.8140 C.ar  109  TYR109     -0.0009
     95  CD2        9.6830   48.2770   15.0330 C.ar  109  TYR109     -0.0009
     96  CE1        8.7950   49.7040   17.2200 C.ar  109  TYR109      0.0417
     97  CE2       10.3580   49.4140   15.4310 C.ar  109  TYR109      0.0417
     98  CZ         9.9100   50.1230   16.5220 C.ar  109  TYR109      0.1957
     99  OH        10.5770   51.2620   16.9070 O.3   109  TYR109     -0.2866
    100  N          6.1530   45.8340   12.5730 N.am  110  PHE110     -0.1962
    101  CA         5.8710   44.7760   11.6070 C.3   110  PHE110      0.1771
    102  C          6.9890   44.7300   10.5710 C.2   110  PHE110      0.2619
    103  O          7.6790   45.7250   10.3600 O.2   110  PHE110     -0.2715
    104  CB         4.5330   45.0420   10.9150 C.3   110  PHE110      0.0574
    105  CG         3.3600   45.0330   11.8530 C.ar  110  PHE110     -0.0200
    106  CD1        3.0780   46.1370   12.6430 C.ar  110  PHE110     -0.0042
    107  CD2        2.5580   43.9080   11.9690 C.ar  110  PHE110     -0.0042
    108  CE1        2.0210   46.1220   13.5360 C.ar  110  PHE110     -0.0003
    109  CE2        1.4950   43.8830   12.8610 C.ar  110  PHE110     -0.0003
    110  CZ         1.2270   44.9910   13.6470 C.ar  110  PHE110     -0.0000
    111  N          7.1660   43.5850    9.9220 N.am  111  ALA111     -0.1977
    112  CA         8.2750   43.4180    8.9830 C.3   111  ALA111      0.1597
    113  C          7.8410   42.8200    7.6520 C.2   111  ALA111      0.2287
    114  O          6.9580   41.9640    7.6040 O.2   111  ALA111     -0.2864
    115  CB         9.3530   42.5380    9.6040 C.3   111  ALA111      0.0319
    116  N         12.9040   38.4720    9.7070 N.3   116  LYS116     -0.1231
    117  CA        13.0620   39.5370   10.6980 C.3   116  LYS116      0.1693
    118  C         12.0790   39.3220   11.8500 C.2   116  LYS116      0.2592
    119  O         12.4580   39.3740   13.0170 O.2   116  LYS116     -0.2718
    120  CB        12.8390   40.9090   10.0450 C.3   116  LYS116      0.0285
    121  CG        12.6870   42.0720   11.0160 C.3   116  LYS116      0.0035
    122  CD        13.8150   42.1360   12.0450 C.3   116  LYS116      0.0206
    123  CE        15.1460   42.5170   11.4120 C.3   116  LYS116      0.1093
    124  NZ        16.1690   42.8100   12.4660 N.3   116  LYS116     -0.1314
    125  N         10.8190   39.0500   11.5250 N.am  117  SER117     -0.1952
    126  CA         9.8290   38.7770   12.5660 C.3   117  SER117      0.1924
    127  C         10.1490   37.5050   13.3490 C.2   117  SER117      0.2314
    128  O          9.8460   37.4130   14.5390 O.2   117  SER117     -0.2863
    129  CB         8.4310   38.6740   11.9560 C.3   117  SER117      0.2116
    130  OG         7.9640   39.9510   11.5690 O.3   117  SER117     -0.2180
    131  N         11.8580   37.6560   16.7090 N.3   120  TYR120     -0.1241
    132  CA        11.1440   38.1100   17.9000 C.3   120  TYR120      0.1605
    133  C         10.1560   37.1000   18.4710 C.2   120  TYR120      0.2264
    134  O          9.5110   37.3670   19.4840 O.2   120  TYR120     -0.2867
    135  CB        10.4130   39.4240   17.6120 C.3   120  TYR120      0.0534
    136  CG        11.3560   40.5770   17.3730 C.ar  120  TYR120     -0.0201
    137  CD1       11.8440   40.8470   16.1020 C.ar  120  TYR120     -0.0009
    138  CD2       11.7830   41.3770   18.4250 C.ar  120  TYR120     -0.0009
    139  CE1       12.7350   41.8800   15.8840 C.ar  120  TYR120      0.0417
    140  CE2       12.6720   42.4150   18.2150 C.ar  120  TYR120      0.0417
    141  CZ        13.1440   42.6610   16.9440 C.ar  120  TYR120      0.1957
    142  OH        14.0250   43.6990   16.7270 O.3   120  TYR120     -0.2866
    143  N         11.0160   36.5470   21.7850 N.3   123  GLY123     -0.1210
    144  CA        11.2600   37.7880   22.5020 C.3   123  GLY123      0.1956
    145  C         12.3690   38.6260   21.8910 C.2   123  GLY123      0.2611
    146  O         12.9810   38.2330   20.9030 O.2   123  GLY123     -0.2717
    147  N         12.6310   39.7860   22.4860 N.am  124  ILE124     -0.1979
    148  CA        13.6940   40.6700   22.0150 C.3   124  ILE124      0.1595
    149  C         15.0290   39.9300   21.9590 C.2   124  ILE124      0.2287
    150  O         15.4300   39.2820   22.9260 O.2   124  ILE124     -0.2864
    151  CB        13.8300   41.8920   22.9440 C.3   124  ILE124      0.0276
    152  CG1       12.5450   42.7240   22.8860 C.3   124  ILE124      0.0022
    153  CG2       15.0320   42.7360   22.5350 C.3   124  ILE124      0.0022
    154  CD1       12.4070   43.7260   24.0180 C.3   124  ILE124      0.0001
@<TRIPOS>BOND
     1    10    11   ar
     2    10     8   ar
     3    11     9   ar
     4     8     6   ar
     5     9     7   ar
     6   114   113    2
     7   113   112    1
     8     6     7   ar
     9     6     5    1
    10     1     2    1
    11   112   115    1
    12   112   111    1
    13     5     2    1
    14     2     3    1
    15   116   117    1
    16   111   102   am
    17   120   117    1
    18   120   121    1
    19   103   102    2
    20   102   101    1
    21   117   118    1
    22     3     4    2
    23     3    12   am
    24   104   101    1
    25   104   105    1
    26   121   122    1
    27   123   122    1
    28   123   124    1
    29   125   118   am
    30   125   126    1
    31   130   129    1
    32   101   100    1
    33   118   119    2
    34   105   107   ar
    35   105   106   ar
    36    12    13    1
    37   129   126    1
    38   107   109   ar
    39   126   127    1
    40   100    90   am
    41   106   108   ar
    42   109   110   ar
    43    13    16    1
    44    13    14    1
    45   127   128    2
    46   108   110   ar
    47    16    17    1
    48    90    91    2
    49    90    89    1
    50    14    15    2
    51    14    22   am
    52    22    23    1
    53    89    92    1
    54    89    88    1
    55    95    97   ar
    56    95    93   ar
    57    17    18   ar
    58    17    19   ar
    59    92    93    1
    60    97    98   ar
    61    18    20   ar
    62    23    24    1
    63    93    94   ar
    64   139   137   ar
    65   139   141   ar
    66   137   136   ar
    67    19    21   ar
    68    98    99    1
    69    98    96   ar
    70   131   132    1
    71   142   141    1
    72    20    21   ar
    73    94    96   ar
    74   141   140   ar
    75    24    25    2
    76    24    26   am
    77   136   135    1
    78   136   138   ar
    79   135   132    1
    80   132   133    1
    81    26    27    1
    82   140   138   ar
    83   133   134    2
    84    83    85   ar
    85    83    81   ar
    86    85    86   ar
    87    27    30    1
    88    27    28    1
    89    30    31    1
    90    29    28    2
    91    80    81    1
    92    80    77    1
    93    28    32   am
    94    81    82   ar
    95    64    63    2
    96    86    87    1
    97    86    84   ar
    98   146   145    2
    99    65    66    1
   100    65    62    1
   101    79    78    2
   102    76    77    1
   103    76    73   am
   104    63    62    1
   105    63    71   am
   106    77    78    1
   107    32    38    1
   108    32    33    1
   109    82    84   ar
   110    68    66   ar
   111    68    70   ar
   112    66    67   ar
   113    72    73    1
   114    72    71    1
   115    72    75    1
   116   143   144    1
   117    41    42    2
   118    41    40    1
   119   145   147   am
   120   145   144    1
   121   149   148    1
   122   149   150    2
   123    38    37    1
   124   148   147    1
   125   148   151    1
   126    73    74    2
   127    62    61    1
   128    70    69   ar
   129   153   151    1
   130    39    40    1
   131    39    34   am
   132    67    69   ar
   133    33    34    1
   134    33    36    1
   135   152   151    1
   136   152   154    1
   137    40    43    1
   138    34    35    2
   139    37    36    1
   140    43    44    1
   141    61    52   am
   142    46    44   ar
   143    46    48   ar
   144    44    45   ar
   145    52    53    2
   146    52    51    1
   147    48    49   ar
   148    50    51    1
   149    45    47   ar
   150    60    58    1
   151    51    54    1
   152    49    47   ar
   153    54    55    1
   154    58    57    2
   155    58    59    1
   156    57    56    1
   157    55    56    1
