@<TRIPOS>MOLECULE
tmp/5c5qC00.pdb
 143 146 0 0 0
SMALL
GASTEIGER

@<TRIPOS>ATOM
      1  N         -8.7510    7.4740   20.7680 N.3    79  PHE79      -0.1227
      2  CA        -9.7460    7.5610   19.7000 C.3    79  PHE79       0.1736
      3  C         -9.1290    7.7810   18.3280 C.2    79  PHE79       0.2595
      4  O         -8.0620    8.3900   18.1940 O.2    79  PHE79      -0.2718
      5  CB       -10.7400    8.6890   19.9960 C.3    79  PHE79       0.0547
      6  CG       -11.5460    8.4640   21.2390 C.ar   79  PHE79      -0.0202
      7  CD1      -12.6640    7.6420   21.2120 C.ar   79  PHE79      -0.0042
      8  CD2      -11.1740    9.0490   22.4380 C.ar   79  PHE79      -0.0042
      9  CE1      -13.3970    7.4060   22.3550 C.ar   79  PHE79      -0.0003
     10  CE2      -11.9040    8.8170   23.5930 C.ar   79  PHE79      -0.0003
     11  CZ       -13.0220    7.9920   23.5510 C.ar   79  PHE79      -0.0000
     12  N         -9.8060    7.2740   17.3060 N.am   80  HIS80      -0.1961
     13  CA        -9.4360    7.5620   15.9250 C.3    80  HIS80       0.1787
     14  C        -10.6880    7.7790   15.0840 C.2    80  HIS80       0.2621
     15  O        -11.6300    6.9750   15.1320 O.2    80  HIS80      -0.2715
     16  CB        -8.6220    6.4060   15.3380 C.3    80  HIS80       0.0785
     17  CG        -8.0740    6.6930   13.9740 C.ar   80  HIS80       0.0821
     18  ND1       -6.9670    7.4900   13.7710 N.ar   80  HIS80      -0.2267
     19  CD2       -8.4850    6.3000   12.7440 C.ar   80  HIS80       0.1154
     20  CE1       -6.7200    7.5750   12.4740 C.ar   80  HIS80       0.1986
     21  NE2       -7.6270    6.8620   11.8300 N.ar   80  HIS80      -0.2212
     22  N        -10.7020    8.8700   14.3240 N.am   81  GLY81      -0.1940
     23  CA       -11.8030    9.1300   13.4120 C.3    81  GLY81       0.2014
     24  C        -11.2960    9.1790   11.9830 C.2    81  GLY81       0.2640
     25  O        -10.2000    9.6970   11.7270 O.2    81  GLY81      -0.2714
     26  N        -12.0770    8.6420   11.0480 N.am   82  SER82      -0.1936
     27  CA       -11.6040    8.5040    9.6750 C.3    82  SER82       0.2040
     28  C        -12.6990    8.1160    8.6880 C.2    82  SER82       0.2485
     29  O        -13.6130    7.3560    9.0130 O.2    82  SER82      -0.2729
     30  CB       -10.4880    7.4610    9.6110 C.3    82  SER82       0.2129
     31  OG        -9.9860    7.3210    8.2900 O.3    82  SER82      -0.2179
     32  N        -12.6080    8.6290    7.4540 N.am   83  PRO83      -0.2715
     33  CA       -13.4500    8.1450    6.3530 C.3    83  PRO83       0.1536
     34  C        -13.2030    6.6640    6.0520 C.2    83  PRO83       0.2598
     35  O        -14.0440    5.9990    5.4510 O.2    83  PRO83      -0.2715
     36  CB       -13.0470    9.0290    5.1690 C.3    83  PRO83       0.0310
     37  CG       -12.4020   10.2330    5.7890 C.3    83  PRO83       0.0237
     38  CD       -11.7410    9.7430    7.0410 C.3    83  PRO83       0.0939
     39  N        -12.0460    6.1520    6.4640 N.am   84  PHE84      -0.1974
     40  CA       -11.6360    4.7900    6.1130 C.3    84  PHE84       0.1639
     41  C        -11.9430    3.7590    7.1970 C.2    84  PHE84       0.2290
     42  O        -11.3880    2.6540    7.1880 O.2    84  PHE84      -0.2864
     43  CB       -10.1370    4.7580    5.8210 C.3    84  PHE84       0.0560
     44  CG        -9.6910    5.8030    4.8460 C.ar   84  PHE84      -0.0200
     45  CD1      -10.2490    5.8670    3.5790 C.ar   84  PHE84      -0.0042
     46  CD2       -8.7200    6.7250    5.1960 C.ar   84  PHE84      -0.0042
     47  CE1       -9.8460    6.8380    2.6760 C.ar   84  PHE84      -0.0003
     48  CE2       -8.3130    7.6960    4.2980 C.ar   84  PHE84      -0.0003
     49  CZ        -8.8780    7.7510    3.0370 C.ar   84  PHE84      -0.0000
     50  N         -3.8190    5.0750    5.7450 N.3    97  HIS97      -0.1226
     51  CA        -4.6010    5.7450    6.7800 C.3    97  HIS97       0.1752
     52  C         -3.7960    6.8310    7.4940 C.2    97  HIS97       0.2596
     53  O         -4.2830    7.4640    8.4360 O.2    97  HIS97      -0.2718
     54  CB        -5.1130    4.7040    7.7800 C.3    97  HIS97       0.0759
     55  CG        -5.8130    3.5520    7.1270 C.ar   97  HIS97       0.0818
     56  ND1       -5.4120    2.2440    7.2920 N.ar   97  HIS97      -0.2268
     57  CD2       -6.8530    3.5200    6.2600 C.ar   97  HIS97       0.1154
     58  CE1       -6.1730    1.4560    6.5540 C.ar   97  HIS97       0.1986
     59  NE2       -7.0550    2.2060    5.9170 N.ar   97  HIS97      -0.2212
     60  N         -2.5660    7.0470    7.0320 N.am   98  ALA98      -0.1966
     61  CA        -1.6950    8.0730    7.6010 C.3    98  ALA98       0.1728
     62  C         -2.0820    9.4660    7.1140 C.2    98  ALA98       0.2616
     63  O         -2.8340    9.6060    6.1530 O.2    98  ALA98      -0.2715
     64  CB        -0.2390    7.7810    7.2460 C.3    98  ALA98       0.0334
     65  N         -1.5650   10.4900    7.7900 N.am   99  TYR99      -0.1974
     66  CA        -1.8400   11.8840    7.4470 C.3    99  TYR99       0.1639
     67  C         -0.5580   12.5170    6.9080 C.2    99  TYR99       0.2290
     68  O          0.3140   12.9150    7.6770 O.2    99  TYR99      -0.2864
     69  CB        -2.3020   12.6300    8.7050 C.3    99  TYR99       0.0560
     70  CG        -2.7280   14.0700    8.5050 C.ar   99  TYR99      -0.0198
     71  CD1       -3.0140   14.5780    7.2370 C.ar   99  TYR99      -0.0009
     72  CD2       -2.8800   14.9150    9.6000 C.ar   99  TYR99      -0.0009
     73  CE1       -3.4430   15.8870    7.0780 C.ar   99  TYR99       0.0417
     74  CE2       -3.3070   16.2140    9.4530 C.ar   99  TYR99       0.0417
     75  CZ        -3.5890   16.6990    8.1950 C.ar   99  TYR99       0.1957
     76  OH        -4.0200   18.0000    8.0720 O.3    99  TYR99      -0.2866
     77  N         -2.6180    9.0930   13.2240 N.3   109  TYR109     -0.1227
     78  CA        -2.8390    9.9630   14.3770 C.3   109  TYR109      0.1736
     79  C         -3.9690    9.4720   15.2780 C.2   109  TYR109      0.2595
     80  O         -4.9530    8.9100   14.7950 O.2   109  TYR109     -0.2718
     81  CB        -3.1570   11.3750   13.8900 C.3   109  TYR109      0.0548
     82  CG        -1.9580   12.1490   13.3700 C.ar  109  TYR109     -0.0200
     83  CD1       -1.2680   11.7350   12.2370 C.ar  109  TYR109     -0.0009
     84  CD2       -1.5230   13.2970   14.0160 C.ar  109  TYR109     -0.0009
     85  CE1       -0.1710   12.4530   11.7680 C.ar  109  TYR109      0.0417
     86  CE2       -0.4390   14.0130   13.5550 C.ar  109  TYR109      0.0417
     87  CZ         0.2340   13.5900   12.4350 C.ar  109  TYR109      0.1957
     88  OH         1.3250   14.3140   11.9960 O.3   109  TYR109     -0.2866
     89  N         -3.8280    9.6980   16.5860 N.am  110  PHE110     -0.1962
     90  CA        -4.8320    9.2770   17.5690 C.3   110  PHE110      0.1771
     91  C         -5.0120   10.3920   18.5980 C.2   110  PHE110      0.2619
     92  O         -4.1090   11.2060   18.7960 O.2   110  PHE110     -0.2715
     93  CB        -4.3840    7.9850   18.2800 C.3   110  PHE110      0.0574
     94  CG        -4.3280    6.7760   17.3750 C.ar  110  PHE110     -0.0200
     95  CD1       -3.1840    6.4890   16.6440 C.ar  110  PHE110     -0.0042
     96  CD2       -5.4300    5.9410   17.2390 C.ar  110  PHE110     -0.0042
     97  CE1       -3.1360    5.3960   15.7900 C.ar  110  PHE110     -0.0003
     98  CE2       -5.3900    4.8400   16.3830 C.ar  110  PHE110     -0.0003
     99  CZ        -4.2430    4.5710   15.6600 C.ar  110  PHE110     -0.0000
    100  N         -6.1710   10.4320   19.2480 N.am  111  ALA111     -0.1977
    101  CA        -6.4600   11.4930   20.2120 C.3   111  ALA111      0.1597
    102  C         -6.9820   10.9850   21.5580 C.2   111  ALA111      0.2287
    103  O         -7.7270   10.0000   21.6220 O.2   111  ALA111     -0.2864
    104  CB        -7.4720   12.4720   19.6110 C.3   111  ALA111      0.0319
    105  N        -11.7990   15.5880   19.3120 N.3   116  LYS116     -0.1231
    106  CA       -10.7600   15.8380   18.3070 C.3   116  LYS116      0.1693
    107  C        -10.8710   14.8240   17.1610 C.2   116  LYS116      0.2592
    108  O        -10.8430   15.1940   15.9870 O.2   116  LYS116     -0.2718
    109  CB        -9.3570   15.7450   18.9240 C.3   116  LYS116      0.0285
    110  CG        -8.2430   16.1540   17.9640 C.3   116  LYS116      0.0035
    111  CD        -8.3020   17.6590   17.6910 C.3   116  LYS116      0.0206
    112  CE        -7.3990   18.0650   16.5590 C.3   116  LYS116      0.1093
    113  NZ        -7.6820   19.4630   16.1420 N.3   116  LYS116     -0.1314
    114  N        -10.9980   13.5450   17.5010 N.am  117  SER117     -0.1952
    115  CA       -11.1880   12.5140   16.4750 C.3   117  SER117      0.1924
    116  C        -12.4770   12.7430   15.6740 C.2   117  SER117      0.2314
    117  O        -12.5380   12.4630   14.4800 O.2   117  SER117     -0.2863
    118  CB       -11.2090   11.1200   17.1140 C.3   117  SER117      0.2116
    119  OG        -9.9160   10.7400   17.5620 O.3   117  SER117     -0.2180
    120  N        -12.4250   14.4220   12.1940 N.3   120  TYR120     -0.1241
    121  CA       -11.9110   13.7450   11.0100 C.3   120  TYR120      0.1605
    122  C        -12.8290   12.6460   10.4830 C.2   120  TYR120      0.2264
    123  O        -12.5130   11.9890    9.4920 O.2   120  TYR120     -0.2867
    124  CB       -10.5160   13.1750   11.3020 C.3   120  TYR120      0.0534
    125  CG        -9.4920   14.2560   11.5790 C.ar  120  TYR120     -0.0201
    126  CD1       -9.3110   14.7620   12.8650 C.ar  120  TYR120     -0.0009
    127  CD2       -8.7460   14.8070   10.5480 C.ar  120  TYR120     -0.0009
    128  CE1       -8.4150   15.7980   13.1110 C.ar  120  TYR120      0.0417
    129  CE2       -7.8480   15.8380   10.7850 C.ar  120  TYR120      0.0417
    130  CZ        -7.6890   16.3290   12.0650 C.ar  120  TYR120      0.1957
    131  OH        -6.8060   17.3640   12.2920 O.3   120  TYR120     -0.2866
    132  N        -13.3710   13.3970    7.1280 N.3   123  GLY123     -0.1210
    133  CA       -12.1520   13.7370    6.4180 C.3   123  GLY123      0.1956
    134  C        -11.4040   14.9000    7.0410 C.2   123  GLY123      0.2611
    135  O        -11.8550   15.4890    8.0210 O.2   123  GLY123     -0.2717
    136  N        -10.2540   15.2340    6.4690 N.am  124  ILE124     -0.1979
    137  CA        -9.4820   16.3810    6.9220 C.3   124  ILE124      0.1595
    138  C        -10.3420   17.6440    6.9450 C.2   124  ILE124      0.2287
    139  O        -10.9560   18.0190    5.9450 O.2   124  ILE124     -0.2864
    140  CB        -8.2610   16.6070    6.0090 C.3   124  ILE124      0.0276
    141  CG1       -7.3390   15.3860    6.0830 C.3   124  ILE124      0.0022
    142  CG2       -7.5140   17.8700    6.4300 C.3   124  ILE124      0.0022
    143  CD1       -6.1830   15.4100    5.1050 C.3   124  ILE124      0.0001
@<TRIPOS>BOND
     1    47    49   ar
     2    47    45   ar
     3    49    48   ar
     4    45    44   ar
     5    48    46   ar
     6    44    46   ar
     7    44    43    1
     8   143   141    1
     9    36    37    1
    10    36    33    1
    11    35    34    2
    12    50    51    1
    13    37    38    1
    14    43    40    1
    15    59    57   ar
    16    59    58   ar
    17   139   138    2
    18   140   141    1
    19   140   142    1
    20   140   137    1
    21    34    33    1
    22    34    39   am
    23    40    39    1
    24    40    41    1
    25    63    62    2
    26    57    55   ar
    27    33    32    1
    28   133   134    1
    29   133   132    1
    30   136   137    1
    31   136   134   am
    32    58    56   ar
    33    51    52    1
    34    51    54    1
    35    67    66    1
    36    67    68    2
    37   137   138    1
    38    60    52   am
    39    60    61    1
    40   134   135    2
    41    38    32    1
    42    73    71   ar
    43    73    75   ar
    44    62    61    1
    45    62    65   am
    46    55    56   ar
    47    55    54    1
    48    42    41    2
    49    71    70   ar
    50    64    61    1
    51    66    65    1
    52    66    69    1
    53    32    28   am
    54    52    53    2
    55    76    75    1
    56    75    74   ar
    57    31    30    1
    58    70    69    1
    59    70    72   ar
    60    28    29    2
    61    28    27    1
    62    74    72   ar
    63   123   122    2
    64    30    27    1
    65    27    26    1
    66   122   121    1
    67   127   129   ar
    68   127   125   ar
    69   129   130   ar
    70   121   124    1
    71   121   120    1
    72    26    24   am
    73   124   125    1
    74   125   126   ar
    75    25    24    2
    76    85    83   ar
    77    85    87   ar
    78    21    20   ar
    79    21    19   ar
    80    24    23    1
    81    88    87    1
    82   130   131    1
    83   130   128   ar
    84    83    82   ar
    85    87    86   ar
    86    20    18   ar
    87    19    17   ar
    88   126   128   ar
    89    77    78    1
    90    82    81    1
    91    82    84   ar
    92    23    22    1
    93    86    84   ar
    94    18    17   ar
    95    81    78    1
    96    17    16    1
    97    22    14   am
    98    78    79    1
    99   117   116    2
   100    80    79    2
   101    14    15    2
   102    14    13    1
   103    79    89   am
   104    16    13    1
   105    99    97   ar
   106    99    98   ar
   107   116   115    1
   108    97    95   ar
   109    13    12    1
   110   108   107    2
   111   113   112    1
   112    98    96   ar
   113   115   118    1
   114   115   114    1
   115   112   111    1
   116    89    90    1
   117    95    94   ar
   118   118   119    1
   119   107   114   am
   120   107   106    1
   121    96    94   ar
   122    12     3   am
   123    94    93    1
   124    90    93    1
   125    90    91    1
   126   111   110    1
   127   110   109    1
   128     4     3    2
   129   106   109    1
   130   106   105    1
   131     3     2    1
   132    91    92    2
   133    91   100   am
   134   100   101    1
   135   104   101    1
   136     2     5    1
   137     2     1    1
   138     5     6    1
   139   101   102    1
   140     7     6   ar
   141     7     9   ar
   142     6     8   ar
   143   102   103    2
   144     9    11   ar
   145     8    10   ar
   146    11    10   ar
