@<TRIPOS>MOLECULE
tmp/5c5rA00.pdb
 132 134 0 0 0
SMALL
GASTEIGER

@<TRIPOS>ATOM
      1  N          4.8500   39.4820   11.9700 N.3    80  HIS80      -0.1226
      2  CA         5.0770   39.8730   13.3570 C.3    80  HIS80       0.1752
      3  C          5.3220   38.6320   14.2050 C.2    80  HIS80       0.2597
      4  O          4.4980   37.7120   14.2270 O.2    80  HIS80      -0.2718
      5  CB         3.8670   40.6360   13.9110 C.3    80  HIS80       0.0759
      6  CG         4.0890   41.2070   15.2790 C.ar   80  HIS80       0.0818
      7  ND1        4.6980   42.4270   15.4860 N.ar   80  HIS80      -0.2268
      8  CD2        3.7940   40.7210   16.5100 C.ar   80  HIS80       0.1154
      9  CE1        4.7700   42.6660   16.7850 C.ar   80  HIS80       0.1986
     10  NE2        4.2290   41.6460   17.4280 N.ar   80  HIS80      -0.2212
     11  N          6.4550   38.6130   14.8990 N.am   81  GLY81      -0.1942
     12  CA         6.7290   37.5520   15.8530 C.3    81  GLY81       0.2014
     13  C          6.7240   38.1110   17.2600 C.2    81  GLY81       0.2640
     14  O          7.1630   39.2380   17.4770 O.2    81  GLY81      -0.2714
     15  N          6.2310   37.3390   18.2240 N.am   82  SER82      -0.1936
     16  CA         6.1050   37.8510   19.5850 C.3    82  SER82       0.2040
     17  C          5.7670   36.7630   20.5890 C.2    82  SER82       0.2485
     18  O          5.0010   35.8500   20.2970 O.2    82  SER82      -0.2729
     19  CB         5.0230   38.9300   19.6420 C.3    82  SER82       0.2129
     20  OG         4.8010   39.3620   20.9780 O.3    82  SER82      -0.2179
     21  N          6.3290   36.8610   21.8000 N.am   83  PRO83      -0.2715
     22  CA         5.9060   35.9770   22.8910 C.3    83  PRO83       0.1536
     23  C          4.4250   36.1520   23.2290 C.2    83  PRO83       0.2598
     24  O          3.8310   35.3030   23.8920 O.2    83  PRO83      -0.2715
     25  CB         6.8060   36.3870   24.0560 C.3    83  PRO83       0.0310
     26  CG         8.0020   37.0160   23.4030 C.3    83  PRO83       0.0237
     27  CD         7.4600   37.7200   22.1910 C.3    83  PRO83       0.0939
     28  N          3.8340   37.2520   22.7700 N.am   84  PHE84      -0.1974
     29  CA         2.4560   37.5870   23.1250 C.3    84  PHE84       0.1639
     30  C          1.4500   37.2120   22.0360 C.2    84  PHE84       0.2290
     31  O          0.3000   37.6530   22.0700 O.2    84  PHE84      -0.2864
     32  CB         2.3450   39.0860   23.4300 C.3    84  PHE84       0.0560
     33  CG         3.3380   39.5710   24.4520 C.ar   84  PHE84      -0.0200
     34  CD1        3.3740   39.0120   25.7200 C.ar   84  PHE84      -0.0042
     35  CD2        4.2420   40.5730   24.1410 C.ar   84  PHE84      -0.0042
     36  CE1        4.2970   39.4450   26.6610 C.ar   84  PHE84      -0.0003
     37  CE2        5.1670   41.0110   25.0750 C.ar   84  PHE84      -0.0003
     38  CZ         5.1940   40.4450   26.3360 C.ar   84  PHE84      -0.0000
     39  N          2.0880   45.3090   23.4880 N.3    97  HIS97      -0.1226
     40  CA         2.7990   44.5780   22.4450 C.3    97  HIS97       0.1752
     41  C          3.8210   45.4530   21.7320 C.2    97  HIS97       0.2596
     42  O          4.4510   45.0260   20.7630 O.2    97  HIS97      -0.2718
     43  CB         1.7980   44.0140   21.4360 C.3    97  HIS97       0.0759
     44  CG         0.6440   43.3050   22.0720 C.ar   97  HIS97       0.0818
     45  ND1        0.8080   42.2990   22.9990 N.ar   97  HIS97      -0.2268
     46  CD2       -0.6920   43.4770   21.9370 C.ar   97  HIS97       0.1154
     47  CE1       -0.3770   41.8830   23.4090 C.ar   97  HIS97       0.1986
     48  NE2       -1.3040   42.5820   22.7800 N.ar   97  HIS97      -0.2212
     49  N          3.9880   46.6760   22.2220 N.am   98  ALA98      -0.1966
     50  CA         4.9250   47.6180   21.6210 C.3    98  ALA98       0.1728
     51  C          6.3630   47.3870   22.0810 C.2    98  ALA98       0.2616
     52  O          6.6130   46.6810   23.0570 O.2    98  ALA98      -0.2715
     53  CB         4.5020   49.0400   21.9400 C.3    98  ALA98       0.0334
     54  N          7.3010   47.9960   21.3620 N.am   99  TYR99      -0.1974
     55  CA         8.7290   47.8590   21.6310 C.3    99  TYR99       0.1639
     56  C          9.2450   49.2180   22.0910 C.2    99  TYR99       0.2290
     57  O          9.4500   50.1140   21.2770 O.2    99  TYR99      -0.2864
     58  CB         9.4380   47.4330   20.3410 C.3    99  TYR99       0.0560
     59  CG        10.9200   47.1340   20.4450 C.ar   99  TYR99      -0.0198
     60  CD1       11.5500   46.9860   21.6750 C.ar   99  TYR99      -0.0009
     61  CD2       11.6830   46.9610   19.2930 C.ar   99  TYR99      -0.0009
     62  CE1       12.8980   46.6680   21.7510 C.ar   99  TYR99       0.0417
     63  CE2       13.0240   46.6460   19.3580 C.ar   99  TYR99       0.0417
     64  CZ        13.6280   46.4980   20.5880 C.ar   99  TYR99       0.1957
     65  OH        14.9610   46.1640   20.6410 O.3    99  TYR99      -0.2866
     66  N          6.0460   46.8720   15.9290 N.3   109  TYR109     -0.1227
     67  CA         6.9190   46.6930   14.7690 C.3   109  TYR109      0.1736
     68  C          6.5260   45.4990   13.8990 C.2   109  TYR109      0.2595
     69  O          6.1550   44.4480   14.4140 O.2   109  TYR109     -0.2718
     70  CB         8.3640   46.5020   15.2320 C.3   109  TYR109      0.0548
     71  CG         9.0380   47.7560   15.7270 C.ar  109  TYR109     -0.0200
     72  CD1        8.5200   48.4730   16.7950 C.ar  109  TYR109     -0.0009
     73  CD2       10.2010   48.2150   15.1270 C.ar  109  TYR109     -0.0009
     74  CE1        9.1460   49.6200   17.2520 C.ar  109  TYR109      0.0417
     75  CE2       10.8320   49.3530   15.5760 C.ar  109  TYR109      0.0417
     76  CZ        10.3010   50.0520   16.6360 C.ar  109  TYR109      0.1957
     77  OH        10.9240   51.2000   17.0700 O.3   109  TYR109     -0.2866
     78  N          6.6320   45.6700   12.5820 N.am  110  PHE110     -0.1962
     79  CA         6.3120   44.6180   11.6170 C.3   110  PHE110      0.1771
     80  C          7.4010   44.5420   10.5490 C.2   110  PHE110      0.2619
     81  O          8.0810   45.5350   10.2840 O.2   110  PHE110     -0.2715
     82  CB         4.9720   44.9150   10.9480 C.3   110  PHE110      0.0574
     83  CG         3.8090   44.9140   11.8970 C.ar  110  PHE110     -0.0200
     84  CD1        3.5020   46.0410   12.6430 C.ar  110  PHE110     -0.0042
     85  CD2        3.0310   43.7780   12.0530 C.ar  110  PHE110     -0.0042
     86  CE1        2.4430   46.0360   13.5280 C.ar  110  PHE110     -0.0003
     87  CE2        1.9700   43.7660   12.9340 C.ar  110  PHE110     -0.0003
     88  CZ         1.6740   44.8940   13.6740 C.ar  110  PHE110     -0.0000
     89  N          7.5620   43.3750    9.9300 N.am  111  ALA111     -0.1977
     90  CA         8.6490   43.1770    8.9730 C.3   111  ALA111      0.1597
     91  C          8.1860   42.6350    7.6270 C.2   111  ALA111      0.2287
     92  O          7.2620   41.8260    7.5550 O.2   111  ALA111     -0.2864
     93  CB         9.7000   42.2340    9.5640 C.3   111  ALA111      0.0319
     94  N         13.2420   38.3440    9.8700 N.3   116  LYS116     -0.1231
     95  CA        13.3850   39.4290   10.8340 C.3   116  LYS116      0.1693
     96  C         12.3930   39.2150   11.9750 C.2   116  LYS116      0.2592
     97  O         12.7650   39.2560   13.1460 O.2   116  LYS116     -0.2718
     98  CB        13.1420   40.7860   10.1530 C.3   116  LYS116      0.0285
     99  CG        13.0870   41.9880   11.0980 C.3   116  LYS116      0.0035
    100  CD        14.2050   41.9800   12.1300 C.3   116  LYS116      0.0206
    101  CE        15.5310   42.4070   11.5350 C.3   116  LYS116      0.1093
    102  NZ        16.5100   42.7670   12.6140 N.3   116  LYS116     -0.1314
    103  N         11.1320   38.9560   11.6390 N.am  117  SER117     -0.1952
    104  CA        10.1370   38.6910   12.6740 C.3   117  SER117      0.1924
    105  C         10.4570   37.4210   13.4680 C.2   117  SER117      0.2314
    106  O         10.1550   37.3360   14.6560 O.2   117  SER117     -0.2863
    107  CB         8.7350   38.5830   12.0630 C.3   117  SER117      0.2116
    108  OG         8.2750   39.8500   11.6310 O.3   117  SER117     -0.2180
    109  N         12.1320   37.5960   16.8490 N.3   120  TYR120     -0.1241
    110  CA        11.4040   38.0940   18.0110 C.3   120  TYR120      0.1605
    111  C         10.4130   37.0860   18.5870 C.2   120  TYR120      0.2264
    112  O          9.7360   37.3680   19.5750 O.2   120  TYR120     -0.2867
    113  CB        10.6810   39.3970   17.6570 C.3   120  TYR120      0.0534
    114  CG        11.6240   40.5550   17.4040 C.ar  120  TYR120     -0.0201
    115  CD1       12.0340   41.3850   18.4420 C.ar  120  TYR120     -0.0009
    116  CD2       12.1130   40.8110   16.1290 C.ar  120  TYR120     -0.0009
    117  CE1       12.9080   42.4370   18.2150 C.ar  120  TYR120      0.0417
    118  CE2       12.9870   41.8580   15.8930 C.ar  120  TYR120      0.0417
    119  CZ        13.3800   42.6660   16.9380 C.ar  120  TYR120      0.1957
    120  OH        14.2530   43.7050   16.7050 O.3   120  TYR120     -0.2866
    121  N         11.2620   36.5940   21.9880 N.3   123  GLY123     -0.1210
    122  CA        11.5010   37.8370   22.6980 C.3   123  GLY123      0.1956
    123  C         12.5360   38.7050   22.0100 C.2   123  GLY123      0.2611
    124  O         13.1040   38.3140   20.9940 O.2   123  GLY123     -0.2717
    125  N         12.7840   39.8820   22.5700 N.am  124  ILE124     -0.1979
    126  CA        13.7990   40.7800   22.0350 C.3   124  ILE124      0.1595
    127  C         15.1550   40.0760   21.9880 C.2   124  ILE124      0.2287
    128  O         15.5980   39.4820   22.9780 O.2   124  ILE124     -0.2864
    129  CB        13.9050   42.0520   22.9000 C.3   124  ILE124      0.0276
    130  CG1       12.5880   42.8320   22.8310 C.3   124  ILE124      0.0022
    131  CG2       15.0610   42.9150   22.4210 C.3   124  ILE124      0.0022
    132  CD1       12.4410   43.9010   23.8960 C.3   124  ILE124      0.0001
@<TRIPOS>BOND
     1    92    91    2
     2    91    90    1
     3    90    93    1
     4    90    89    1
     5    94    95    1
     6    89    80   am
     7    98    95    1
     8    98    99    1
     9    81    80    2
    10    80    79    1
    11    95    96    1
    12    82    79    1
    13    82    83    1
    14    99   100    1
    15   101   100    1
    16   101   102    1
    17    79    78    1
    18   108   107    1
    19   103    96   am
    20   103   104    1
    21    83    85   ar
    22    83    84   ar
    23     1     2    1
    24    96    97    2
    25    85    87   ar
    26   107   104    1
    27    78    68   am
    28    84    86   ar
    29   104   105    1
    30    87    88   ar
    31     2     5    1
    32     2     3    1
    33   105   106    2
    34    86    88   ar
    35    68    69    2
    36    68    67    1
    37     5     6    1
    38     3     4    2
    39     3    11   am
    40    67    70    1
    41    67    66    1
    42    11    12    1
    43    73    75   ar
    44    73    71   ar
    45    70    71    1
    46     6     7   ar
    47     6     8   ar
    48     7     9   ar
    49    75    76   ar
    50    71    72   ar
    51    12    13    1
    52   118   116   ar
    53   118   119   ar
    54   116   114   ar
    55     8    10   ar
    56    76    77    1
    57    76    74   ar
    58   120   119    1
    59     9    10   ar
    60    72    74   ar
    61   109   110    1
    62   119   117   ar
    63    13    14    2
    64    13    15   am
    65   114   113    1
    66   114   115   ar
    67   113   110    1
    68   110   111    1
    69   117   115   ar
    70    15    16    1
    71   111   112    2
    72    61    63   ar
    73    61    59   ar
    74    63    64   ar
    75    16    19    1
    76    16    17    1
    77    19    20    1
    78    18    17    2
    79    58    59    1
    80    58    55    1
    81    59    60   ar
    82    64    65    1
    83    64    62   ar
    84    17    21   am
    85    42    41    2
    86   124   123    2
    87    57    56    2
    88    54    55    1
    89    54    51   am
    90    43    44    1
    91    43    40    1
    92    50    53    1
    93    50    51    1
    94    50    49    1
    95    55    56    1
    96    60    62   ar
    97    41    49   am
    98    41    40    1
    99    21    27    1
   100    21    22    1
   101    46    44   ar
   102    46    48   ar
   103   127   126    1
   104   127   128    2
   105   121   122    1
   106   123   125   am
   107   123   122    1
   108   126   125    1
   109   126   129    1
   110    30    31    2
   111    30    29    1
   112    44    45   ar
   113    51    52    2
   114    27    26    1
   115   131   129    1
   116    40    39    1
   117    28    29    1
   118    28    23   am
   119    48    47   ar
   120   130   129    1
   121   130   132    1
   122    22    23    1
   123    22    25    1
   124    45    47   ar
   125    29    32    1
   126    23    24    2
   127    26    25    1
   128    32    33    1
   129    35    33   ar
   130    35    37   ar
   131    33    34   ar
   132    37    38   ar
   133    34    36   ar
   134    38    36   ar
