@<TRIPOS>MOLECULE
tmp/5c5tA00.pdb
 140 133 0 0 0
SMALL
GASTEIGER

@<TRIPOS>ATOM
      1  N         -2.3300   19.4400   -4.0610 N.3    79  GLN79      -0.1245
      2  CA        -2.1180   19.6630   -5.4790 C.3    79  GLN79       0.1566
      3  C         -2.7270   21.0020   -5.8700 C.2    79  GLN79       0.2260
      4  O         -3.8610   21.3300   -5.4610 O.2    79  GLN79      -0.2867
      5  CB        -2.7570   18.5650   -6.3010 C.3    79  GLN79       0.0367
      6  CG        -2.5730   18.6620   -7.8020 C.3    79  GLN79       0.0905
      7  CD        -3.6240   17.8540   -8.5310 C.2    79  GLN79       0.2608
      8  OE1       -4.7640   18.2890   -8.6690 O.2    79  GLN79      -0.2717
      9  NE2       -3.2430   16.6850   -9.0140 N.am   79  GLN79      -0.0878
     10  N         -3.8120   22.9440   -9.4150 N.3    81  ALA81      -0.1245
     11  CA        -3.9980   22.6980  -10.8190 C.3    81  ALA81       0.1562
     12  C         -4.5350   23.9250  -11.5250 C.2    81  ALA81       0.2260
     13  O         -5.2850   24.7010  -10.9380 O.2    81  ALA81      -0.2867
     14  CB        -4.9990   21.5160  -11.0450 C.3    81  ALA81       0.0290
     15  N         -6.2570   25.4340  -15.3380 N.3    83  TYR83      -0.1241
     16  CA        -6.9510   25.2720  -16.5930 C.3    83  TYR83       0.1605
     17  C         -6.8780   26.5580  -17.4330 C.2    83  TYR83       0.2264
     18  O         -7.3350   27.6250  -16.9880 O.2    83  TYR83      -0.2867
     19  CB        -8.4210   24.9650  -16.3730 C.3    83  TYR83       0.0534
     20  CG        -8.7580   23.7700  -15.5460 C.ar   83  TYR83      -0.0201
     21  CD1       -8.9480   22.5360  -16.1080 C.ar   83  TYR83      -0.0009
     22  CD2       -8.8990   23.8890  -14.1740 C.ar   83  TYR83      -0.0009
     23  CE1       -9.2910   21.4290  -15.3310 C.ar   83  TYR83       0.0417
     24  CE2       -9.2560   22.7990  -13.3920 C.ar   83  TYR83       0.0417
     25  CZ        -9.4400   21.5780  -13.9840 C.ar   83  TYR83       0.1957
     26  OH        -9.7810   20.5040  -13.2160 O.3    83  TYR83      -0.2866
     27  N        -11.7120   18.7400  -17.1350 N.3    89  TYR89      -0.1241
     28  CA       -11.4610   17.4320  -16.4800 C.3    89  TYR89       0.1605
     29  C        -12.7570   16.6290  -16.6300 C.2    89  TYR89       0.2264
     30  O        -13.7250   16.8980  -15.9130 O.2    89  TYR89      -0.2867
     31  CB       -11.0710   17.6140  -14.9930 C.3    89  TYR89       0.0534
     32  CG       -10.4140   16.4150  -14.3070 C.ar   89  TYR89      -0.0201
     33  CD1      -10.4830   15.1190  -14.8360 C.ar   89  TYR89      -0.0009
     34  CD2       -9.7270   16.6060  -13.1100 C.ar   89  TYR89      -0.0009
     35  CE1       -9.8710   14.0570  -14.1900 C.ar   89  TYR89       0.0417
     36  CE2       -9.1300   15.5500  -12.4570 C.ar   89  TYR89       0.0417
     37  CZ        -9.1650   14.2900  -13.0060 C.ar   89  TYR89       0.1957
     38  OH        -8.5700   13.2330  -12.3500 O.3    89  TYR89      -0.2866
     39  N        -15.4740   11.9380  -13.4570 N.3    92  HIS92      -0.1241
     40  CA       -14.7500   10.8620  -12.8150 C.3    92  HIS92       0.1621
     41  C        -15.1410   10.8210  -11.3340 C.2    92  HIS92       0.2264
     42  O        -15.8420   11.7090  -10.8130 O.2    92  HIS92      -0.2867
     43  CB       -13.2450   11.1020  -12.9590 C.3    92  HIS92       0.0745
     44  CG       -12.8140   12.3830  -12.3360 C.ar   92  HIS92       0.0817
     45  ND1      -12.9780   13.6200  -12.9280 N.ar   92  HIS92      -0.2268
     46  CD2      -12.2440   12.6080  -11.1410 C.ar   92  HIS92       0.1154
     47  CE1      -12.5680   14.5540  -12.0920 C.ar   92  HIS92       0.1986
     48  NE2      -12.1210   13.9670  -10.9940 N.ar   92  HIS92      -0.2212
     49  N        -13.0640   10.5330   -7.4690 N.3    94  ASP94      -0.1239
     50  CA       -11.7220   10.8190   -6.9280 C.3    94  ASP94       0.1674
     51  C        -11.0980    9.6140   -6.2050 C.2    94  ASP94       0.2266
     52  O         -9.9640    9.6830   -5.7610 O.2    94  ASP94      -0.2867
     53  CB       -11.7650   12.0380   -5.9900 C.3    94  ASP94       0.1410
     54  CG       -11.7500   13.3810   -6.7380 C.2    94  ASP94       0.3668
     55  OD1      -11.6450   13.3900   -7.9880 O.co2  94  ASP94      -0.2456
     56  OD2      -11.8170   14.4440   -6.0550 O.co2  94  ASP94      -0.2456
     57  N        -11.6790   21.1330   -1.9830 N.3   112  MET112     -0.1245
     58  CA       -11.1220   21.8330   -3.1370 C.3   112  MET112      0.1570
     59  C        -11.3850   23.3430   -2.9490 C.2   112  MET112      0.2261
     60  O        -12.5210   23.7790   -2.6410 O.2   112  MET112     -0.2867
     61  CB       -11.7330   21.3630   -4.4570 C.3   112  MET112      0.0387
     62  CG       -11.1860   22.0820   -5.6890 C.3   112  MET112      0.0595
     63  SD       -12.0370   21.6880   -7.2330 S.3   112  MET112     -0.1393
     64  CE       -13.7080   22.1210   -6.8240 C.3   112  MET112      0.0692
     65  N        -17.7210   23.4060  -11.5770 N.3   126  THR126     -0.1218
     66  CA       -17.5770   22.0470  -11.0690 C.3   126  THR126      0.1862
     67  C        -18.9540   21.4160  -11.1450 C.2   126  THR126      0.2287
     68  O        -19.8870   21.9240  -10.5360 O.2   126  THR126     -0.2866
     69  CB       -17.0630   21.9950   -9.6330 C.3   126  THR126      0.1770
     70  OG1      -15.8640   22.7620   -9.5230 O.3   126  THR126     -0.2211
     71  CG2      -16.7910   20.5580   -9.1770 C.3   126  THR126      0.0375
     72  N        -16.5170   17.5330   -0.6250 N.3   145  PHE145     -0.1241
     73  CA       -17.4440   16.4750   -0.9240 C.3   145  PHE145      0.1605
     74  C        -16.9220   15.1100   -0.5340 C.2   145  PHE145      0.2264
     75  O        -15.7210   14.8340   -0.5740 O.2   145  PHE145     -0.2867
     76  CB       -17.8560   16.4670   -2.4380 C.3   145  PHE145      0.0534
     77  CG       -16.7000   16.3670   -3.4200 C.ar  145  PHE145     -0.0203
     78  CD1      -16.0580   17.5040   -3.8900 C.ar  145  PHE145     -0.0042
     79  CD2      -16.2760   15.1140   -3.9440 C.ar  145  PHE145     -0.0042
     80  CE1      -15.0410   17.4130   -4.8350 C.ar  145  PHE145     -0.0003
     81  CE2      -15.2390   15.0310   -4.8410 C.ar  145  PHE145     -0.0003
     82  CZ       -14.6420   16.1910   -5.3180 C.ar  145  PHE145     -0.0000
     83  N        -18.0590   13.6840  -10.5840 N.3   161  HIS161     -0.1226
     84  CA       -17.9260   15.1290  -10.8560 C.3   161  HIS161      0.1752
     85  C        -16.9560   15.4140  -12.0030 C.2   161  HIS161      0.2596
     86  O        -16.1810   14.5340  -12.4250 O.2   161  HIS161     -0.2718
     87  CB       -17.4950   15.8430   -9.5480 C.3   161  HIS161      0.0759
     88  CG       -16.1500   15.4060   -9.0680 C.ar  161  HIS161      0.0818
     89  ND1      -15.9590   14.1810   -8.4610 N.ar  161  HIS161     -0.2268
     90  CD2      -14.9220   15.9550   -9.2000 C.ar  161  HIS161      0.1154
     91  CE1      -14.6720   14.0270   -8.1870 C.ar  161  HIS161      0.1986
     92  NE2      -14.0190   15.0720   -8.6650 N.ar  161  HIS161     -0.2212
     93  N        -17.0000   16.6560  -12.4820 N.am  162  ALA162     -0.1966
     94  CA       -16.1670   17.1040  -13.5890 C.3   162  ALA162      0.1728
     95  C        -15.8210   18.5600  -13.4240 C.2   162  ALA162      0.2616
     96  O        -16.5390   19.2970  -12.7530 O.2   162  ALA162     -0.2715
     97  CB       -16.9000   16.9050  -14.8950 C.3   162  ALA162      0.0334
     98  N        -14.7030   18.9690  -13.9980 N.am  163  GLY163     -0.1955
     99  CA       -14.4550   20.3840  -14.1880 C.3   163  GLY163      0.1869
    100  C        -14.8110   20.7030  -15.6370 C.2   163  GLY163      0.2309
    101  O        -14.2020   20.1670  -16.5490 O.2   163  GLY163     -0.2863
    102  N         -8.6180   29.2100  -14.6640 N.3   171  LYS171     -0.1245
    103  CA        -9.1580   28.6120  -13.4500 C.3   171  LYS171      0.1561
    104  C         -7.9970   27.9210  -12.7180 C.2   171  LYS171      0.2260
    105  O         -7.2800   27.1210  -13.3250 O.2   171  LYS171     -0.2867
    106  CB       -10.2760   27.6100  -13.7730 C.3   171  LYS171      0.0271
    107  CG       -10.7740   26.7400  -12.6150 C.3   171  LYS171      0.0035
    108  CD       -11.8900   25.8380  -13.1360 C.3   171  LYS171      0.0206
    109  CE       -12.3620   24.8520  -12.0860 C.3   171  LYS171      0.1093
    110  NZ       -13.3250   23.8890  -12.6620 N.3   171  LYS171     -0.1314
    111  N         -7.2360   25.8160   -8.9990 N.3   173  ILE173     -0.1245
    112  CA        -7.7320   25.1860   -7.7930 C.3   173  ILE173      0.1561
    113  C         -6.5970   24.5910   -6.9410 C.2   173  ILE173      0.2260
    114  O         -5.4870   24.2830   -7.4290 O.2   173  ILE173     -0.2867
    115  CB        -8.7480   24.0940   -8.1750 C.3   173  ILE173      0.0252
    116  CG1       -8.0760   23.0080   -8.9910 C.3   173  ILE173      0.0019
    117  CG2       -9.9250   24.7460   -8.8900 C.3   173  ILE173      0.0019
    118  CD1       -8.9880   21.8370   -9.3080 C.3   173  ILE173      0.0001
    119  N         -6.4070   21.2250   -4.4040 N.3   175  ASN175     -0.1240
    120  CA        -7.0560   19.9780   -3.9610 C.3   175  ASN175      0.1653
    121  C         -6.4080   19.4140   -2.7450 C.2   175  ASN175      0.2266
    122  O         -5.2180   19.0620   -2.7580 O.2   175  ASN175     -0.2867
    123  CB        -7.0020   18.9000   -5.0650 C.3   175  ASN175      0.1155
    124  CG        -7.9650   19.1510   -6.1760 C.2   175  ASN175      0.2627
    125  OD1       -9.1450   19.3140   -5.9600 O.2   175  ASN175     -0.2716
    126  ND2       -7.4600   19.1130   -7.4110 N.am  175  ASN175     -0.0877
    127  N         -6.9220   16.1880   -0.6460 N.3   177  TRP177     -0.1241
    128  CA        -7.5650   14.8850   -0.5290 C.3   177  TRP177      0.1605
    129  C         -7.3070   14.3130    0.8780 C.2   177  TRP177      0.2264
    130  O         -6.2760   14.5280    1.4850 O.2   177  TRP177     -0.2867
    131  CB        -7.1220   13.9110   -1.6800 C.3   177  TRP177      0.0550
    132  CG        -7.7260   14.2750   -3.0230 C.ar  177  TRP177      0.0003
    133  CD1       -9.0520   14.2180   -3.3440 C.ar  177  TRP177      0.0946
    134  CD2       -7.0520   14.7650   -4.1990 C.ar  177  TRP177      0.0152
    135  NE1       -9.2410   14.6440   -4.6310 N.ar  177  TRP177     -0.2442
    136  CE2       -8.0320   14.9840   -5.1800 C.ar  177  TRP177      0.0810
    137  CE3       -5.7120   15.0590   -4.5130 C.ar  177  TRP177      0.0012
    138  CZ2       -7.7310   15.4930   -6.4700 C.ar  177  TRP177      0.0191
    139  CZ3       -5.4060   15.5430   -5.7980 C.ar  177  TRP177      0.0001
    140  CH2       -6.4210   15.7730   -6.7620 C.ar  177  TRP177      0.0015
@<TRIPOS>BOND
     1    17    18    2
     2    17    16    1
     3    27    28    1
     4    29    28    1
     5    29    30    2
     6    16    19    1
     7    16    15    1
     8   101   100    2
     9    28    31    1
    10    19    20    1
    11    21    20   ar
    12    21    23   ar
    13   100    99    1
    14    20    22   ar
    15    23    25   ar
    16    31    32    1
    17    97    94    1
    18    33    32   ar
    19    33    35   ar
    20   102   103    1
    21    32    34   ar
    22    35    37   ar
    23    99    98    1
    24    22    24   ar
    25    98    95   am
    26    25    24   ar
    27    25    26    1
    28   106   103    1
    29   106   107    1
    30    94    95    1
    31    94    93    1
    32    39    40    1
    33   103   104    1
    34    95    96    2
    35   105   104    2
    36   108   107    1
    37   108   109    1
    38    34    36   ar
    39    37    36   ar
    40    37    38    1
    41    43    40    1
    42    43    44    1
    43    45    44   ar
    44    45    47   ar
    45    40    41    1
    46   110   109    1
    47    93    85   am
    48    86    85    2
    49    44    46   ar
    50    47    48   ar
    51    85    84    1
    52    65    66    1
    53    12    13    2
    54    12    11    1
    55    41    42    2
    56    67    66    1
    57    67    68    2
    58    46    48   ar
    59    66    69    1
    60    14    11    1
    61    84    83    1
    62    84    87    1
    63    11    10    1
    64    69    70    1
    65    69    71    1
    66    87    88    1
    67   118   116    1
    68    90    88   ar
    69    90    92   ar
    70    88    89   ar
    71     9     7   am
    72   111   112    1
    73   116   115    1
    74   117   115    1
    75     8     7    2
    76    92    91   ar
    77     7     6    1
    78    89    91   ar
    79   115   112    1
    80    55    54   ar
    81     6     5    1
    82   112   113    1
    83    49    50    1
    84   114   113    2
    85   126   124   am
    86    63    64    1
    87    63    62    1
    88    50    51    1
    89    50    53    1
    90   140   138   ar
    91   140   139   ar
    92    54    56   ar
    93    54    53    1
    94   138   136   ar
    95     5     2    1
    96    51    52    2
    97   124   125    2
    98   124   123    1
    99     3     2    1
   100     3     4    2
   101   139   137   ar
   102    62    61    1
   103     2     1    1
   104    82    81   ar
   105    82    80   ar
   106   136   135   ar
   107   136   134   ar
   108   123   120    1
   109    81    79   ar
   110    80    78   ar
   111   135   133   ar
   112   137   134   ar
   113    61    58    1
   114   119   120    1
   115   134   132   ar
   116   120   121    1
   117    79    77   ar
   118    78    77   ar
   119    77    76    1
   120   133   132   ar
   121    58    59    1
   122    58    57    1
   123   132   131    1
   124    59    60    2
   125   122   121    2
   126    76    73    1
   127   131   128    1
   128    73    72    1
   129    73    74    1
   130   127   128    1
   131    75    74    2
   132   128   129    1
   133   129   130    2
