@<TRIPOS>MOLECULE
tmp/5c5vB00.pdb
 149 138 0 0 0
SMALL
GASTEIGER

@<TRIPOS>ATOM
      1  N         43.4140  174.4780   64.1140 N.3   157  GLU157     -0.1245
      2  CA        42.4430  175.5450   64.2970 C.3   157  GLU157      0.1567
      3  C         41.7500  175.8630   62.9680 C.2   157  GLU157      0.2260
      4  O         40.5350  176.0750   62.9170 O.2   157  GLU157     -0.2867
      5  CB        43.1330  176.7900   64.8620 C.3   157  GLU157      0.0388
      6  CG        43.7710  176.5420   66.2230 C.3   157  GLU157      0.1160
      7  CD        44.7410  177.6290   66.6450 C.2   157  GLU157      0.3649
      8  OE1       45.4600  178.1800   65.7760 O.co2 157  GLU157     -0.2457
      9  OE2       44.7970  177.9250   67.8560 O.co2 157  GLU157     -0.2457
     10  N         38.7820  182.1170   60.8050 N.3   165  LYS165     -0.1245
     11  CA        40.0060  182.1680   61.5940 C.3   165  LYS165      0.1561
     12  C         39.7730  181.7330   63.0400 C.2   165  LYS165      0.2260
     13  O         39.7050  182.5620   63.9360 O.2   165  LYS165     -0.2867
     14  CB        40.5940  183.5760   61.5720 C.3   165  LYS165      0.0271
     15  CG        42.1060  183.6140   61.4570 C.3   165  LYS165      0.0035
     16  CD        42.8060  183.1240   62.7140 C.3   165  LYS165      0.0206
     17  CE        44.3200  183.2310   62.5390 C.3   165  LYS165      0.1093
     18  NZ        45.1010  182.6890   63.6710 N.3   165  LYS165     -0.1314
     19  N         40.8430  180.0300   66.6560 N.3   167  GLU167     -0.1245
     20  CA        42.0200  180.1910   67.5130 C.3   167  GLU167      0.1567
     21  C         41.7720  179.5890   68.8830 C.2   167  GLU167      0.2260
     22  O         40.6660  179.6770   69.4120 O.2   167  GLU167     -0.2867
     23  CB        42.3710  181.6710   67.6990 C.3   167  GLU167      0.0388
     24  CG        43.1910  182.2880   66.6010 C.3   167  GLU167      0.1160
     25  CD        43.5610  183.7350   66.9060 C.2   167  GLU167      0.3649
     26  OE1       43.1970  184.2130   68.0050 O.co2 167  GLU167     -0.2457
     27  OE2       44.2100  184.3830   66.0440 O.co2 167  GLU167     -0.2457
     28  N         38.3420  184.0930   65.9950 N.3   180  ASP180     -0.1239
     29  CA        38.9120  185.4020   66.2510 C.3   180  ASP180      0.1674
     30  C         37.9170  186.4810   65.8060 C.2   180  ASP180      0.2266
     31  O         37.1290  186.2770   64.8750 O.2   180  ASP180     -0.2867
     32  CB        40.2560  185.5430   65.5260 C.3   180  ASP180      0.1410
     33  CG        41.0490  186.7420   65.9930 C.2   180  ASP180      0.3668
     34  OD1       40.7160  187.2880   67.0610 O.co2 180  ASP180     -0.2456
     35  OD2       42.0170  187.1340   65.2970 O.co2 180  ASP180     -0.2456
     36  N         36.0160  186.7920   62.3690 N.3   187  ARG187     -0.1245
     37  CA        37.0330  187.0430   61.3520 C.3   187  ARG187      0.1563
     38  C         37.1580  185.9300   60.3180 C.2   187  ARG187      0.2260
     39  O         37.2790  184.7520   60.6670 O.2   187  ARG187     -0.2867
     40  CB        38.3810  187.2590   62.0350 C.3   187  ARG187      0.0307
     41  CG        39.5980  187.3250   61.1220 C.3   187  ARG187      0.0489
     42  CD        40.8700  187.3980   61.9680 C.3   187  ARG187      0.2205
     43  NE        42.0870  187.4150   61.1590 N.pl3 187  ARG187     -0.0865
     44  CZ        43.3140  187.1800   61.6250 C.cat 187  ARG187      0.5346
     45  NH1       43.5070  186.9010   62.9070 N.pl3 187  ARG187      0.1354
     46  NH2       44.3550  187.2250   60.8000 N.pl3 187  ARG187      0.1354
     47  N         39.5400  185.2010   56.7310 N.3   189  TYR189     -0.1241
     48  CA        40.6340  185.6930   55.9000 C.3   189  TYR189      0.1605
     49  C         40.0580  186.3920   54.6670 C.2   189  TYR189      0.2264
     50  O         39.2180  185.8350   53.9720 O.2   189  TYR189     -0.2867
     51  CB        41.5460  184.5600   55.4560 C.3   189  TYR189      0.0534
     52  CG        42.4080  183.9230   56.5230 C.ar  189  TYR189     -0.0201
     53  CD1       43.0880  184.6800   57.4690 C.ar  189  TYR189     -0.0009
     54  CD2       42.5530  182.5470   56.5600 C.ar  189  TYR189     -0.0009
     55  CE1       43.8820  184.0670   58.4300 C.ar  189  TYR189      0.0417
     56  CE2       43.3280  181.9350   57.4900 C.ar  189  TYR189      0.0417
     57  CZ        43.9920  182.6830   58.4240 C.ar  189  TYR189      0.1957
     58  OH        44.7640  182.0090   59.3360 O.3   189  TYR189     -0.2866
     59  N         46.1150  174.5370   59.3850 N.3   198  TYR198     -0.1241
     60  CA        46.7950  175.5230   60.1960 C.3   198  TYR198      0.1605
     61  C         46.3530  175.3700   61.6450 C.2   198  TYR198      0.2264
     62  O         45.1860  175.0660   61.9150 O.2   198  TYR198     -0.2867
     63  CB        46.5010  176.9340   59.6860 C.3   198  TYR198      0.0534
     64  CG        47.2310  178.0390   60.4360 C.ar  198  TYR198     -0.0201
     65  CD1       48.5590  178.3200   60.1670 C.ar  198  TYR198     -0.0009
     66  CD2       46.5820  178.8090   61.4000 C.ar  198  TYR198     -0.0009
     67  CE1       49.2230  179.3270   60.8240 C.ar  198  TYR198      0.0417
     68  CE2       47.2420  179.8220   62.0700 C.ar  198  TYR198      0.0417
     69  CZ        48.5690  180.0760   61.7780 C.ar  198  TYR198      0.1957
     70  OH        49.2550  181.0820   62.4350 O.3   198  TYR198     -0.2866
     71  N         54.5070  186.9180   69.9430 N.3   219  ASP219     -0.1239
     72  CA        53.1530  187.3690   69.6550 C.3   219  ASP219      0.1674
     73  C         52.1560  186.8860   70.7100 C.2   219  ASP219      0.2266
     74  O         50.9500  186.9700   70.5050 O.2   219  ASP219     -0.2867
     75  CB        52.7150  186.9330   68.2430 C.3   219  ASP219      0.1410
     76  CG        52.2590  185.4740   68.1680 C.2   219  ASP219      0.3668
     77  OD1       52.7440  184.6410   68.9620 O.co2 219  ASP219     -0.2456
     78  OD2       51.4170  185.1560   67.2940 O.co2 219  ASP219     -0.2456
     79  N         51.1940  184.0570   71.7830 N.3   221  ASP221     -0.1239
     80  CA        50.3250  182.9550   71.3680 C.3   221  ASP221      0.1674
     81  C         51.1110  181.6480   71.3580 C.2   221  ASP221      0.2266
     82  O         52.3390  181.6730   71.2800 O.2   221  ASP221     -0.2867
     83  CB        49.7670  183.2040   69.9570 C.3   221  ASP221      0.1410
     84  CG        48.3810  183.8510   69.9480 C.2   221  ASP221      0.3668
     85  OD1       47.5150  183.5070   70.7870 O.co2 221  ASP221     -0.2456
     86  OD2       48.1470  184.6950   69.0440 O.co2 221  ASP221     -0.2456
     87  N         52.8620  178.5920   66.0840 N.3   224  ASP224     -0.1239
     88  CA        52.0170  178.2850   64.9330 C.3   224  ASP224      0.1674
     89  C         52.5920  177.1730   64.0630 C.2   224  ASP224      0.2266
     90  O         53.8000  177.0630   63.8860 O.2   224  ASP224     -0.2867
     91  CB        51.7970  179.5410   64.0930 C.3   224  ASP224      0.1410
     92  CG        50.9960  180.6000   64.8300 C.2   224  ASP224      0.3668
     93  OD1       50.0220  180.2400   65.5350 O.co2 224  ASP224     -0.2456
     94  OD2       51.3380  181.7920   64.7010 O.co2 224  ASP224     -0.2456
     95  N         55.4750  189.1940   62.6970 N.3   251  ASP251     -0.1225
     96  CA        54.1200  189.6510   62.3810 C.3   251  ASP251      0.1805
     97  C         53.7580  190.8620   63.2380 C.2   251  ASP251      0.2597
     98  O         53.6470  190.7590   64.4630 O.2   251  ASP251     -0.2718
     99  CB        53.1220  188.4980   62.5770 C.3   251  ASP251      0.1424
    100  CG        51.7040  188.8550   62.1520 C.2   251  ASP251      0.3668
    101  OD1       51.4750  190.0040   61.7270 O.co2 251  ASP251     -0.2456
    102  OD2       50.8190  187.9730   62.2050 O.co2 251  ASP251     -0.2456
    103  N         53.5980  192.0120   62.5880 N.am  252  GLU252     -0.1979
    104  CA        53.2910  193.2640   63.2880 C.3   252  GLU252      0.1602
    105  C         54.3110  193.5530   64.3920 C.2   252  GLU252      0.2287
    106  O         53.9630  194.0250   65.4670 O.2   252  GLU252     -0.2864
    107  CB        51.8730  193.2160   63.8680 C.3   252  GLU252      0.0415
    108  CG        50.8030  193.0420   62.7810 C.3   252  GLU252      0.1163
    109  CD        49.5200  192.4010   63.2960 C.2   252  GLU252      0.3649
    110  OE1       49.4930  191.9500   64.4730 O.co2 252  GLU252     -0.2457
    111  OE2       48.5480  192.3060   62.5060 O.co2 252  GLU252     -0.2457
    112  N         56.8320  185.3910   65.3230 N.3   256  ASP256     -0.1239
    113  CA        55.6590  184.6060   64.9910 C.3   256  ASP256      0.1674
    114  C         56.0510  183.4240   64.1170 C.2   256  ASP256      0.2266
    115  O         55.5080  183.2550   63.0270 O.2   256  ASP256     -0.2867
    116  CB        54.6350  185.4900   64.2840 C.3   256  ASP256      0.1410
    117  CG        53.2140  184.9680   64.4050 C.2   256  ASP256      0.3668
    118  OD1       52.9520  184.1060   65.2760 O.co2 256  ASP256     -0.2456
    119  OD2       52.3540  185.4310   63.6190 O.co2 256  ASP256     -0.2456
    120  N         56.6030  180.1510   62.0600 N.3   258  LYS258     -0.1245
    121  CA        55.6440  179.2870   61.3770 C.3   258  LYS258      0.1561
    122  C         56.3250  177.9570   61.0960 C.2   258  LYS258      0.2260
    123  O         57.1340  177.8500   60.1650 O.2   258  LYS258     -0.2867
    124  CB        55.1400  179.9390   60.0870 C.3   258  LYS258      0.0271
    125  CG        54.3510  181.2230   60.3120 C.3   258  LYS258      0.0035
    126  CD        52.9550  180.9200   60.8260 C.3   258  LYS258      0.0206
    127  CE        52.1560  182.1800   61.0820 C.3   258  LYS258      0.1093
    128  NZ        52.6660  182.9270   62.2570 N.3   258  LYS258     -0.1314
    129  N         49.0100  188.3280   53.3230 N.3   296  TYR296     -0.1227
    130  CA        47.5790  188.1120   53.5880 C.3   296  TYR296      0.1736
    131  C         46.8750  189.2390   54.3480 C.2   296  TYR296      0.2595
    132  O         45.6670  189.4000   54.2180 O.2   296  TYR296     -0.2718
    133  CB        47.3500  186.7780   54.3220 C.3   296  TYR296      0.0548
    134  CG        47.7210  186.6810   55.7940 C.ar  296  TYR296     -0.0200
    135  CD1       46.7470  186.4110   56.7510 C.ar  296  TYR296     -0.0009
    136  CD2       49.0400  186.7870   56.2160 C.ar  296  TYR296     -0.0009
    137  CE1       47.0660  186.2830   58.1000 C.ar  296  TYR296      0.0417
    138  CE2       49.3800  186.6650   57.5630 C.ar  296  TYR296      0.0417
    139  CZ        48.3830  186.4120   58.5040 C.ar  296  TYR296      0.1957
    140  OH        48.7000  186.2890   59.8380 O.3   296  TYR296     -0.2866
    141  N         47.6110  190.0220   55.1240 N.am  297  LYS297     -0.1980
    142  CA        46.9890  191.1050   55.8920 C.3   297  LYS297      0.1596
    143  C         46.9630  192.4450   55.1470 C.2   297  LYS297      0.2287
    144  O         46.3480  193.4010   55.6220 O.2   297  LYS297     -0.2864
    145  CB        47.6950  191.2950   57.2320 C.3   297  LYS297      0.0298
    146  CG        47.4410  190.1870   58.2290 C.3   297  LYS297      0.0038
    147  CD        48.2020  190.4430   59.5230 C.3   297  LYS297      0.0206
    148  CE        48.0490  189.2890   60.4670 C.3   297  LYS297      0.1093
    149  NZ        48.7360  189.5780   61.7490 N.3   297  LYS297     -0.1314
@<TRIPOS>BOND
     1   129   130    1
     2   130   133    1
     3   130   131    1
     4    50    49    2
     5   132   131    2
     6   133   134    1
     7   131   141   am
     8    49    48    1
     9   141   142    1
    10   143   144    2
    11   143   142    1
    12    51    48    1
    13    51    52    1
    14   134   136   ar
    15   134   135   ar
    16   142   145    1
    17    48    47    1
    18   136   138   ar
    19    52    54   ar
    20    52    53   ar
    21    54    56   ar
    22   135   137   ar
    23   145   146    1
    24    53    55   ar
    25    56    57   ar
    26   138   139   ar
    27   137   139   ar
    28   146   147    1
    29    57    55   ar
    30    57    58    1
    31   139   140    1
    32    59    60    1
    33   147   148    1
    34    63    60    1
    35    63    64    1
    36   124   125    1
    37   124   121    1
    38   123   122    2
    39    65    64   ar
    40    65    67   ar
    41    60    61    1
    42   125   126    1
    43    38    39    2
    44    38    37    1
    45    64    66   ar
    46   148   149    1
    47    46    44    1
    48    10    11    1
    49    67    69   ar
    50   126   127    1
    51   127   128    1
    52   122   121    1
    53    41    42    1
    54    41    40    1
    55    43    44    2
    56    43    42    1
    57    37    40    1
    58    37    36    1
    59   121   120    1
    60    66    68   ar
    61    15    14    1
    62    15    16    1
    63    14    11    1
    64    11    12    1
    65    44    45    1
    66    61    62    2
    67   101   100   ar
    68    69    68   ar
    69    69    70    1
    70   100   102   ar
    71   100    99    1
    72    96    99    1
    73    96    95    1
    74    96    97    1
    75   111   109   ar
    76    17    16    1
    77    17    18    1
    78   103    97   am
    79   103   104    1
    80   108   109    1
    81   108   107    1
    82     4     3    2
    83     3     2    1
    84   115   114    2
    85    12    13    2
    86    97    98    2
    87   104   107    1
    88   104   105    1
    89   109   110   ar
    90   119   117   ar
    91    90    89    2
    92    89    88    1
    93    91    92    1
    94    91    88    1
    95     1     2    1
    96   114   113    1
    97   116   117    1
    98   116   113    1
    99     2     5    1
   100   105   106    2
   101   117   118   ar
   102    94    92   ar
   103    92    93   ar
   104     5     6    1
   105    31    30    2
   106    88    87    1
   107   113   112    1
   108    35    33   ar
   109    32    33    1
   110    32    29    1
   111     8     7   ar
   112    30    29    1
   113    33    34   ar
   114    28    29    1
   115    27    25   ar
   116     6     7    1
   117    24    25    1
   118    24    23    1
   119     7     9   ar
   120    19    20    1
   121    25    26   ar
   122    78    76   ar
   123    20    23    1
   124    20    21    1
   125    76    75    1
   126    76    77   ar
   127    75    72    1
   128    21    22    2
   129    86    84   ar
   130    72    71    1
   131    72    73    1
   132    84    83    1
   133    84    85   ar
   134    83    80    1
   135    74    73    2
   136    82    81    2
   137    81    80    1
   138    80    79    1
