@<TRIPOS>MOLECULE
tmp/5c65A04.pdb
 84 79 0 0 0
SMALL
GASTEIGER

@<TRIPOS>ATOM
      1  N         -1.8970   -1.0580  -36.3130 N.3    99  THR99      -0.1218
      2  CA        -0.9010   -0.0650  -35.8800 C.3    99  THR99       0.1862
      3  C         -0.7100    0.9980  -36.9780 C.2    99  THR99       0.2287
      4  O         -0.6290    2.1930  -36.6590 O.2    99  THR99      -0.2866
      5  CB         0.4190   -0.7490  -35.4940 C.3    99  THR99       0.1770
      6  OG1        0.1640   -1.7780  -34.5320 O.3    99  THR99      -0.2211
      7  CG2        1.4300    0.2280  -34.9210 C.3    99  THR99       0.0375
      8  N         -3.9440    3.1040  -37.2150 N.3   102  CYS102     -0.1221
      9  CA        -4.0620    3.9830  -36.0540 C.3   102  CYS102      0.1808
     10  C         -3.1350    5.1840  -36.2180 C.2   102  CYS102      0.2601
     11  O         -3.5640    6.2930  -35.9320 O.2   102  CYS102     -0.2717
     12  CB        -3.7720    3.2300  -34.7610 C.3   102  CYS102      0.0970
     13  SG        -5.1700    2.2680  -34.1420 S.3   102  CYS102     -0.0800
     14  N         -1.8850    4.9750  -36.6890 N.am  103  PHE103     -0.1976
     15  CA        -0.9140    6.0470  -36.9070 C.3   103  PHE103      0.1639
     16  C         -1.4390    7.0960  -37.8980 C.2   103  PHE103      0.2290
     17  O         -1.3520    8.2870  -37.6180 O.2   103  PHE103     -0.2864
     18  CB         0.4340    5.4910  -37.3930 C.3   103  PHE103      0.0560
     19  CG         1.3160    4.7840  -36.3870 C.ar  103  PHE103     -0.0200
     20  CD1        1.1490    4.9870  -35.0200 C.ar  103  PHE103     -0.0042
     21  CD2        2.3440    3.9480  -36.8080 C.ar  103  PHE103     -0.0042
     22  CE1        1.9730    4.3390  -34.0920 C.ar  103  PHE103     -0.0003
     23  CE2        3.1740    3.3050  -35.8780 C.ar  103  PHE103     -0.0003
     24  CZ         2.9880    3.5120  -34.5270 C.ar  103  PHE103     -0.0000
     25  N         -4.7420    8.7820  -36.4710 N.3   106  LEU106     -0.1245
     26  CA        -4.5340    9.6880  -35.3350 C.3   106  LEU106      0.1561
     27  C         -3.4660   10.7820  -35.5660 C.2   106  LEU106      0.2260
     28  O         -3.3010   11.6320  -34.6880 O.2   106  LEU106     -0.2867
     29  CB        -4.1800    8.8910  -34.0640 C.3   106  LEU106      0.0270
     30  CG        -5.2370    7.9250  -33.5230 C.3   106  LEU106      0.0019
     31  CD1       -4.6240    6.9420  -32.5490 C.3   106  LEU106      0.0001
     32  CD2       -6.4050    8.6610  -32.9030 C.3   106  LEU106      0.0001
     33  N         -4.9400   14.4110  -34.9850 N.3   109  VAL109     -0.1231
     34  CA        -5.2190   14.6520  -33.5600 C.3   109  VAL109      0.1692
     35  C         -3.8900   14.8840  -32.8340 C.2   109  VAL109      0.2592
     36  O         -3.7650   15.8360  -32.0660 O.2   109  VAL109     -0.2718
     37  CB        -6.0270   13.4880  -32.9090 C.3   109  VAL109      0.0266
     38  CG1       -6.2760   13.7510  -31.4230 C.3   109  VAL109      0.0020
     39  CG2       -7.3530   13.2620  -33.6230 C.3   109  VAL109      0.0020
     40  N         -2.8980   14.0270  -33.1030 N.am  110  ALA110     -0.1966
     41  CA        -1.5670   14.0970  -32.5120 C.3   110  ALA110      0.1728
     42  C         -0.7370   15.2610  -33.0850 C.2   110  ALA110      0.2616
     43  O          0.3390   15.5630  -32.5470 O.2   110  ALA110     -0.2715
     44  CB        -0.8390   12.7810  -32.7430 C.3   110  ALA110      0.0334
     45  N         -1.2390   15.9160  -34.1720 N.am  111  LYS111     -0.1963
     46  CA        -0.5590   17.0040  -34.8870 C.3   111  LYS111      0.1728
     47  C          0.8700   16.5070  -35.1890 C.2   111  LYS111      0.2616
     48  O          1.8540   17.0580  -34.6820 O.2   111  LYS111     -0.2715
     49  CB        -0.6000   18.3280  -34.0810 C.3   111  LYS111      0.0311
     50  CG        -1.9850   18.9680  -34.0130 C.3   111  LYS111      0.0038
     51  CD        -2.0670   19.9970  -32.8950 C.3   111  LYS111      0.0206
     52  CE        -2.7770   21.2750  -33.2870 C.3   111  LYS111      0.1093
     53  NZ        -4.2540   21.1200  -33.3160 N.3   111  LYS111     -0.1314
     54  N          0.9550   15.3780  -35.9300 N.am  112  SER112     -0.1950
     55  CA         2.2140   14.6980  -36.2070 C.3   112  SER112      0.1924
     56  C          2.2940   14.1860  -37.6300 C.2   112  SER112      0.2314
     57  O          1.5050   13.3330  -38.0270 O.2   112  SER112     -0.2863
     58  CB         2.4030   13.5390  -35.2340 C.3   112  SER112      0.2116
     59  OG         3.6380   12.8750  -35.4370 O.3   112  SER112     -0.2180
     60  N          5.1370   12.7890  -38.5900 N.3   114  GLU114     -0.1231
     61  CA         5.9300   11.5890  -38.3020 C.3   114  GLU114      0.1699
     62  C          5.0270   10.3590  -38.2410 C.2   114  GLU114      0.2592
     63  O          5.3790    9.3120  -38.7980 O.2   114  GLU114     -0.2718
     64  CB         6.7160   11.7400  -36.9890 C.3   114  GLU114      0.0402
     65  CG         7.7930   12.8160  -37.0290 C.3   114  GLU114      0.1161
     66  CD         7.4020   14.2200  -36.5850 C.2   114  GLU114      0.3649
     67  OE1        8.3020   14.9460  -36.1030 O.co2 114  GLU114     -0.2457
     68  OE2        6.2150   14.6020  -36.7150 O.co2 114  GLU114     -0.2457
     69  N          3.8410   10.5010  -37.6100 N.am  115  MET115     -0.1979
     70  CA         2.8560    9.4230  -37.4960 C.3   115  MET115      0.1605
     71  C          2.2660    9.0510  -38.8600 C.2   115  MET115      0.2287
     72  O          2.0260    7.8750  -39.1140 O.2   115  MET115     -0.2864
     73  CB         1.7450    9.7970  -36.5160 C.3   115  MET115      0.0413
     74  CG         2.0810    9.4110  -35.1170 C.3   115  MET115      0.0598
     75  SD         0.8300    9.8700  -33.9310 S.3   115  MET115     -0.1393
     76  CE        -0.4300    8.6900  -34.2920 C.3   115  MET115      0.0692
     77  N          5.1840    7.2020  -40.7360 N.3   118  LEU118     -0.1245
     78  CA         5.3300    5.8770  -40.1300 C.3   118  LEU118      0.1561
     79  C          4.1230    4.9830  -40.4370 C.2   118  LEU118      0.2260
     80  O          4.3120    3.8160  -40.7630 O.2   118  LEU118     -0.2867
     81  CB         5.5620    5.9520  -38.6230 C.3   118  LEU118      0.0270
     82  CG         6.9770    6.3160  -38.2040 C.3   118  LEU118      0.0019
     83  CD1        7.0410    6.5750  -36.7190 C.3   118  LEU118      0.0001
     84  CD2        7.9780    5.2150  -38.5860 C.3   118  LEU118      0.0001
@<TRIPOS>BOND
     1    80    79    2
     2    77    78    1
     3    79    78    1
     4    78    81    1
     5    72    71    2
     6    71    70    1
     7    63    62    2
     8    81    82    1
     9    60    61    1
    10    84    82    1
    11    61    62    1
    12    61    64    1
    13    62    69   am
    14    82    83    1
    15    57    56    2
    16    16    17    2
    17    16    15    1
    18    56    55    1
    19    69    70    1
    20    70    73    1
    21    18    15    1
    22    18    19    1
    23     8     9    1
    24    65    64    1
    25    65    66    1
    26     3     4    2
    27     3     2    1
    28    15    14    1
    29    21    19   ar
    30    21    23   ar
    31    68    66   ar
    32    14    10   am
    33    66    67   ar
    34    73    74    1
    35    25    26    1
    36    19    20   ar
    37     1     2    1
    38    10     9    1
    39    10    11    2
    40    55    54    1
    41    55    58    1
    42     9    12    1
    43    54    47   am
    44     2     5    1
    45    23    24   ar
    46    27    26    1
    47    27    28    2
    48     5     7    1
    49     5     6    1
    50    59    58    1
    51    26    29    1
    52    47    46    1
    53    47    48    2
    54    74    75    1
    55    20    22   ar
    56    33    34    1
    57    46    45    1
    58    46    49    1
    59    12    13    1
    60    24    22   ar
    61    76    75    1
    62    45    42   am
    63    49    50    1
    64    29    30    1
    65    50    51    1
    66    39    37    1
    67    34    37    1
    68    34    35    1
    69    30    32    1
    70    30    31    1
    71    53    52    1
    72    52    51    1
    73    40    35   am
    74    40    41    1
    75    42    43    2
    76    42    41    1
    77    37    38    1
    78    35    36    2
    79    44    41    1
