@<TRIPOS>MOLECULE
tmp/5c65A06.pdb
 127 118 0 0 0
SMALL
GASTEIGER

@<TRIPOS>ATOM
      1  N          9.0980   -9.1980  -49.5420 N.3    75  PHE75      -0.1241
      2  CA        10.3370   -9.9680  -49.5070 C.3    75  PHE75       0.1605
      3  C         10.4710  -10.7620  -48.2090 C.2    75  PHE75       0.2264
      4  O         11.2580  -11.7070  -48.1680 O.2    75  PHE75      -0.2867
      5  CB        11.5570   -9.0400  -49.6810 C.3    75  PHE75       0.0534
      6  CG        12.8420   -9.7670  -50.0070 C.ar   75  PHE75      -0.0203
      7  CD1       13.0360  -10.3550  -51.2620 C.ar   75  PHE75      -0.0042
      8  CD2       13.8530   -9.8850  -49.0590 C.ar   75  PHE75      -0.0042
      9  CE1       14.2180  -11.0510  -51.5570 C.ar   75  PHE75      -0.0003
     10  CE2       15.0400  -10.5780  -49.3610 C.ar   75  PHE75      -0.0003
     11  CZ        15.2130  -11.1510  -50.6100 C.ar   75  PHE75      -0.0000
     12  N         16.3960  -17.8550  -50.8030 N.3   253  VAL253     -0.1231
     13  CA        16.2610  -16.9620  -51.9680 C.3   253  VAL253      0.1692
     14  C         17.4520  -17.1510  -52.9570 C.2   253  VAL253      0.2591
     15  O         17.2120  -17.2910  -54.1630 O.2   253  VAL253     -0.2718
     16  CB        16.0780  -15.4860  -51.5050 C.3   253  VAL253      0.0266
     17  CG1       16.5610  -14.4730  -52.5520 C.3   253  VAL253      0.0020
     18  CG2       14.6240  -15.2250  -51.1060 C.3   253  VAL253      0.0020
     19  N         18.7030  -17.2210  -52.4370 N.am  254  LEU254     -0.1980
     20  CA        19.9310  -17.4160  -53.2320 C.3   254  LEU254      0.1596
     21  C         19.9190  -18.7460  -54.0370 C.2   254  LEU254      0.2287
     22  O         20.3860  -18.7610  -55.1800 O.2   254  LEU254     -0.2864
     23  CB        21.1670  -17.3730  -52.3180 C.3   254  LEU254      0.0297
     24  CG        22.5210  -17.2110  -53.0100 C.3   254  LEU254      0.0022
     25  CD1       22.8570  -15.7380  -53.2110 C.3   254  LEU254      0.0001
     26  CD2       23.6310  -17.8970  -52.2170 C.3   254  LEU254      0.0001
     27  N         18.3790  -19.0270  -57.7040 N.3   257  PHE257     -0.1241
     28  CA        19.1960  -18.5440  -58.8040 C.3   257  PHE257      0.1605
     29  C         20.3810  -19.5000  -59.0870 C.2   257  PHE257      0.2264
     30  O         20.8910  -19.5140  -60.2140 O.2   257  PHE257     -0.2867
     31  CB        19.6760  -17.1150  -58.5180 C.3   257  PHE257      0.0534
     32  CG        18.5470  -16.1440  -58.2340 C.ar  257  PHE257     -0.0203
     33  CD1       17.6980  -15.7160  -59.2520 C.ar  257  PHE257     -0.0042
     34  CD2       18.3210  -15.6730  -56.9450 C.ar  257  PHE257     -0.0042
     35  CE1       16.6330  -14.8440  -58.9760 C.ar  257  PHE257     -0.0003
     36  CE2       17.2640  -14.7880  -56.6740 C.ar  257  PHE257     -0.0003
     37  CZ        16.4320  -14.3780  -57.6900 C.ar  257  PHE257     -0.0000
     38  N          9.6680  -13.5360  -62.1230 N.3   270  ILE270     -0.1245
     39  CA        10.1090  -12.1300  -62.0930 C.3   270  ILE270      0.1561
     40  C          9.6230  -11.3860  -63.3560 C.2   270  ILE270      0.2260
     41  O          8.9990  -10.3340  -63.2110 O.2   270  ILE270     -0.2867
     42  CB        11.6590  -11.9880  -61.9040 C.3   270  ILE270      0.0252
     43  CG1       12.1210  -12.5850  -60.5530 C.3   270  ILE270      0.0019
     44  CG2       12.1090  -10.5270  -62.0310 C.3   270  ILE270      0.0019
     45  CD1       13.5840  -13.0300  -60.5420 C.3   270  ILE270      0.0001
     46  N          7.2040   -7.9270  -64.1000 N.3   274  LEU274     -0.1245
     47  CA         7.6280   -6.7990  -64.9310 C.3   274  LEU274      0.1561
     48  C          6.6320   -6.5640  -66.0650 C.2   274  LEU274      0.2260
     49  O          6.3860   -5.4180  -66.3920 O.2   274  LEU274     -0.2867
     50  CB         9.0390   -7.0060  -65.5080 C.3   274  LEU274      0.0270
     51  CG        10.1620   -7.3660  -64.5340 C.3   274  LEU274      0.0019
     52  CD1       11.4550   -7.5870  -65.2810 C.3   274  LEU274      0.0001
     53  CD2       10.3610   -6.2970  -63.4760 C.3   274  LEU274      0.0001
     54  N          5.3300   -2.8860  -66.1620 N.3   278  LEU278     -0.1245
     55  CA         5.9250   -2.1510  -67.2890 C.3   278  LEU278      0.1561
     56  C          5.0490   -2.2600  -68.5530 C.2   278  LEU278      0.2260
     57  O          5.5360   -2.0480  -69.6620 O.2   278  LEU278     -0.2867
     58  CB         7.3600   -2.6400  -67.5750 C.3   278  LEU278      0.0270
     59  CG         8.4210   -2.2390  -66.5560 C.3   278  LEU278      0.0019
     60  CD1        9.3950   -3.3520  -66.3340 C.3   278  LEU278      0.0001
     61  CD2        9.1860   -1.0570  -67.0320 C.3   278  LEU278      0.0001
     62  N         10.7110  -13.2930  -53.7260 N.3   392  VAL392     -0.1245
     63  CA        11.4590  -12.6940  -54.8480 C.3   392  VAL392      0.1561
     64  C         10.4830  -12.0710  -55.8650 C.2   392  VAL392      0.2260
     65  O         10.6370  -10.8950  -56.2110 O.2   392  VAL392     -0.2867
     66  CB        12.3990  -13.7240  -55.5330 C.3   392  VAL392      0.0252
     67  CG1       13.0300  -13.1460  -56.7880 C.3   392  VAL392      0.0019
     68  CG2       13.4740  -14.2260  -54.5770 C.3   392  VAL392      0.0019
     69  N          8.5900   -9.0610  -54.2690 N.3   395  CYS395     -0.1221
     70  CA         9.5070   -7.9380  -54.1560 C.3   395  CYS395      0.1808
     71  C          9.7880   -7.3060  -55.5310 C.2   395  CYS395      0.2601
     72  O          9.8860   -6.0900  -55.6080 O.2   395  CYS395     -0.2717
     73  CB        10.7970   -8.3620  -53.4710 C.3   395  CYS395      0.0970
     74  SG        11.8490   -6.9840  -52.9860 S.3   395  CYS395     -0.0800
     75  N          9.8880   -8.1270  -56.6060 N.am  396  SER396     -0.1952
     76  CA        10.0960   -7.6860  -57.9930 C.3   396  SER396      0.1924
     77  C          8.9500   -6.8020  -58.4580 C.2   396  SER396      0.2314
     78  O          9.1920   -5.8150  -59.1360 O.2   396  SER396     -0.2863
     79  CB        10.2190   -8.8860  -58.9330 C.3   396  SER396      0.2116
     80  OG        11.3230   -9.7000  -58.5840 O.3   396  SER396     -0.2180
     81  N          9.1040   -3.4030  -56.3010 N.3   399  THR399     -0.1203
     82  CA        10.2920   -2.6350  -56.6990 C.3   399  THR399      0.1994
     83  C         10.1040   -2.0470  -58.1110 C.2   399  THR399      0.2618
     84  O         10.4350   -0.8720  -58.3180 O.2   399  THR399     -0.2717
     85  CB        11.5670   -3.4950  -56.6010 C.3   399  THR399      0.1784
     86  OG1       11.6500   -4.0620  -55.2930 O.3   399  THR399     -0.2211
     87  CG2       12.8370   -2.7150  -56.8870 C.3   399  THR399      0.0376
     88  N          9.5730   -2.8470  -59.0740 N.am  400  SER400     -0.1951
     89  CA         9.3640   -2.3500  -60.4390 C.3   400  SER400      0.1924
     90  C          8.2720   -1.2760  -60.4520 C.2   400  SER400      0.2314
     91  O          8.4120   -0.2920  -61.1730 O.2   400  SER400     -0.2863
     92  CB         9.0480   -3.4760  -61.4180 C.3   400  SER400      0.2116
     93  OG         7.8770   -4.1770  -61.0460 O.3   400  SER400     -0.2180
     94  N         10.0390    1.9040  -59.0170 N.3   403  LEU403     -0.1231
     95  CA        10.9940    2.4790  -59.9620 C.3   403  LEU403      0.1693
     96  C         10.3030    3.0850  -61.1820 C.2   403  LEU403      0.2591
     97  O         10.7930    4.0860  -61.6960 O.2   403  LEU403     -0.2718
     98  CB        12.0520    1.4580  -60.3880 C.3   403  LEU403      0.0284
     99  CG        13.0540    1.0510  -59.2980 C.3   403  LEU403      0.0019
    100  CD1       13.7690   -0.2240  -59.6630 C.3   403  LEU403      0.0001
    101  CD2       14.0620    2.1620  -59.0100 C.3   403  LEU403      0.0001
    102  N          9.1550    2.5200  -61.6200 N.am  404  VAL404     -0.1980
    103  CA         8.3870    3.0640  -62.7490 C.3   404  VAL404      0.1595
    104  C          7.7530    4.3890  -62.2800 C.2   404  VAL404      0.2287
    105  O          7.8040    5.3710  -63.0120 O.2   404  VAL404     -0.2864
    106  CB         7.3520    2.0560  -63.3430 C.3   404  VAL404      0.0276
    107  CG1        6.3450    2.7450  -64.2470 C.3   404  VAL404      0.0022
    108  CG2        8.0460    0.9460  -64.1140 C.3   404  VAL404      0.0022
    109  N         10.6580    7.2080  -62.1190 N.3   407  LEU407     -0.1245
    110  CA        11.2230    7.5730  -63.4150 C.3   407  LEU407      0.1561
    111  C         10.1890    8.0150  -64.4570 C.2   407  LEU407      0.2260
    112  O         10.5730    8.6930  -65.4180 O.2   407  LEU407     -0.2867
    113  CB        12.0200    6.3810  -63.9850 C.3   407  LEU407      0.0270
    114  CG        13.2480    5.8990  -63.2040 C.3   407  LEU407      0.0019
    115  CD1       13.6820    4.5200  -63.6860 C.3   407  LEU407      0.0001
    116  CD2       14.4080    6.8910  -63.3060 C.3   407  LEU407      0.0001
    117  N          8.1420   -2.7730  -74.7730 N.3   426  PHE426     -0.1241
    118  CA         8.0760   -3.6780  -73.6190 C.3   426  PHE426      0.1605
    119  C          7.0340   -4.7840  -73.8470 C.2   426  PHE426      0.2264
    120  O          7.3610   -5.9680  -73.7350 O.2   426  PHE426     -0.2867
    121  CB         7.7380   -2.9360  -72.2970 C.3   426  PHE426      0.0534
    122  CG         8.7200   -1.9340  -71.7200 C.ar  426  PHE426     -0.0203
    123  CD1       10.0940   -2.1250  -71.8410 C.ar  426  PHE426     -0.0042
    124  CD2        8.2690   -0.8390  -70.9860 C.ar  426  PHE426     -0.0042
    125  CE1       10.9970   -1.1960  -71.3010 C.ar  426  PHE426     -0.0003
    126  CE2        9.1700    0.0860  -70.4470 C.ar  426  PHE426     -0.0003
    127  CZ        10.5280   -0.1020  -70.6030 C.ar  426  PHE426     -0.0000
@<TRIPOS>BOND
     1   117   118    1
     2   119   120    2
     3   119   118    1
     4   118   121    1
     5   121   122    1
     6   123   122   ar
     7   123   125   ar
     8   122   124   ar
     9   125   127   ar
    10   124   126   ar
    11   127   126   ar
    12    57    56    2
    13    56    55    1
    14    58    55    1
    15    58    59    1
    16    55    54    1
    17    61    59    1
    18    59    60    1
    19    49    48    2
    20    48    47    1
    21    50    47    1
    22    50    51    1
    23   112   111    2
    24    52    51    1
    25    47    46    1
    26    51    53    1
    27   111   110    1
    28   107   106    1
    29   108   106    1
    30   113   110    1
    31   113   114    1
    32   115   114    1
    33   110   109    1
    34    40    41    2
    35    40    39    1
    36   106   103    1
    37   116   114    1
    38   105   104    2
    39   103   104    1
    40   103   102    1
    41    38    39    1
    42    39    42    1
    43    44    42    1
    44    42    43    1
    45    97    96    2
    46   102    96   am
    47    92    93    1
    48    92    89    1
    49    96    95    1
    50    91    90    2
    51    43    45    1
    52    90    89    1
    53    89    88    1
    54    98    95    1
    55    98    99    1
    56    30    29    2
    57    95    94    1
    58   100    99    1
    59    99   101    1
    60    33    35   ar
    61    33    32   ar
    62    78    77    2
    63    29    28    1
    64    88    83   am
    65    35    37   ar
    66    79    80    1
    67    79    76    1
    68    28    31    1
    69    28    27    1
    70    31    32    1
    71    77    76    1
    72    84    83    2
    73    32    34   ar
    74    83    82    1
    75    76    75    1
    76    37    36   ar
    77    34    36   ar
    78    87    85    1
    79    67    66    1
    80    82    85    1
    81    82    81    1
    82    75    71   am
    83    85    86    1
    84    65    64    2
    85    64    63    1
    86    72    71    2
    87    66    63    1
    88    66    68    1
    89    71    70    1
    90    22    21    2
    91    63    62    1
    92    69    70    1
    93    15    14    2
    94    70    73    1
    95    21    20    1
    96    73    74    1
    97    20    19    1
    98    20    23    1
    99    25    24    1
   100    24    23    1
   101    24    26    1
   102    14    19   am
   103    14    13    1
   104    17    16    1
   105    13    16    1
   106    13    12    1
   107     9     7   ar
   108     9    11   ar
   109    16    18    1
   110     7     6   ar
   111    11    10   ar
   112     6     5    1
   113     6     8   ar
   114     5     2    1
   115     1     2    1
   116     2     3    1
   117    10     8   ar
   118     3     4    2
