@<TRIPOS>MOLECULE
tmp/5c65A03.pdb
 92 86 0 0 0
SMALL
GASTEIGER

@<TRIPOS>ATOM
      1  N          9.6170  -15.3600  -43.6110 N.3    79  LEU79      -0.1231
      2  CA         9.8700  -15.3220  -42.1640 C.3    79  LEU79       0.1693
      3  C          8.6000  -15.6600  -41.3660 C.2    79  LEU79       0.2592
      4  O          8.6620  -15.7240  -40.1350 O.2    79  LEU79      -0.2718
      5  CB        10.3730  -13.9320  -41.7030 C.3    79  LEU79       0.0284
      6  CG        11.5850  -13.2720  -42.3790 C.3    79  LEU79       0.0019
      7  CD1       11.6130  -11.7790  -42.0510 C.3    79  LEU79       0.0001
      8  CD2       12.8900  -13.9010  -41.9340 C.3    79  LEU79       0.0001
      9  N          7.4480  -15.8430  -42.0530 N.am   80  PHE80      -0.1976
     10  CA         6.1480  -16.0870  -41.4300 C.3    80  PHE80       0.1639
     11  C          5.5160  -17.4050  -41.8270 C.2    80  PHE80       0.2290
     12  O          5.2720  -18.2430  -40.9590 O.2    80  PHE80      -0.2864
     13  CB         5.1650  -14.9650  -41.8190 C.3    80  PHE80       0.0560
     14  CG         5.4640  -13.6010  -41.2510 C.ar   80  PHE80      -0.0200
     15  CD1        4.7960  -13.1390  -40.1190 C.ar   80  PHE80      -0.0042
     16  CD2        6.4360  -12.7850  -41.8290 C.ar   80  PHE80      -0.0042
     17  CE1        5.0990  -11.8910  -39.5720 C.ar   80  PHE80      -0.0003
     18  CE2        6.7390  -11.5380  -41.2760 C.ar   80  PHE80      -0.0003
     19  CZ         6.0510  -11.0880  -40.1670 C.ar   80  PHE80      -0.0000
     20  N          6.9140  -20.7360  -40.5620 N.3    83  ARG83      -0.1245
     21  CA         7.0250  -20.6660  -39.1110 C.3    83  ARG83       0.1563
     22  C          5.6560  -20.7570  -38.4230 C.2    83  ARG83       0.2260
     23  O          5.5300  -21.4450  -37.4120 O.2    83  ARG83      -0.2867
     24  CB         7.7330  -19.3490  -38.7210 C.3    83  ARG83       0.0307
     25  CG         8.0100  -19.2190  -37.2270 C.3    83  ARG83       0.0489
     26  CD         8.7190  -17.9320  -36.8960 C.3    83  ARG83       0.2205
     27  NE         8.7130  -17.7150  -35.4530 N.pl3  83  ARG83      -0.0865
     28  CZ         9.3420  -16.7220  -34.8350 C.cat  83  ARG83       0.5346
     29  NH1       10.0580  -15.8470  -35.5280 N.pl3  83  ARG83       0.1354
     30  NH2        9.2770  -16.6100  -33.5150 N.pl3  83  ARG83       0.1354
     31  N         -1.6480  -12.8000  -37.7520 N.3    92  ILE92      -0.1231
     32  CA        -0.5490  -12.1220  -37.0690 C.3    92  ILE92       0.1692
     33  C         -0.2880  -10.7280  -37.6850 C.2    92  ILE92       0.2591
     34  O         -0.2080   -9.7570  -36.9360 O.2    92  ILE92      -0.2718
     35  CB         0.7170  -13.0460  -37.0740 C.3    92  ILE92       0.0266
     36  CG1        0.5850  -14.1320  -35.9790 C.3    92  ILE92       0.0019
     37  CG2        2.0330  -12.2720  -36.9120 C.3    92  ILE92       0.0020
     38  CD1        1.4300  -15.4050  -36.1770 C.3    92  ILE92       0.0001
     39  N         -0.2350  -10.6120  -39.0280 N.am   93  VAL93      -0.1980
     40  CA         0.0790   -9.3330  -39.6880 C.3    93  VAL93       0.1595
     41  C         -1.0660   -8.3080  -39.5740 C.2    93  VAL93       0.2287
     42  O         -0.8040   -7.1310  -39.8230 O.2    93  VAL93      -0.2864
     43  CB         0.5810   -9.4630  -41.1540 C.3    93  VAL93       0.0276
     44  CG1        1.8550  -10.2980  -41.1990 C.3    93  VAL93       0.0022
     45  CG2       -0.4840  -10.0210  -42.0990 C.3    93  VAL93       0.0022
     46  N         -1.9380   -7.1310  -36.9490 N.3    95  LEU95      -0.1231
     47  CA        -1.3470   -6.2630  -35.9250 C.3    95  LEU95       0.1693
     48  C         -0.6130   -5.0630  -36.6010 C.2    95  LEU95       0.2591
     49  O         -0.6040   -3.9570  -36.0450 O.2    95  LEU95      -0.2718
     50  CB        -0.4020   -7.0560  -35.0020 C.3    95  LEU95       0.0284
     51  CG         0.4000   -6.2610  -33.9620 C.3    95  LEU95       0.0019
     52  CD1       -0.4970   -5.4300  -33.0390 C.3    95  LEU95       0.0001
     53  CD2        1.3240   -7.1700  -33.1790 C.3    95  LEU95       0.0001
     54  N         -0.0530   -5.2730  -37.8140 N.am   96  LEU96      -0.1980
     55  CA         0.5890   -4.2100  -38.5830 C.3    96  LEU96       0.1596
     56  C         -0.4740   -3.2910  -39.2060 C.2    96  LEU96       0.2287
     57  O         -0.2740   -2.0800  -39.2470 O.2    96  LEU96      -0.2864
     58  CB         1.5000   -4.7850  -39.6780 C.3    96  LEU96       0.0297
     59  CG         2.7950   -5.4400  -39.2400 C.3    96  LEU96       0.0022
     60  CD1        3.3190   -6.3220  -40.3270 C.3    96  LEU96       0.0001
     61  CD2        3.8600   -4.3990  -38.9060 C.3    96  LEU96       0.0001
     62  N          5.1840    7.2020  -40.7360 N.3   118  LEU118     -0.1245
     63  CA         5.3300    5.8770  -40.1300 C.3   118  LEU118      0.1561
     64  C          4.1230    4.9830  -40.4370 C.2   118  LEU118      0.2260
     65  O          4.3120    3.8160  -40.7630 O.2   118  LEU118     -0.2867
     66  CB         5.5620    5.9520  -38.6230 C.3   118  LEU118      0.0270
     67  CG         6.9770    6.3160  -38.2040 C.3   118  LEU118      0.0019
     68  CD1        7.0410    6.5750  -36.7190 C.3   118  LEU118      0.0001
     69  CD2        7.9780    5.2150  -38.5860 C.3   118  LEU118      0.0001
     70  N          4.4120    3.6250  -43.8490 N.3   121  LEU121     -0.1231
     71  CA         5.4640    2.6000  -43.8410 C.3   121  LEU121      0.1693
     72  C          4.9150    1.2670  -43.3220 C.2   121  LEU121      0.2591
     73  O          5.0680    0.2440  -43.9820 O.2   121  LEU121     -0.2718
     74  CB         6.6840    3.0330  -42.9840 C.3   121  LEU121      0.0284
     75  CG         7.7870    1.9700  -42.7540 C.3   121  LEU121      0.0019
     76  CD1        8.4640    1.5510  -44.0640 C.3   121  LEU121      0.0001
     77  CD2        8.8090    2.4510  -41.7500 C.3   121  LEU121      0.0001
     78  N          4.2860    1.2890  -42.1390 N.am  122  VAL122     -0.1980
     79  CA         3.7520    0.1030  -41.4640 C.3   122  VAL122      0.1595
     80  C          2.6240   -0.5520  -42.3010 C.2   122  VAL122      0.2287
     81  O          2.5750   -1.7800  -42.3770 O.2   122  VAL122     -0.2864
     82  CB         3.3090    0.4300  -40.0150 C.3   122  VAL122      0.0276
     83  CG1        2.7320   -0.7960  -39.3240 C.3   122  VAL122      0.0022
     84  CG2        4.4800    0.9850  -39.2040 C.3   122  VAL122      0.0022
     85  N          4.3650   -2.3510  -45.0500 N.3   125  LEU125     -0.1245
     86  CA         4.8800   -3.6320  -44.5530 C.3   125  LEU125      0.1561
     87  C          3.7980   -4.6900  -44.5640 C.2   125  LEU125      0.2260
     88  O          4.0490   -5.8150  -45.0160 O.2   125  LEU125     -0.2867
     89  CB         5.4820   -3.5030  -43.1340 C.3   125  LEU125      0.0270
     90  CG         6.7530   -2.6380  -43.0010 C.3   125  LEU125      0.0019
     91  CD1        7.0990   -2.4050  -41.5460 C.3   125  LEU125      0.0001
     92  CD2        7.9350   -3.2570  -43.7190 C.3   125  LEU125      0.0001
@<TRIPOS>BOND
     1    85    86    1
     2    88    87    2
     3    87    86    1
     4    86    89    1
     5    76    75    1
     6    73    72    2
     7    70    71    1
     8    71    72    1
     9    71    74    1
    10    92    90    1
    11     1     2    1
    12    72    78   am
    13    89    90    1
    14    90    91    1
    15    74    75    1
    16    75    77    1
    17     6     7    1
    18     6     8    1
    19     6     5    1
    20    81    80    2
    21    80    79    1
    22     2     5    1
    23     2     3    1
    24    78    79    1
    25    45    43    1
    26     9    10    1
    27     9     3   am
    28    16    18   ar
    29    16    14   ar
    30    11    10    1
    31    11    12    2
    32    13    10    1
    33    13    14    1
    34    79    82    1
    35     3     4    2
    36    18    19   ar
    37    14    15   ar
    38    44    43    1
    39    43    40    1
    40    65    64    2
    41    62    63    1
    42    20    21    1
    43    64    63    1
    44    60    59    1
    45    19    17   ar
    46    63    66    1
    47    15    17   ar
    48    82    83    1
    49    82    84    1
    50    42    41    2
    51    40    41    1
    52    40    39    1
    53    58    59    1
    54    58    55    1
    55    57    56    2
    56    59    61    1
    57    56    55    1
    58    21    24    1
    59    21    22    1
    60    39    33   am
    61    24    25    1
    62    66    67    1
    63    69    67    1
    64    55    54    1
    65    22    23    2
    66    67    68    1
    67    54    48   am
    68    31    32    1
    69    33    32    1
    70    33    34    2
    71    25    26    1
    72    35    32    1
    73    35    37    1
    74    35    36    1
    75    46    47    1
    76    26    27    1
    77    48    49    2
    78    48    47    1
    79    38    36    1
    80    47    50    1
    81    29    28    1
    82    27    28    2
    83    50    51    1
    84    28    30    1
    85    51    53    1
    86    51    52    1
