@<TRIPOS>MOLECULE
tmp/5c65A05.pdb
 92 86 0 0 0
SMALL
GASTEIGER

@<TRIPOS>ATOM
      1  N          3.8400   21.8300  -39.4170 N.3    42  LEU42      -0.1245
      2  CA         5.2350   22.2620  -39.4170 C.3    42  LEU42       0.1561
      3  C          5.3890   23.7530  -39.0980 C.2    42  LEU42       0.2260
      4  O          6.3160   24.1050  -38.3650 O.2    42  LEU42      -0.2867
      5  CB         5.8870   21.9150  -40.7580 C.3    42  LEU42       0.0270
      6  CG         6.8090   20.6820  -40.7670 C.3    42  LEU42       0.0019
      7  CD1        6.0860   19.4200  -40.3560 C.3    42  LEU42       0.0001
      8  CD2        7.4130   20.4690  -42.1380 C.3    42  LEU42       0.0001
      9  N          4.7890   24.7450  -35.2750 N.3    45  LYS45      -0.1245
     10  CA         5.8330   24.2840  -34.3540 C.3    45  LYS45       0.1561
     11  C          6.5830   25.4730  -33.6710 C.2    45  LYS45       0.2260
     12  O          6.9630   25.3510  -32.5060 O.2    45  LYS45      -0.2867
     13  CB         6.8230   23.3550  -35.0740 C.3    45  LYS45       0.0271
     14  CG         6.1840   22.0500  -35.5880 C.3    45  LYS45       0.0035
     15  CD         7.2900   21.0580  -35.9870 C.3    45  LYS45       0.0206
     16  CE         6.8330   19.7820  -36.6080 C.3    45  LYS45       0.1093
     17  NZ         5.9650   19.0230  -35.6680 N.3    45  LYS45      -0.1314
     18  N          9.2630   27.3190  -35.3210 N.3    47  ASN47      -0.1225
     19  CA        10.4880   27.6110  -36.0660 C.3    47  ASN47       0.1785
     20  C         10.1480   28.2960  -37.3840 C.2    47  ASN47       0.2597
     21  O          9.0220   28.7790  -37.5610 O.2    47  ASN47      -0.2718
     22  CB        11.2940   26.3220  -36.3130 C.3    47  ASN47       0.1169
     23  CG        12.1430   25.8910  -35.1380 C.2    47  ASN47       0.2627
     24  OD1       12.7720   26.7130  -34.4420 O.2    47  ASN47      -0.2716
     25  ND2       12.1990   24.5790  -34.9110 N.am   47  ASN47      -0.0877
     26  N         11.1300   28.3520  -38.3010 N.am   48  ALA48      -0.1966
     27  CA        10.9790   28.9470  -39.6280 C.3    48  ALA48       0.1713
     28  C          9.9610   28.1410  -40.4450 C.2    48  ALA48       0.2458
     29  O          9.9310   26.9260  -40.2980 O.2    48  ALA48      -0.2730
     30  CB        12.3250   28.9920  -40.3380 C.3    48  ALA48       0.0333
     31  N          9.0960   28.7850  -41.2690 N.am   49  PRO49      -0.2716
     32  CA         8.1000   28.0160  -42.0410 C.3    49  PRO49       0.1521
     33  C          8.7450   27.0480  -43.0440 C.2    49  PRO49       0.2440
     34  O          9.8330   27.3490  -43.5500 O.2    49  PRO49      -0.2731
     35  CB         7.2960   29.1060  -42.7650 C.3    49  PRO49       0.0310
     36  CG         7.5780   30.3740  -42.0110 C.3    49  PRO49       0.0237
     37  CD         8.9820   30.2310  -41.5480 C.3    49  PRO49       0.0939
     38  N          8.1160   25.8790  -43.3350 N.am   50  PRO50      -0.2727
     39  CA         8.7300   24.9370  -44.2810 C.3    50  PRO50       0.1402
     40  C          8.7480   25.4750  -45.7080 C.2    50  PRO50       0.2269
     41  O          7.8570   26.2460  -46.0940 O.2    50  PRO50      -0.2865
     42  CB         7.8420   23.6970  -44.1700 C.3    50  PRO50       0.0296
     43  CG         6.5340   24.1980  -43.7080 C.3    50  PRO50       0.0237
     44  CD         6.8420   25.3480  -42.8070 C.3    50  PRO50       0.0939
     45  N         10.6410   21.2120  -49.2160 N.3    54  LEU54      -0.1245
     46  CA        10.4710   20.3200  -48.0760 C.3    54  LEU54       0.1561
     47  C          9.0580   19.7340  -48.0690 C.2    54  LEU54       0.2260
     48  O          8.9150   18.5290  -47.8960 O.2    54  LEU54      -0.2867
     49  CB        10.7810   21.0380  -46.7400 C.3    54  LEU54       0.0270
     50  CG        10.5370   20.2400  -45.4420 C.3    54  LEU54       0.0019
     51  CD1       11.5260   19.1070  -45.2800 C.3    54  LEU54       0.0001
     52  CD2       10.5850   21.1260  -44.2350 C.3    54  LEU54       0.0001
     53  N          8.1040   15.8290  -48.3300 N.3    58  LEU58      -0.1245
     54  CA         7.3470   15.1100  -47.2960 C.3    58  LEU58       0.1561
     55  C          6.0970   14.4410  -47.8820 C.2    58  LEU58       0.2260
     56  O          5.7870   13.3110  -47.4960 O.2    58  LEU58      -0.2867
     57  CB         6.9900   15.9940  -46.1080 C.3    58  LEU58       0.0270
     58  CG         8.1740   16.4420  -45.2550 C.3    58  LEU58       0.0019
     59  CD1        7.7780   17.5620  -44.3400 C.3    58  LEU58       0.0001
     60  CD2        8.7670   15.3040  -44.4690 C.3    58  LEU58       0.0001
     61  N          7.4640   11.4930  -49.8300 N.3    61  LEU61      -0.1245
     62  CA         7.8760   10.5240  -48.8190 C.3    61  LEU61       0.1561
     63  C          6.6570    9.7900  -48.2700 C.2    61  LEU61       0.2260
     64  O          6.7220    8.5830  -48.1250 O.2    61  LEU61      -0.2867
     65  CB         8.6640   11.2130  -47.6830 C.3    61  LEU61       0.0270
     66  CG         9.1570   10.3300  -46.5240 C.3    61  LEU61       0.0019
     67  CD1       10.0640    9.1900  -47.0260 C.3    61  LEU61       0.0001
     68  CD2        9.8320   11.1650  -45.4460 C.3    61  LEU61       0.0001
     69  N          3.2780   14.7010  -38.3890 N.3   113  VAL113     -0.1231
     70  CA         3.5780   14.3100  -39.7730 C.3   113  VAL113      0.1692
     71  C          4.3850   12.9900  -39.7030 C.2   113  VAL113      0.2591
     72  O          4.2750   12.1530  -40.6050 O.2   113  VAL113     -0.2718
     73  CB         4.3120   15.4520  -40.5470 C.3   113  VAL113      0.0266
     74  CG1        4.6460   15.0430  -41.9790 C.3   113  VAL113      0.0020
     75  CG2        3.4770   16.7280  -40.5490 C.3   113  VAL113      0.0020
     76  N          5.1370   12.7890  -38.5900 N.am  114  GLU114     -0.1979
     77  CA         5.9300   11.5890  -38.3020 C.3   114  GLU114      0.1602
     78  C          5.0270   10.3590  -38.2410 C.2   114  GLU114      0.2287
     79  O          5.3790    9.3120  -38.7980 O.2   114  GLU114     -0.2864
     80  CB         6.7160   11.7400  -36.9890 C.3   114  GLU114      0.0415
     81  CG         7.7930   12.8160  -37.0290 C.3   114  GLU114      0.1163
     82  CD         7.4020   14.2200  -36.5850 C.2   114  GLU114      0.3649
     83  OE1        8.3020   14.9460  -36.1030 O.co2 114  GLU114     -0.2457
     84  OE2        6.2150   14.6020  -36.7150 O.co2 114  GLU114     -0.2457
     85  N          3.8280    9.4230  -41.8980 N.3   117  ILE117     -0.1245
     86  CA         4.9030    8.7780  -42.6430 C.3   117  ILE117      0.1561
     87  C          5.1310    7.3630  -42.0780 C.2   117  ILE117      0.2260
     88  O          5.1750    6.4180  -42.8660 O.2   117  ILE117     -0.2867
     89  CB         6.1690    9.6830  -42.6550 C.3   117  ILE117      0.0252
     90  CG1        5.9470   10.8520  -43.6440 C.3   117  ILE117      0.0019
     91  CG2        7.4650    8.8990  -42.9960 C.3   117  ILE117      0.0019
     92  CD1        6.6860   12.1020  -43.3250 C.3   117  ILE117      0.0001
@<TRIPOS>BOND
     1    61    62    1
     2    45    46    1
     3    62    63    1
     4    62    65    1
     5    53    54    1
     6    63    64    2
     7    46    47    1
     8    46    49    1
     9    47    48    2
    10    55    56    2
    11    55    54    1
    12    65    66    1
    13    54    57    1
    14    67    66    1
    15    49    50    1
    16    66    68    1
    17    57    58    1
    18    41    40    2
    19    40    39    1
    20    50    51    1
    21    50    52    1
    22    58    60    1
    23    58    59    1
    24    39    42    1
    25    39    38    1
    26    42    43    1
    27    43    44    1
    28    90    92    1
    29    90    89    1
    30    34    33    2
    31    38    33   am
    32    38    44    1
    33    33    32    1
    34    91    89    1
    35    88    87    2
    36    35    32    1
    37    35    36    1
    38    89    86    1
    39    86    87    1
    40    86    85    1
    41     8     6    1
    42    32    31    1
    43    36    37    1
    44    74    73    1
    45    37    31    1
    46    31    28   am
    47     6     5    1
    48     6     7    1
    49     5     2    1
    50    72    71    2
    51    75    73    1
    52    73    70    1
    53    28    29    2
    54    28    27    1
    55    30    27    1
    56    70    71    1
    57    70    69    1
    58    71    76   am
    59    27    26    1
    60     2     1    1
    61     2     3    1
    62     3     4    2
    63    79    78    2
    64    76    77    1
    65    77    78    1
    66    77    80    1
    67    26    20   am
    68    21    20    2
    69    20    19    1
    70    81    80    1
    71    81    82    1
    72    84    82   ar
    73    16    15    1
    74    16    17    1
    75    82    83   ar
    76    22    19    1
    77    22    23    1
    78    19    18    1
    79    15    14    1
    80    14    13    1
    81     9    10    1
    82    23    25   am
    83    23    24    2
    84    13    10    1
    85    10    11    1
    86    11    12    2
