@<TRIPOS>MOLECULE
tmp/5c65A02.pdb
 80 75 0 0 0
SMALL
GASTEIGER

@<TRIPOS>ATOM
      1  N          9.9320   -4.4210  -48.5290 N.3    72  ILE72      -0.1231
      2  CA        10.4470   -5.1190  -47.3430 C.3    72  ILE72       0.1692
      3  C          9.4680   -6.2260  -46.9430 C.2    72  ILE72       0.2592
      4  O          9.9050   -7.3520  -46.7120 O.2    72  ILE72      -0.2718
      5  CB        10.7340   -4.1300  -46.1680 C.3    72  ILE72       0.0266
      6  CG1       11.8130   -3.0830  -46.5660 C.3    72  ILE72       0.0019
      7  CG2       11.1270   -4.8830  -44.8650 C.3    72  ILE72       0.0020
      8  CD1       11.8190   -1.8260  -45.7170 C.3    72  ILE72       0.0001
      9  N          8.1720   -5.8950  -46.9010 N.am   73  GLY73      -0.1957
     10  CA         7.0840   -6.7910  -46.5210 C.3    73  GLY73       0.1869
     11  C          6.9540   -8.0080  -47.4120 C.2    73  GLY73       0.2309
     12  O          7.0320   -9.1340  -46.9230 O.2    73  GLY73      -0.2863
     13  N          9.0980   -9.1980  -49.5420 N.3    75  PHE75      -0.1227
     14  CA        10.3370   -9.9680  -49.5070 C.3    75  PHE75       0.1736
     15  C         10.4710  -10.7620  -48.2090 C.2    75  PHE75       0.2596
     16  O         11.2580  -11.7070  -48.1680 O.2    75  PHE75      -0.2718
     17  CB        11.5570   -9.0400  -49.6810 C.3    75  PHE75       0.0547
     18  CG        12.8420   -9.7670  -50.0070 C.ar   75  PHE75      -0.0202
     19  CD1       13.0360  -10.3550  -51.2620 C.ar   75  PHE75      -0.0042
     20  CD2       13.8530   -9.8850  -49.0590 C.ar   75  PHE75      -0.0042
     21  CE1       14.2180  -11.0510  -51.5570 C.ar   75  PHE75      -0.0003
     22  CE2       15.0400  -10.5780  -49.3610 C.ar   75  PHE75      -0.0003
     23  CZ        15.2130  -11.1510  -50.6100 C.ar   75  PHE75      -0.0000
     24  N          9.7010  -10.3980  -47.1570 N.am   76  SER76      -0.1952
     25  CA         9.7860  -11.0140  -45.8340 C.3    76  SER76       0.1924
     26  C          8.7790  -12.1260  -45.5600 C.2    76  SER76       0.2314
     27  O          8.8590  -12.7160  -44.4840 O.2    76  SER76      -0.2863
     28  CB         9.6330   -9.9490  -44.7590 C.3    76  SER76       0.2116
     29  OG        10.7480   -9.0770  -44.8060 O.3    76  SER76      -0.2180
     30  N          9.6170  -15.3600  -43.6110 N.3    79  LEU79      -0.1231
     31  CA         9.8700  -15.3220  -42.1640 C.3    79  LEU79       0.1693
     32  C          8.6000  -15.6600  -41.3660 C.2    79  LEU79       0.2592
     33  O          8.6620  -15.7240  -40.1350 O.2    79  LEU79      -0.2718
     34  CB        10.3730  -13.9320  -41.7030 C.3    79  LEU79       0.0284
     35  CG        11.5850  -13.2720  -42.3790 C.3    79  LEU79       0.0019
     36  CD1       11.6130  -11.7790  -42.0510 C.3    79  LEU79       0.0001
     37  CD2       12.8900  -13.9010  -41.9340 C.3    79  LEU79       0.0001
     38  N          7.4480  -15.8430  -42.0530 N.am   80  PHE80      -0.1976
     39  CA         6.1480  -16.0870  -41.4300 C.3    80  PHE80       0.1639
     40  C          5.5160  -17.4050  -41.8270 C.2    80  PHE80       0.2290
     41  O          5.2720  -18.2430  -40.9590 O.2    80  PHE80      -0.2864
     42  CB         5.1650  -14.9650  -41.8190 C.3    80  PHE80       0.0560
     43  CG         5.4640  -13.6010  -41.2510 C.ar   80  PHE80      -0.0200
     44  CD1        4.7960  -13.1390  -40.1190 C.ar   80  PHE80      -0.0042
     45  CD2        6.4360  -12.7850  -41.8290 C.ar   80  PHE80      -0.0042
     46  CE1        5.0990  -11.8910  -39.5720 C.ar   80  PHE80      -0.0003
     47  CE2        6.7390  -11.5380  -41.2760 C.ar   80  PHE80      -0.0003
     48  CZ         6.0510  -11.0880  -40.1670 C.ar   80  PHE80      -0.0000
     49  N         -0.0530   -5.2730  -37.8140 N.3    96  LEU96      -0.1245
     50  CA         0.5890   -4.2100  -38.5830 C.3    96  LEU96       0.1561
     51  C         -0.4740   -3.2910  -39.2060 C.2    96  LEU96       0.2260
     52  O         -0.2740   -2.0800  -39.2470 O.2    96  LEU96      -0.2867
     53  CB         1.5000   -4.7850  -39.6780 C.3    96  LEU96       0.0270
     54  CG         2.7950   -5.4400  -39.2400 C.3    96  LEU96       0.0019
     55  CD1        3.3190   -6.3220  -40.3270 C.3    96  LEU96       0.0001
     56  CD2        3.8600   -4.3990  -38.9060 C.3    96  LEU96       0.0001
     57  N          4.4120    3.6250  -43.8490 N.3   121  LEU121     -0.1245
     58  CA         5.4640    2.6000  -43.8410 C.3   121  LEU121      0.1561
     59  C          4.9150    1.2670  -43.3220 C.2   121  LEU121      0.2260
     60  O          5.0680    0.2440  -43.9820 O.2   121  LEU121     -0.2867
     61  CB         6.6840    3.0330  -42.9840 C.3   121  LEU121      0.0270
     62  CG         7.7870    1.9700  -42.7540 C.3   121  LEU121      0.0019
     63  CD1        8.4640    1.5510  -44.0640 C.3   121  LEU121      0.0001
     64  CD2        8.8090    2.4510  -41.7500 C.3   121  LEU121      0.0001
     65  N          4.3650   -2.3510  -45.0500 N.3   125  LEU125     -0.1245
     66  CA         4.8800   -3.6320  -44.5530 C.3   125  LEU125      0.1561
     67  C          3.7980   -4.6900  -44.5640 C.2   125  LEU125      0.2260
     68  O          4.0490   -5.8150  -45.0160 O.2   125  LEU125     -0.2867
     69  CB         5.4820   -3.5030  -43.1340 C.3   125  LEU125      0.0270
     70  CG         6.7530   -2.6380  -43.0010 C.3   125  LEU125      0.0019
     71  CD1        7.0990   -2.4050  -41.5460 C.3   125  LEU125      0.0001
     72  CD2        7.9350   -3.2570  -43.7190 C.3   125  LEU125      0.0001
     73  N          3.3730   -8.0040  -47.1350 N.3   129  LEU129     -0.1245
     74  CA         3.2030   -9.3680  -46.6030 C.3   129  LEU129      0.1561
     75  C          1.9300  -10.0150  -47.1560 C.2   129  LEU129      0.2260
     76  O          1.9810  -11.1820  -47.5460 O.2   129  LEU129     -0.2867
     77  CB         3.2120   -9.3830  -45.0740 C.3   129  LEU129      0.0270
     78  CG         4.5890   -9.1220  -44.4360 C.3   129  LEU129      0.0019
     79  CD1        4.4560   -8.5400  -43.0500 C.3   129  LEU129      0.0001
     80  CD2        5.4630  -10.3660  -44.4390 C.3   129  LEU129      0.0001
@<TRIPOS>BOND
     1    21    19   ar
     2    21    23   ar
     3    19    18   ar
     4    23    22   ar
     5    18    17    1
     6    18    20   ar
     7    17    14    1
     8    13    14    1
     9    14    15    1
    10    22    20   ar
    11     1     2    1
    12    15    16    2
    13    15    24   am
    14    76    75    2
    15    11    12    2
    16    11    10    1
    17     2     3    1
    18     2     5    1
    19    24    25    1
    20    75    74    1
    21    73    74    1
    22     3     9   am
    23     3     4    2
    24     9    10    1
    25    74    77    1
    26     6     5    1
    27     6     8    1
    28     5     7    1
    29    25    26    1
    30    25    28    1
    31    26    27    2
    32    77    78    1
    33    65    66    1
    34    68    67    2
    35    29    28    1
    36    67    66    1
    37    66    69    1
    38    80    78    1
    39    78    79    1
    40    63    62    1
    41    60    59    2
    42    57    58    1
    43    58    59    1
    44    58    61    1
    45    72    70    1
    46    30    31    1
    47    69    70    1
    48    70    71    1
    49    61    62    1
    50    62    64    1
    51    35    36    1
    52    35    37    1
    53    35    34    1
    54    31    34    1
    55    31    32    1
    56    38    39    1
    57    38    32   am
    58    45    47   ar
    59    45    43   ar
    60    40    39    1
    61    40    41    2
    62    42    39    1
    63    42    43    1
    64    32    33    2
    65    47    48   ar
    66    43    44   ar
    67    55    54    1
    68    48    46   ar
    69    44    46   ar
    70    53    54    1
    71    53    50    1
    72    52    51    2
    73    54    56    1
    74    51    50    1
    75    50    49    1
