@<TRIPOS>MOLECULE
tmp/5c6cB00.pdb
 111 105 0 0 0
SMALL
GASTEIGER

@<TRIPOS>ATOM
      1  N         18.7850   46.6160   62.4610 N.3    49  ILE49      -0.1245
      2  CA        19.3920   45.3560   62.0620 C.3    49  ILE49       0.1561
      3  C         20.1560   45.5030   60.7480 C.2    49  ILE49       0.2260
      4  O         19.6910   46.1690   59.8210 O.2    49  ILE49      -0.2867
      5  CB        18.3390   44.2460   61.8950 C.3    49  ILE49       0.0252
      6  CG1       17.5940   43.9730   63.1870 C.3    49  ILE49       0.0019
      7  CG2       18.9370   43.0100   61.2790 C.3    49  ILE49       0.0019
      8  CD1       16.5060   42.8140   63.0530 C.3    49  ILE49       0.0001
      9  N         12.1150   47.4110   55.8330 N.3    68  VAL68      -0.1245
     10  CA        13.0170   46.2720   55.6900 C.3    68  VAL68       0.1561
     11  C         13.5730   46.2140   54.2650 C.2    68  VAL68       0.2260
     12  O         12.8280   46.3150   53.2960 O.2    68  VAL68      -0.2867
     13  CB        12.3070   44.9340   56.0440 C.3    68  VAL68       0.0252
     14  CG1       11.0750   44.7430   55.1910 C.3    68  VAL68       0.0019
     15  CG2       13.2520   43.7520   55.8830 C.3    68  VAL68       0.0019
     16  N         11.5710   45.5480   51.0900 N.3    74  LEU74      -0.1231
     17  CA        10.7690   44.3330   51.0580 C.3    74  LEU74       0.1693
     18  C          9.3780   44.6150   51.6280 C.2    74  LEU74       0.2592
     19  O          8.3920   44.0200   51.1930 O.2    74  LEU74      -0.2718
     20  CB        11.4420   43.2090   51.8520 C.3    74  LEU74       0.0284
     21  CG        12.7530   42.6350   51.3160 C.3    74  LEU74       0.0019
     22  CD1       13.2740   41.5620   52.2540 C.3    74  LEU74       0.0001
     23  CD2       12.5690   42.0810   49.9070 C.3    74  LEU74       0.0001
     24  N          9.3110   45.5230   52.6040 N.am   75  SER75      -0.1952
     25  CA         8.0430   45.9060   53.2290 C.3    75  SER75       0.1924
     26  C          8.2300   46.8610   54.4140 C.2    75  SER75       0.2314
     27  O          9.3420   47.0690   54.8920 O.2    75  SER75      -0.2863
     28  CB         7.2810   44.6670   53.7040 C.3    75  SER75       0.2116
     29  OG         7.9570   44.0450   54.7800 O.3    75  SER75      -0.2180
     30  N          7.1880   47.4940   58.4210 N.3    77  ILE77      -0.1245
     31  CA         6.7560   46.7200   59.5750 C.3    77  ILE77       0.1561
     32  C          5.6600   47.4590   60.3340 C.2    77  ILE77       0.2260
     33  O          5.8870   48.5590   60.8420 O.2    77  ILE77      -0.2867
     34  CB         7.9300   46.4230   60.5130 C.3    77  ILE77       0.0252
     35  CG1        9.0220   45.6690   59.7500 C.3    77  ILE77       0.0019
     36  CG2        7.4520   45.6460   61.7410 C.3    77  ILE77       0.0019
     37  CD1       10.3040   45.4890   60.5230 C.3    77  ILE77       0.0001
     38  N          6.3420   41.6880   65.7010 N.3    82  THR82      -0.1203
     39  CA         7.6150   41.0590   65.9830 C.3    82  THR82       0.1994
     40  C          8.4990   41.0780   64.7290 C.2    82  THR82       0.2618
     41  O          8.0460   40.7520   63.6320 O.2    82  THR82      -0.2717
     42  CB         7.4140   39.6070   66.4550 C.3    82  THR82       0.1784
     43  OG1        6.5050   39.5840   67.5620 O.3    82  THR82      -0.2211
     44  CG2        8.7410   38.9890   66.8650 C.3    82  THR82       0.0376
     45  N          9.7520   41.4790   64.8850 N.am   83  PHE83      -0.1961
     46  CA        10.7180   41.3250   63.8070 C.3    83  PHE83       0.1771
     47  C         12.0490   40.9540   64.4360 C.2    83  PHE83       0.2620
     48  O         12.2250   41.0950   65.6520 O.2    83  PHE83      -0.2715
     49  CB        10.8400   42.6030   62.9700 C.3    83  PHE83       0.0574
     50  CG        11.3790   43.7910   63.7410 C.ar   83  PHE83      -0.0200
     51  CD1       10.5430   44.5430   64.5590 C.ar   83  PHE83      -0.0042
     52  CD2       12.7150   44.1610   63.6330 C.ar   83  PHE83      -0.0042
     53  CE1       11.0260   45.6340   65.2590 C.ar   83  PHE83      -0.0003
     54  CE2       13.2060   45.2520   64.3320 C.ar   83  PHE83      -0.0003
     55  CZ        12.3630   45.9890   65.1490 C.ar   83  PHE83      -0.0000
     56  N         12.9720   40.4630   63.6140 N.am   84  GLY84      -0.1940
     57  CA        14.2650   40.0190   64.0930 C.3    84  GLY84       0.2014
     58  C         14.2160   38.6290   64.6980 C.2    84  GLY84       0.2639
     59  O         15.1340   38.2260   65.4150 O.2    84  GLY84      -0.2714
     60  N         13.1560   37.8820   64.3990 N.am   85  GLU85      -0.1963
     61  CA        12.9670   36.5620   65.0010 C.3    85  GLU85       0.1733
     62  C         13.7690   35.4380   64.3160 C.2    85  GLU85       0.2616
     63  O         14.1950   34.4910   64.9770 O.2    85  GLU85      -0.2715
     64  CB        11.4780   36.1910   65.0160 C.3    85  GLU85       0.0429
     65  CG        10.9200   35.6600   63.6860 C.3    85  GLU85       0.1163
     66  CD        10.4930   36.7600   62.7290 C.2    85  GLU85       0.3649
     67  OE1       11.1480   37.8190   62.6880 O.co2  85  GLU85      -0.2457
     68  OE2        9.4980   36.5610   62.0050 O.co2  85  GLU85      -0.2457
     69  N         13.9740   35.5400   63.0060 N.am   86  LEU86      -0.1963
     70  CA        14.5840   34.4480   62.2400 C.3    86  LEU86       0.1728
     71  C         16.0070   34.0940   62.6930 C.2    86  LEU86       0.2616
     72  O         16.3370   32.9210   62.8560 O.2    86  LEU86      -0.2715
     73  CB        14.6110   34.7930   60.7540 C.3    86  LEU86       0.0311
     74  CG        13.2750   35.1610   60.1120 C.3    86  LEU86       0.0022
     75  CD1       13.4810   35.4230   58.6220 C.3    86  LEU86       0.0001
     76  CD2       12.2210   34.0710   60.3460 C.3    86  LEU86       0.0001
     77  N         16.8450   35.1050   62.8870 N.am   87  ALA87      -0.1977
     78  CA        18.2480   34.8580   63.1990 C.3    87  ALA87       0.1597
     79  C         18.3860   34.3090   64.6160 C.2    87  ALA87       0.2287
     80  O         19.3030   33.5440   64.9100 O.2    87  ALA87      -0.2864
     81  CB        19.0670   36.1270   63.0270 C.3    87  ALA87       0.0319
     82  N         21.3630   37.7930   59.7190 N.3    94  ARG94      -0.1231
     83  CA        20.1950   38.6320   59.4880 C.3    94  ARG94       0.1694
     84  C         19.8380   38.5880   58.0080 C.2    94  ARG94       0.2593
     85  O         20.6440   38.9640   57.1580 O.2    94  ARG94      -0.2718
     86  CB        20.4510   40.0740   59.9310 C.3    94  ARG94       0.0321
     87  CG        20.6260   40.2650   61.4320 C.3    94  ARG94       0.0489
     88  CD        19.3080   40.1090   62.1910 C.3    94  ARG94       0.2205
     89  NE        19.3890   40.6870   63.5310 N.pl3  94  ARG94      -0.0865
     90  CZ        18.5670   40.3860   64.5330 C.cat  94  ARG94       0.5346
     91  NH1       17.5940   39.4990   64.3510 N.pl3  94  ARG94       0.1354
     92  NH2       18.7220   40.9660   65.7190 N.pl3  94  ARG94       0.1354
     93  N         18.6290   38.1280   57.7100 N.am   95  THR95      -0.1939
     94  CA        18.1630   37.9780   56.3350 C.3    95  THR95       0.2028
     95  C         17.8380   39.3120   55.6760 C.2    95  THR95       0.2642
     96  O         17.5310   39.3650   54.4870 O.2    95  THR95      -0.2714
     97  CB        16.9020   37.0930   56.2640 C.3    95  THR95       0.1808
     98  OG1       15.8010   37.7820   56.8730 O.3    95  THR95      -0.2208
     99  CG2       17.1310   35.7750   56.9860 C.3    95  THR95       0.0379
    100  N         17.8850   40.3900   56.4490 N.am   96  ALA96      -0.1977
    101  CA        17.5190   41.7010   55.9240 C.3    96  ALA96       0.1597
    102  C         17.9380   42.8250   56.8600 C.2    96  ALA96       0.2287
    103  O         18.2490   42.5890   58.0310 O.2    96  ALA96      -0.2864
    104  CB        16.0170   41.7650   55.6650 C.3    96  ALA96       0.0319
    105  N         16.8650   46.4450   58.7330 N.3    98  VAL98      -0.1245
    106  CA        15.7050   47.1940   59.1970 C.3    98  VAL98       0.1561
    107  C         16.1210   48.5940   59.6180 C.2    98  VAL98       0.2260
    108  O         16.8680   48.7630   60.5790 O.2    98  VAL98      -0.2867
    109  CB        15.0130   46.5080   60.3890 C.3    98  VAL98       0.0252
    110  CG1       13.7920   47.3050   60.8130 C.3    98  VAL98       0.0019
    111  CG2       14.6400   45.0720   60.0440 C.3    98  VAL98       0.0019
@<TRIPOS>BOND
     1    23    21    1
     2    17    16    1
     3    17    18    1
     4    17    20    1
     5    19    18    2
     6    21    20    1
     7    21    22    1
     8    18    24   am
     9    24    25    1
    10    25    28    1
    11    25    26    1
    12    12    11    2
    13    28    29    1
    14    11    10    1
    15    26    27    2
    16    96    95    2
    17    14    13    1
    18   104   101    1
    19    95    94    1
    20    95   100   am
    21    10     9    1
    22    10    13    1
    23    15    13    1
    24   101   100    1
    25   101   102    1
    26    97    94    1
    27    97    98    1
    28    97    99    1
    29    94    93    1
    30   102   103    2
    31    85    84    2
    32    93    84   am
    33    84    83    1
    34    30    31    1
    35    75    74    1
    36   105   106    1
    37   106   107    1
    38   106   109    1
    39    83    82    1
    40    83    86    1
    41    31    32    1
    42    31    34    1
    43   107   108    2
    44    35    34    1
    45    35    37    1
    46     4     3    2
    47    86    87    1
    48   111   109    1
    49    74    76    1
    50    74    73    1
    51    32    33    2
    52   109   110    1
    53    34    36    1
    54     3     2    1
    55    73    70    1
    56     7     5    1
    57    87    88    1
    58     5     2    1
    59     5     6    1
    60    68    66   ar
    61     2     1    1
    62    88    89    1
    63    70    71    1
    64    70    69    1
    65    67    66   ar
    66    71    72    2
    67    71    77   am
    68    66    65    1
    69    77    78    1
    70    49    50    1
    71    49    46    1
    72    69    62   am
    73    81    78    1
    74     8     6    1
    75    78    79    1
    76    89    90    2
    77    56    57    1
    78    56    47   am
    79    41    40    2
    80    52    50   ar
    81    52    54   ar
    82    65    64    1
    83    50    51   ar
    84    46    47    1
    85    46    45    1
    86    57    58    1
    87    62    63    2
    88    62    61    1
    89    54    55   ar
    90    91    90    1
    91    60    58   am
    92    60    61    1
    93    47    48    2
    94    90    92    1
    95    51    53   ar
    96    79    80    2
    97    58    59    2
    98    40    45   am
    99    40    39    1
   100    61    64    1
   101    55    53   ar
   102    38    39    1
   103    39    42    1
   104    42    44    1
   105    42    43    1
