@<TRIPOS>MOLECULE
tmp/5c6dB00.pdb
 153 144 0 0 0
SMALL
GASTEIGER

@<TRIPOS>ATOM
      1  N        -10.6510    3.3960   24.8930 N.3    67  GLN67      -0.1231
      2  CA        -9.6430    4.4200   24.7180 C.3    67  GLN67       0.1698
      3  C         -9.5660    4.7700   23.2370 C.2    67  GLN67       0.2592
      4  O         -9.3860    3.8730   22.4240 O.2    67  GLN67      -0.2718
      5  CB        -8.2780    3.9160   25.1560 C.3    67  GLN67       0.0381
      6  CG        -7.7230    4.4910   26.4230 C.3    67  GLN67       0.0905
      7  CD        -6.2200    4.5030   26.4110 C.2    67  GLN67       0.2608
      8  OE1       -5.6320    5.4390   25.8890 O.2    67  GLN67      -0.2717
      9  NE2       -5.6110    3.3600   26.7310 N.am   67  GLN67      -0.0878
     10  N         -9.7240    6.0410   22.8820 N.am   68  ALA68      -0.1966
     11  CA        -9.4580    6.5140   21.5270 C.3    68  ALA68       0.1728
     12  C         -7.9680    6.3360   21.1910 C.2    68  ALA68       0.2616
     13  O         -7.1160    6.7520   21.9580 O.2    68  ALA68      -0.2715
     14  CB        -9.8530    7.9770   21.3950 C.3    68  ALA68       0.0334
     15  N         -7.6480    5.6980   20.0730 N.am   69  ARG69      -0.1963
     16  CA        -6.2540    5.6040   19.6530 C.3    69  ARG69       0.1729
     17  C         -5.9510    6.7190   18.6570 C.2    69  ARG69       0.2617
     18  O         -6.8580    7.4080   18.1830 O.2    69  ARG69      -0.2715
     19  CB        -5.9530    4.2350   19.0530 C.3    69  ARG69       0.0348
     20  CG        -6.1930    3.1140   20.0330 C.3    69  ARG69       0.0492
     21  CD        -5.9060    1.7790   19.4000 C.3    69  ARG69       0.2205
     22  NE        -6.0140    0.6870   20.3590 N.pl3  69  ARG69      -0.0865
     23  CZ        -5.9260   -0.5960   20.0240 C.cat  69  ARG69       0.5346
     24  NH1       -5.7380   -0.9380   18.7550 N.pl3  69  ARG69       0.1354
     25  NH2       -6.0480   -1.5360   20.9500 N.pl3  69  ARG69       0.1354
     26  N         -4.6750    6.9060   18.3560 N.am   70  SER70      -0.1936
     27  CA        -4.2510    8.0200   17.5250 C.3    70  SER70       0.2055
     28  C         -4.7500    7.8670   16.0910 C.2    70  SER70       0.2643
     29  O         -5.0170    8.8570   15.4220 O.2    70  SER70      -0.2714
     30  CB        -2.7320    8.1510   17.5490 C.3    70  SER70       0.2130
     31  OG        -2.3380    9.4390   17.1100 O.3    70  SER70      -0.2179
     32  N         -4.8990    6.6230   15.6400 N.am   71  ASN71      -0.1957
     33  CA        -5.3640    6.3390   14.2810 C.3    71  ASN71       0.1819
     34  C         -6.8870    6.4980   14.1100 C.2    71  ASN71       0.2621
     35  O         -7.4410    6.1810   13.0580 O.2    71  ASN71      -0.2715
     36  CB        -4.9380    4.9230   13.8740 C.3    71  ASN71       0.1195
     37  CG        -5.5220    3.8450   14.7920 C.2    71  ASN71       0.2630
     38  OD1       -6.4080    4.1140   15.6010 O.2    71  ASN71      -0.2716
     39  ND2       -5.0420    2.6230   14.6470 N.am   71  ASN71      -0.0877
     40  N         -7.5610    6.9560   15.1610 N.am   72  GLY72      -0.1954
     41  CA        -8.9940    7.1930   15.1040 C.3    72  GLY72       0.1869
     42  C         -9.8660    6.1540   15.7880 C.2    72  GLY72       0.2309
     43  O        -11.0010    6.4480   16.1650 O.2    72  GLY72      -0.2863
     44  N        -10.8180    1.3970   21.3610 N.3    75  ARG75      -0.1245
     45  CA       -10.6770    0.0190   21.8010 C.3    75  ARG75       0.1563
     46  C        -10.5840   -0.0980   23.3140 C.2    75  ARG75       0.2260
     47  O        -10.0840    0.8030   23.9860 O.2    75  ARG75      -0.2867
     48  CB        -9.4280   -0.6290   21.1800 C.3    75  ARG75       0.0307
     49  CG        -9.3600   -0.5820   19.6670 C.3    75  ARG75       0.0489
     50  CD       -10.3290   -1.5430   18.9940 C.3    75  ARG75       0.2205
     51  NE       -10.1530   -1.4480   17.5460 N.pl3  75  ARG75      -0.0865
     52  CZ        -9.1570   -2.0280   16.8760 C.cat  75  ARG75       0.5346
     53  NH1       -8.2700   -2.7900   17.5170 N.pl3  75  ARG75       0.1354
     54  NH2       -9.0590   -1.8770   15.5610 N.pl3  75  ARG75       0.1354
     55  N         -8.5930   10.4820   32.4610 N.3    90  ASP90      -0.1239
     56  CA        -7.7740   11.5230   31.8270 C.3    90  ASP90       0.1674
     57  C         -8.6500   12.7240   31.4310 C.2    90  ASP90       0.2266
     58  O         -8.5600   13.2320   30.3130 O.2    90  ASP90      -0.2867
     59  CB        -7.0260   10.9630   30.6060 C.3    90  ASP90       0.1410
     60  CG        -5.7890   11.7720   30.2480 C.2    90  ASP90       0.3668
     61  OD1       -5.4350   12.6970   31.0140 O.co2  90  ASP90      -0.2456
     62  OD2       -5.1680   11.4740   29.2020 O.co2  90  ASP90      -0.2456
     63  N         -5.5960   -8.7540   10.8220 N.3   173  GLU173     -0.1245
     64  CA        -5.7920   -7.8340   11.9160 C.3   173  GLU173      0.1567
     65  C         -6.6210   -6.6520   11.4290 C.2   173  GLU173      0.2260
     66  O         -6.2240   -5.9470   10.4960 O.2   173  GLU173     -0.2867
     67  CB        -4.4750   -7.3320   12.4990 C.3   173  GLU173      0.0388
     68  CG        -4.7310   -6.2920   13.5780 C.3   173  GLU173      0.1160
     69  CD        -3.4830   -5.6030   14.0660 C.2   173  GLU173      0.3649
     70  OE1       -2.4180   -5.7850   13.4270 O.co2 173  GLU173     -0.2457
     71  OE2       -3.5770   -4.8910   15.0990 O.co2 173  GLU173     -0.2457
     72  N         -6.9250   -3.4380   11.7630 N.3   175  VAL175     -0.1231
     73  CA        -6.1130   -2.3760   12.3320 C.3   175  VAL175      0.1692
     74  C         -6.9390   -1.1130   12.5370 C.2   175  VAL175      0.2591
     75  O         -6.8650   -0.4840   13.5840 O.2   175  VAL175     -0.2718
     76  CB        -4.9050   -2.0690   11.4350 C.3   175  VAL175      0.0266
     77  CG1       -4.0440   -0.9680   12.0460 C.3   175  VAL175      0.0020
     78  CG2       -4.0930   -3.3320   11.2340 C.3   175  VAL175      0.0020
     79  N         -7.7320   -0.7620   11.5280 N.am  176  LYS176     -0.1980
     80  CA        -8.4940    0.4770   11.5320 C.3   176  LYS176      0.1596
     81  C         -9.3530    0.5000   10.2900 C.2   176  LYS176      0.2287
     82  O         -9.2240   -0.4010    9.4440 O.2   176  LYS176     -0.2864
     83  CB        -7.5750    1.7070   11.5740 C.3   176  LYS176      0.0298
     84  CG        -6.6520    1.9020   10.3760 C.3   176  LYS176      0.0038
     85  CD        -5.7920    3.1220   10.6360 C.3   176  LYS176      0.0206
     86  CE        -4.8860    3.4750    9.4590 C.3   176  LYS176      0.1093
     87  NZ        -5.6520    3.9950    8.3140 N.3   176  LYS176     -0.1314
     88  N         -7.9910   -0.4900    6.7580 N.3   179  LEU179     -0.1245
     89  CA        -6.7160   -1.1900    6.8710 C.3   179  LEU179      0.1561
     90  C         -6.9460   -2.5460    7.5240 C.2   179  LEU179      0.2260
     91  O         -7.1380   -2.6670    8.7330 O.2   179  LEU179     -0.2867
     92  CB        -5.6890   -0.3630    7.6480 C.3   179  LEU179      0.0270
     93  CG        -4.2500   -0.8980    7.6690 C.3   179  LEU179      0.0019
     94  CD1       -3.7680   -1.3080    6.2630 C.3   179  LEU179      0.0001
     95  CD2       -3.3130    0.1380    8.2700 C.3   179  LEU179      0.0001
     96  N         -4.9570   -5.9230    7.5300 N.3   181  GLU181     -0.1245
     97  CA        -3.6910   -6.5760    7.1980 C.3   181  GLU181      0.1567
     98  C         -3.7330   -8.0700    7.4750 C.2   181  GLU181      0.2260
     99  O         -4.0000   -8.5100    8.5970 O.2   181  GLU181     -0.2867
    100  CB        -2.5360   -5.9390    7.9740 C.3   181  GLU181      0.0388
    101  CG        -2.1710   -4.5370    7.5140 C.3   181  GLU181      0.1160
    102  CD        -1.1970   -3.8460    8.4530 C.2   181  GLU181      0.3649
    103  OE1       -1.1060   -4.2580    9.6310 O.co2 181  GLU181     -0.2457
    104  OE2       -0.5320   -2.8830    8.0130 O.co2 181  GLU181     -0.2457
    105  N          1.5940   -9.1960   14.9090 N.3   194  LEU194     -0.1231
    106  CA         0.8940   -7.9170   14.9190 C.3   194  LEU194      0.1693
    107  C          1.8270   -6.7800   15.3280 C.2   194  LEU194      0.2592
    108  O          2.4230   -6.8200   16.4030 O.2   194  LEU194     -0.2718
    109  CB        -0.2990   -7.9700   15.8720 C.3   194  LEU194      0.0284
    110  CG        -1.6330   -8.5500   15.3960 C.3   194  LEU194      0.0019
    111  CD1       -1.5720  -10.0460   15.1990 C.3   194  LEU194      0.0001
    112  CD2       -2.7050   -8.1990   16.3950 C.3   194  LEU194      0.0001
    113  N          1.9610   -5.7710   14.4750 N.am  195  ASP195     -0.1960
    114  CA         2.7690   -4.6030   14.8150 C.3   195  ASP195      0.1840
    115  C          2.0400   -3.7710   15.8790 C.2   195  ASP195      0.2622
    116  O          0.8280   -3.5760   15.7940 O.2   195  ASP195     -0.2715
    117  CB         3.0600   -3.7430   13.5740 C.3   195  ASP195      0.1450
    118  CG         3.6610   -4.5420   12.4170 C.2   195  ASP195      0.3671
    119  OD1        4.8890   -4.7810   12.4230 O.co2 195  ASP195     -0.2456
    120  OD2        2.9040   -4.8990   11.4840 O.co2 195  ASP195     -0.2456
    121  N          2.7800   -3.2800   16.8690 N.am  196  GLU196     -0.1963
    122  CA         2.1940   -2.5010   17.9630 C.3   196  GLU196      0.1733
    123  C          1.0300   -3.2270   18.6370 C.2   196  GLU196      0.2616
    124  O         -0.0440   -2.6410   18.8290 O.2   196  GLU196     -0.2715
    125  CB         1.7220   -1.1350   17.4560 C.3   196  GLU196      0.0429
    126  CG         2.8280   -0.3140   16.8250 C.3   196  GLU196      0.1163
    127  CD         2.3570    1.0550   16.3790 C.2   196  GLU196      0.3649
    128  OE1        2.9870    1.6360   15.4630 O.co2 196  GLU196     -0.2457
    129  OE2        1.3670    1.5530   16.9540 O.co2 196  GLU196     -0.2457
    130  N          1.2550   -4.4950   18.9740 N.am  197  LEU197     -0.1963
    131  CA         0.2820   -5.3550   19.6590 C.3   197  LEU197      0.1728
    132  C         -0.2480   -4.7340   20.9540 C.2   197  LEU197      0.2616
    133  O          0.5200   -4.3300   21.8120 O.2   197  LEU197     -0.2715
    134  CB         0.9100   -6.7290   19.9720 C.3   197  LEU197      0.0311
    135  CG         0.0460   -7.6890   20.8010 C.3   197  LEU197      0.0022
    136  CD1       -1.1700   -8.1270   19.9900 C.3   197  LEU197      0.0001
    137  CD2        0.8080   -8.9000   21.3140 C.3   197  LEU197      0.0001
    138  N         -1.5630   -4.6660   21.0910 N.am  198  MET198     -0.1977
    139  CA        -2.1700   -4.1050   22.2910 C.3   198  MET198      0.1605
    140  C         -3.4130   -4.8800   22.6830 C.2   198  MET198      0.2287
    141  O         -4.0010   -5.5770   21.8490 O.2   198  MET198     -0.2864
    142  CB        -2.5200   -2.6370   22.0790 C.3   198  MET198      0.0413
    143  CG        -1.3170   -1.7330   22.1140 C.3   198  MET198      0.0598
    144  SD        -1.6740   -0.1050   21.4660 S.3   198  MET198     -0.1393
    145  CE        -3.0190    0.4220   22.5090 C.3   198  MET198      0.0692
    146  N         -6.8870   -5.4000   20.5070 N.3   201  ASP201     -0.1239
    147  CA        -6.6490   -5.6160   19.0810 C.3   201  ASP201      0.1674
    148  C         -7.6440   -6.6570   18.5750 C.2   201  ASP201      0.2266
    149  O         -8.1890   -7.4530   19.3250 O.2   201  ASP201     -0.2867
    150  CB        -5.2100   -6.0400   18.7810 C.3   201  ASP201      0.1410
    151  CG        -4.2440   -4.8640   18.7820 C.2   201  ASP201      0.3668
    152  OD1       -4.6980   -3.7120   18.8320 O.co2 201  ASP201     -0.2456
    153  OD2       -3.0200   -5.0870   18.7340 O.co2 201  ASP201     -0.2456
@<TRIPOS>BOND
     1    94    93    1
     2    88    89    1
     3    89    90    1
     4    89    92    1
     5    97    98    1
     6    97    96    1
     7    97   100    1
     8    98    99    2
     9   101   100    1
    10   101   102    1
    11    90    91    2
    12    92    93    1
    13    93    95    1
    14   104   102   ar
    15    87    86    1
    16   102   103   ar
    17    82    81    2
    18    86    85    1
    19    81    80    1
    20    84    85    1
    21    84    83    1
    22    66    65    2
    23    63    64    1
    24    78    76    1
    25    65    64    1
    26    76    77    1
    27    76    73    1
    28   120   118   ar
    29    79    80    1
    30    79    74   am
    31    80    83    1
    32    72    73    1
    33    64    67    1
    34    73    74    1
    35   118   119   ar
    36   118   117    1
    37    67    68    1
    38    74    75    2
    39    35    34    2
    40    70    69   ar
    41   117   114    1
    42    68    69    1
    43    36    33    1
    44    36    37    1
    45    69    71   ar
    46    34    33    1
    47    34    40   am
    48    33    32    1
    49   113   114    1
    50   113   107   am
    51    39    37   am
    52    37    38    2
    53   114   115    1
    54   105   106    1
    55   106   107    1
    56   106   109    1
    57    41    40    1
    58    41    42    1
    59   111   110    1
    60   107   108    2
    61   110   109    1
    62   110   112    1
    63    29    28    2
    64   128   127   ar
    65    54    52    1
    66    32    28   am
    67    42    43    2
    68   116   115    2
    69   115   121   am
    70    28    27    1
    71   127   126    1
    72   127   129   ar
    73   126   125    1
    74   121   122    1
    75    52    53    1
    76    52    51    2
    77    31    30    1
    78   125   122    1
    79    27    30    1
    80    27    26    1
    81    51    50    1
    82   122   123    1
    83    18    17    2
    84    26    17   am
    85   148   147    1
    86   148   149    2
    87   123   124    2
    88   123   130   am
    89    17    16    1
    90   153   151   ar
    91    24    23    1
    92   150   151    1
    93   150   147    1
    94   151   152   ar
    95   130   131    1
    96    50    49    1
    97    19    16    1
    98    19    20    1
    99   147   146    1
   100    21    20    1
   101    21    22    1
   102    16    15    1
   103   131   134    1
   104   131   132    1
   105    49    48    1
   106   134   135    1
   107   136   135    1
   108    23    22    2
   109    23    25    1
   110    15    12   am
   111   135   137    1
   112   132   138   am
   113   132   133    2
   114   138   139    1
   115    48    45    1
   116    12    11    1
   117    12    13    2
   118    44    45    1
   119    14    11    1
   120   144   143    1
   121   144   145    1
   122    11    10    1
   123    45    46    1
   124   141   140    2
   125   142   143    1
   126   142   139    1
   127   139   140    1
   128     4     3    2
   129    10     3   am
   130     3     2    1
   131    46    47    2
   132     2     1    1
   133     2     5    1
   134     5     6    1
   135     8     7    2
   136     7     6    1
   137     7     9   am
   138    62    60   ar
   139    60    59    1
   140    60    61   ar
   141    58    57    2
   142    59    56    1
   143    57    56    1
   144    56    55    1
