@<TRIPOS>MOLECULE
tmp/5c6oA00.pdb
 171 160 0 0 0
SMALL
GASTEIGER

@<TRIPOS>ATOM
      1  N          0.1030  -10.1330  -23.8310 N.3    31  MET31      -0.1230
      2  CA         1.2570   -9.7970  -24.6220 C.3    31  MET31       0.1702
      3  C          1.1730  -10.5220  -25.9500 C.2    31  MET31       0.2592
      4  O          1.4720   -9.9520  -26.9820 O.2    31  MET31      -0.2718
      5  CB         2.5320  -10.1460  -23.8720 C.3    31  MET31       0.0401
      6  CG         3.6720   -9.1810  -24.1430 C.3    31  MET31       0.0596
      7  SD         5.2860   -9.9290  -23.8200 S.3    31  MET31      -0.1393
      8  CE         5.1690  -11.4500  -24.7910 C.3    31  MET31       0.0692
      9  N          0.7180  -11.7650  -25.9250 N.am   32  ALA32      -0.1980
     10  CA         0.5030  -12.4920  -27.1510 C.3    32  ALA32       0.1597
     11  C         -0.3510  -11.6550  -28.1350 C.2    32  ALA32       0.2287
     12  O         -0.0440  -11.5960  -29.3290 O.2    32  ALA32      -0.2864
     13  CB        -0.1140  -13.8480  -26.8590 C.3    32  ALA32       0.0319
     14  N         -0.3530   -8.2360  -28.2470 N.3    34  TYR34      -0.1227
     15  CA         0.6400   -7.3120  -28.7990 C.3    34  TYR34       0.1736
     16  C          1.4020   -7.8580  -30.0040 C.2    34  TYR34       0.2595
     17  O          1.6280   -7.1370  -30.9490 O.2    34  TYR34      -0.2718
     18  CB         1.6520   -6.8280  -27.7700 C.3    34  TYR34       0.0548
     19  CG         2.9700   -6.3960  -28.4270 C.ar   34  TYR34      -0.0200
     20  CD1        3.1960   -5.0670  -28.7640 C.ar   34  TYR34      -0.0009
     21  CD2        3.9770   -7.3300  -28.7310 C.ar   34  TYR34      -0.0009
     22  CE1        4.3790   -4.6760  -29.3730 C.ar   34  TYR34       0.0417
     23  CE2        5.1660   -6.9430  -29.3310 C.ar   34  TYR34       0.0417
     24  CZ         5.3700   -5.6130  -29.6520 C.ar   34  TYR34       0.1957
     25  OH         6.5510   -5.2180  -30.2650 O.3    34  TYR34      -0.2866
     26  N          1.8350   -9.1050  -29.9540 N.am   35  ASN35      -0.1974
     27  CA         2.4290   -9.6940  -31.1120 C.3    35  ASN35       0.1688
     28  C          1.5090   -9.4100  -32.2720 C.2    35  ASN35       0.2292
     29  O          1.5670   -8.3180  -32.8660 O.2    35  ASN35      -0.2864
     30  CB         2.5190  -11.1960  -30.9600 C.3    35  ASN35       0.1181
     31  CG         3.5670  -11.7920  -31.8800 C.2    35  ASN35       0.2629
     32  OD1        3.5310  -12.9770  -32.2110 O.2    35  ASN35      -0.2716
     33  ND2        4.5180  -10.9610  -32.3010 N.am   35  ASN35      -0.0877
     34  N          0.7510   -6.0060  -33.2590 N.3    38  ASP38      -0.1225
     35  CA         2.0720   -5.3070  -33.6220 C.3    38  ASP38       0.1805
     36  C          2.3400   -5.7030  -35.0360 C.2    38  ASP38       0.2598
     37  O          2.4630   -4.8740  -35.9440 O.2    38  ASP38      -0.2718
     38  CB         3.3660   -5.7350  -32.6840 C.3    38  ASP38       0.1424
     39  CG         4.7560   -6.2900  -33.1760 C.2    38  ASP38       0.3668
     40  OD1        4.7670   -6.9260  -34.2510 O.co2  38  ASP38      -0.2456
     41  OD2        5.7740   -6.0730  -32.4820 O.co2  38  ASP38      -0.2456
     42  N          2.4400   -7.0110  -35.1790 N.am   39  THR39      -0.1953
     43  CA         2.9340   -7.5710  -36.4200 C.3    39  THR39       0.1897
     44  C          1.9690   -7.2740  -37.5940 C.2    39  THR39       0.2313
     45  O          2.3860   -6.8200  -38.6760 O.2    39  THR39      -0.2863
     46  CB         3.1750   -9.0700  -36.2930 C.3    39  THR39       0.1794
     47  OG1        1.9670   -9.6750  -35.8110 O.3    39  THR39      -0.2208
     48  CG2        4.4240   -9.3680  -35.3820 C.3    39  THR39       0.0378
     49  N         12.3630   -9.1560  -38.8530 N.3    54  VAL54      -0.1245
     50  CA        11.7810   -9.6930  -37.6270 C.3    54  VAL54       0.1561
     51  C         12.1530  -11.1390  -37.3180 C.2    54  VAL54       0.2260
     52  O         12.8220  -11.4330  -36.3130 O.2    54  VAL54      -0.2867
     53  CB        10.2380   -9.6430  -37.7370 C.3    54  VAL54       0.0252
     54  CG1        9.5630  -10.4330  -36.5890 C.3    54  VAL54       0.0019
     55  CG2        9.7660   -8.1830  -37.8240 C.3    54  VAL54       0.0019
     56  N         14.5380  -12.6390  -34.9100 N.3    58  PHE58      -0.1241
     57  CA        14.0420  -13.2690  -33.6900 C.3    58  PHE58       0.1605
     58  C         15.0900  -14.0590  -32.8790 C.2    58  PHE58       0.2264
     59  O         15.4810  -13.6220  -31.7910 O.2    58  PHE58      -0.2867
     60  CB        12.8110  -14.1290  -33.9960 C.3    58  PHE58       0.0534
     61  CG        12.0560  -14.5640  -32.7690 C.ar   58  PHE58      -0.0203
     62  CD1       10.9390  -13.8500  -32.3390 C.ar   58  PHE58      -0.0042
     63  CD2       12.4590  -15.6860  -32.0390 C.ar   58  PHE58      -0.0042
     64  CE1       10.2370  -14.2480  -31.2100 C.ar   58  PHE58      -0.0003
     65  CE2       11.7630  -16.0850  -30.9060 C.ar   58  PHE58      -0.0003
     66  CZ        10.6500  -15.3650  -30.4910 C.ar   58  PHE58      -0.0000
     67  N         17.2800  -12.4130  -30.3470 N.3    61  MET61      -0.1230
     68  CA        16.6950  -11.9450  -29.1060 C.3    61  MET61       0.1702
     69  C         16.5720  -13.1210  -28.1420 C.2    61  MET61       0.2592
     70  O         16.8440  -13.0160  -26.9460 O.2    61  MET61      -0.2718
     71  CB        15.3160  -11.3940  -29.3590 C.3    61  MET61       0.0401
     72  CG        15.2740  -10.2550  -30.3410 C.3    61  MET61       0.0596
     73  SD        13.5810   -9.6670  -30.3560 S.3    61  MET61      -0.1393
     74  CE        13.5260   -8.8180  -28.7810 C.3    61  MET61       0.0692
     75  N         16.1530  -14.2560  -28.6730 N.am   62  MET62      -0.1979
     76  CA        16.0000  -15.4340  -27.8630 C.3    62  MET62       0.1605
     77  C         17.3300  -15.8480  -27.2540 C.2    62  MET62       0.2287
     78  O         17.3530  -16.3920  -26.1670 O.2    62  MET62      -0.2864
     79  CB        15.4280  -16.5670  -28.7020 C.3    62  MET62       0.0413
     80  CG        15.2350  -17.8610  -27.9370 C.3    62  MET62       0.0598
     81  SD        13.8310  -17.7990  -26.8200 S.3    62  MET62      -0.1393
     82  CE        12.4950  -18.1970  -27.9450 C.3    62  MET62       0.0692
     83  N         17.6680  -13.3430  -24.1110 N.3    65  MET65      -0.1245
     84  CA        16.6610  -13.6950  -23.1230 C.3    65  MET65       0.1570
     85  C         16.7600  -15.1230  -22.5470 C.2    65  MET65       0.2261
     86  O         16.4520  -15.3320  -21.3710 O.2    65  MET65      -0.2867
     87  CB        15.2820  -13.4280  -23.6890 C.3    65  MET65       0.0387
     88  CG        14.1840  -13.6250  -22.6770 C.3    65  MET65       0.0595
     89  SD        12.8910  -14.5610  -23.4980 S.3    65  MET65      -0.1393
     90  CE        13.8310  -15.8470  -24.3190 C.3    65  MET65       0.0692
     91  N         16.9060  -15.8970  -18.8540 N.3    69  GLY69      -0.1225
     92  CA        15.8600  -16.8160  -18.4000 C.3    69  GLY69       0.1811
     93  C         16.2940  -17.8300  -17.3550 C.2    69  GLY69       0.2280
     94  O         15.6830  -17.9550  -16.2840 O.2    69  GLY69      -0.2866
     95  N         15.6780   -3.8140  -36.9730 N.3   137  TYR137     -0.1241
     96  CA        14.9520   -4.4070  -35.8860 C.3   137  TYR137      0.1605
     97  C         15.8860   -4.6600  -34.7300 C.2   137  TYR137      0.2264
     98  O         15.5800   -4.3150  -33.5990 O.2   137  TYR137     -0.2867
     99  CB        14.3130   -5.7130  -36.3170 C.3   137  TYR137      0.0534
    100  CG        13.3130   -6.2250  -35.3170 C.ar  137  TYR137     -0.0201
    101  CD1       12.3330   -5.3780  -34.7760 C.ar  137  TYR137     -0.0009
    102  CD2       13.3320   -7.5530  -34.9090 C.ar  137  TYR137     -0.0009
    103  CE1       11.4050   -5.8430  -33.8520 C.ar  137  TYR137      0.0417
    104  CE2       12.4040   -8.0350  -33.9920 C.ar  137  TYR137      0.0417
    105  CZ        11.4430   -7.1800  -33.4640 C.ar  137  TYR137      0.1957
    106  OH        10.5210   -7.6680  -32.5570 O.3   137  TYR137     -0.2866
    107  N         15.3970   -4.9870  -21.0960 N.3   148  PHE148     -0.1241
    108  CA        14.8640   -6.1970  -21.6280 C.3   148  PHE148      0.1605
    109  C         15.0510   -7.3460  -20.6470 C.2   148  PHE148      0.2264
    110  O         14.0790   -8.0140  -20.2840 O.2   148  PHE148     -0.2867
    111  CB        15.5530   -6.4620  -22.9630 C.3   148  PHE148      0.0534
    112  CG        14.8900   -7.5070  -23.7830 C.ar  148  PHE148     -0.0203
    113  CD1       14.0240   -7.1570  -24.8080 C.ar  148  PHE148     -0.0042
    114  CD2       15.1270   -8.8500  -23.5270 C.ar  148  PHE148     -0.0042
    115  CE1       13.4030   -8.1380  -25.5630 C.ar  148  PHE148     -0.0003
    116  CE2       14.5110   -9.8340  -24.2790 C.ar  148  PHE148     -0.0003
    117  CZ        13.6520   -9.4790  -25.3020 C.ar  148  PHE148     -0.0000
    118  N         12.3570   -9.5850  -17.5080 N.3   152  PHE152     -0.1241
    119  CA        11.9980  -11.0160  -17.5590 C.3   152  PHE152      0.1605
    120  C         12.5790  -11.6860  -16.3490 C.2   152  PHE152      0.2264
    121  O         12.0220  -12.6540  -15.8300 O.2   152  PHE152     -0.2867
    122  CB        12.5070  -11.7240  -18.8190 C.3   152  PHE152      0.0534
    123  CG        11.8580  -11.2490  -20.0780 C.ar  152  PHE152     -0.0203
    124  CD1       12.6380  -10.8190  -21.1350 C.ar  152  PHE152     -0.0042
    125  CD2       10.4680  -11.2070  -20.2020 C.ar  152  PHE152     -0.0042
    126  CE1       12.0530  -10.3680  -22.3040 C.ar  152  PHE152     -0.0003
    127  CE2        9.8760  -10.7480  -21.3670 C.ar  152  PHE152     -0.0003
    128  CZ        10.6720  -10.3320  -22.4230 C.ar  152  PHE152     -0.0000
    129  N          9.2550   -0.9260  -28.7030 N.3   200  THR200     -0.1218
    130  CA         9.4240   -2.0430  -27.7840 C.3   200  THR200      0.1862
    131  C         10.6750   -1.9570  -26.9150 C.2   200  THR200      0.2287
    132  O         10.9940   -2.8920  -26.1780 O.2   200  THR200     -0.2866
    133  CB         9.5250   -3.3740  -28.5320 C.3   200  THR200      0.1770
    134  OG1        8.3300   -3.5910  -29.2910 O.3   200  THR200     -0.2211
    135  CG2        9.7010   -4.5240  -27.5520 C.3   200  THR200      0.0375
    136  N         15.8320  -23.2240  -24.4260 N.3   250  GLN250     -0.1245
    137  CA        15.7220  -22.1950  -25.4410 C.3   250  GLN250      0.1566
    138  C         16.7390  -22.4440  -26.5430 C.2   250  GLN250      0.2260
    139  O         16.3900  -22.9210  -27.6270 O.2   250  GLN250     -0.2867
    140  CB        15.8880  -20.8010  -24.8330 C.3   250  GLN250      0.0367
    141  CG        14.7730  -20.4010  -23.8760 C.3   250  GLN250      0.0905
    142  CD        13.3830  -20.8200  -24.3500 C.2   250  GLN250      0.2608
    143  OE1       13.0510  -20.6980  -25.5400 O.2   250  GLN250     -0.2717
    144  NE2       12.5640  -21.3200  -23.4110 N.am  250  GLN250     -0.0878
    145  N          2.9160  -18.4490  -33.0340 N.3   281  ARG281     -0.1245
    146  CA         2.0580  -17.8810  -32.0220 C.3   281  ARG281      0.1563
    147  C          0.6470  -18.4960  -31.9960 C.2   281  ARG281      0.2260
    148  O         -0.2140  -18.0210  -31.2450 O.2   281  ARG281     -0.2867
    149  CB         2.0160  -16.3580  -32.1640 C.3   281  ARG281      0.0307
    150  CG         3.3670  -15.7300  -32.4830 C.3   281  ARG281      0.0489
    151  CD         3.6640  -15.7580  -33.9770 C.3   281  ARG281      0.2205
    152  NE         4.5390  -14.6670  -34.3980 N.pl3 281  ARG281     -0.0865
    153  CZ         4.2120  -13.7370  -35.2920 C.cat 281  ARG281      0.5346
    154  NH1        3.0230  -13.7630  -35.8910 N.pl3 281  ARG281      0.1354
    155  NH2        5.0900  -12.7880  -35.5890 N.pl3 281  ARG281      0.1354
    156  N          2.4210  -21.3890  -29.4780 N.3   284  MET284     -0.1245
    157  CA         2.5340  -20.6480  -28.2020 C.3   284  MET284      0.1570
    158  C          1.1950  -20.1900  -27.6130 C.2   284  MET284      0.2261
    159  O          0.9630  -20.3100  -26.3960 O.2   284  MET284     -0.2867
    160  CB         3.4320  -19.4140  -28.3640 C.3   284  MET284      0.0387
    161  CG         3.7730  -18.7160  -27.0480 C.3   284  MET284      0.0595
    162  SD         3.4800  -16.9280  -27.0250 S.3   284  MET284     -0.1393
    163  CE         1.7590  -16.8500  -26.4550 C.3   284  MET284      0.0692
    164  N          1.3510  -23.5640  -20.2080 N.3   291  MET291     -0.1245
    165  CA         2.3850  -22.7070  -19.6430 C.3   291  MET291      0.1570
    166  C          1.9310  -22.0390  -18.3410 C.2   291  MET291      0.2261
    167  O          2.6430  -22.0700  -17.3220 O.2   291  MET291     -0.2867
    168  CB         2.7700  -21.6500  -20.6690 C.3   291  MET291      0.0387
    169  CG         3.6330  -22.1710  -21.7830 C.3   291  MET291      0.0595
    170  SD         5.3590  -22.3820  -21.2750 S.3   291  MET291     -0.1393
    171  CE         5.6090  -24.1390  -21.5600 C.3   291  MET291      0.0692
@<TRIPOS>BOND
     1    49    50    1
     2    45    44    2
     3    55    53    1
     4    53    50    1
     5    53    54    1
     6    50    51    1
     7    44    43    1
     8    51    52    2
     9    95    96    1
    10    43    46    1
    11    43    42    1
    12    99    96    1
    13    99   100    1
    14    46    47    1
    15    46    48    1
    16    37    36    2
    17   154   153    1
    18    96    97    1
    19   155   153    1
    20   100   102   ar
    21   100   101   ar
    22   153   152    2
    23    42    36   am
    24    36    35    1
    25    56    57    1
    26   102   104   ar
    27   101   103   ar
    28    97    98    2
    29   152   151    1
    30    40    39   ar
    31    60    57    1
    32    60    61    1
    33   104   105   ar
    34   151   150    1
    35   103   105   ar
    36    57    58    1
    37    35    34    1
    38    35    38    1
    39   105   106    1
    40    39    38    1
    41    39    41   ar
    42   145   146    1
    43    58    59    2
    44    29    28    2
    45    61    62   ar
    46    61    63   ar
    47   150   149    1
    48    62    64   ar
    49    33    31   am
    50    28    27    1
    51    32    31    2
    52   149   146    1
    53    63    65   ar
    54   146   147    1
    55   147   148    2
    56    31    30    1
    57    64    66   ar
    58    27    30    1
    59    27    26    1
    60    17    16    2
    61    65    66   ar
    62    73    72    1
    63    73    74    1
    64    67    68    1
    65    72    71    1
    66    25    24    1
    67    16    26   am
    68    16    15    1
    69    24    22   ar
    70    24    23   ar
    71   156   157    1
    72    22    20   ar
    73    71    68    1
    74    23    21   ar
    75    12    11    2
    76   134   133    1
    77    68    69    1
    78    15    14    1
    79    15    18    1
    80    20    19   ar
    81    21    19   ar
    82   129   130    1
    83    79    80    1
    84    79    76    1
    85    75    69   am
    86    75    76    1
    87   133   130    1
    88   133   135    1
    89    19    18    1
    90   160   157    1
    91   160   161    1
    92   157   158    1
    93    69    70    2
    94    11    10    1
    95    82    81    1
    96    80    81    1
    97    76    77    1
    98   130   131    1
    99   139   138    2
   100   158   159    2
   101    77    78    2
   102    10    13    1
   103    10     9    1
   104   161   162    1
   105   162   163    1
   106     4     3    2
   107   131   132    2
   108   138   137    1
   109     3     9   am
   110     3     2    1
   111   115   117   ar
   112   115   113   ar
   113   143   142    2
   114   137   140    1
   115   137   136    1
   116   117   116   ar
   117   140   141    1
   118   113   112   ar
   119     8     7    1
   120     2     5    1
   121     2     1    1
   122   142   141    1
   123   142   144   am
   124    90    89    1
   125   116   114   ar
   126     6     5    1
   127     6     7    1
   128    83    84    1
   129   112   114   ar
   130   112   111    1
   131    87    84    1
   132    87    88    1
   133    89    88    1
   134    84    85    1
   135   111   108    1
   136    85    86    2
   137   128   126   ar
   138   128   127   ar
   139   126   124   ar
   140   169   170    1
   141   169   168    1
   142   108   107    1
   143   108   109    1
   144   171   170    1
   145   127   125   ar
   146   124   123   ar
   147   168   165    1
   148   109   110    2
   149   164   165    1
   150   125   123   ar
   151   123   122    1
   152   165   166    1
   153    91    92    1
   154   122   119    1
   155    92    93    1
   156   166   167    2
   157   119   118    1
   158   119   120    1
   159    93    94    2
   160   120   121    2
