@<TRIPOS>MOLECULE
tmp/5c6pA00.pdb
 134 125 0 0 0
SMALL
GASTEIGER

@<TRIPOS>ATOM
      1  N         12.7220  -39.2870   36.3280 N.3    37  ASP37      -0.1225
      2  CA        13.9030  -40.1550   36.4260 C.3    37  ASP37       0.1805
      3  C         15.1860  -39.3710   36.6610 C.2    37  ASP37       0.2598
      4  O         15.9260  -39.6510   37.6080 O.2    37  ASP37      -0.2718
      5  CB        14.0620  -41.0410   35.1790 C.3    37  ASP37       0.1424
      6  CG        15.4790  -41.6270   35.0400 C.2    37  ASP37       0.3668
      7  OD1       16.0190  -42.1790   36.0300 O.co2  37  ASP37      -0.2456
      8  OD2       16.0480  -41.5410   33.9280 O.co2  37  ASP37      -0.2456
      9  N         15.4370  -38.3910   35.7940 N.am   38  THR38      -0.1953
     10  CA        16.7080  -37.6680   35.8010 C.3    38  THR38       0.1897
     11  C         16.7920  -36.5400   36.8820 C.2    38  THR38       0.2313
     12  O         17.8970  -36.0630   37.1640 O.2    38  THR38      -0.2863
     13  CB        17.1790  -37.2730   34.3530 C.3    38  THR38       0.1794
     14  OG1       17.2070  -38.4340   33.5020 O.3    38  THR38      -0.2208
     15  CG2       18.5810  -36.6720   34.3480 C.3    38  THR38       0.0378
     16  N         18.0780  -38.9220   39.1730 N.3    41  ALA41      -0.1245
     17  CA        19.4340  -39.1500   38.6470 C.3    41  ALA41       0.1562
     18  C         20.3490  -37.9490   38.9160 C.2    41  ALA41       0.2260
     19  O         21.4780  -38.1220   39.3870 O.2    41  ALA41      -0.2867
     20  CB        19.4070  -39.4990   37.1620 C.3    41  ALA41       0.0290
     21  N         25.6340  -43.4750   42.3510 N.3    51  ALA51      -0.1245
     22  CA        25.1360  -44.4200   41.4150 C.3    51  ALA51       0.1562
     23  C         24.1090  -45.1190   42.3270 C.2    51  ALA51       0.2260
     24  O         24.4330  -45.9680   43.1650 O.2    51  ALA51      -0.2867
     25  CB        26.2380  -45.3550   40.9670 C.3    51  ALA51       0.0290
     26  N         21.0180  -45.2900   40.6370 N.3    53  ALA53      -0.1231
     27  CA        20.3930  -45.7090   39.4130 C.3    53  ALA53       0.1694
     28  C         20.6720  -47.1760   39.0860 C.2    53  ALA53       0.2591
     29  O         19.9680  -47.7920   38.2810 O.2    53  ALA53      -0.2718
     30  CB        20.8460  -44.7840   38.2830 C.3    53  ALA53       0.0304
     31  N         21.6900  -47.7250   39.7420 N.am   54  LEU54      -0.1980
     32  CA        22.0560  -49.1320   39.6240 C.3    54  LEU54       0.1596
     33  C         20.9020  -50.0340   40.0500 C.2    54  LEU54       0.2287
     34  O         20.7210  -51.1390   39.5140 O.2    54  LEU54      -0.2864
     35  CB        23.2810  -49.3910   40.4830 C.3    54  LEU54       0.0297
     36  CG        24.2380  -48.1950   40.5210 C.3    54  LEU54       0.0022
     37  CD1       25.2660  -48.4240   41.6100 C.3    54  LEU54       0.0001
     38  CD2       24.9220  -47.9280   39.1810 C.3    54  LEU54       0.0001
     39  N         17.4990  -48.3040   40.5400 N.3    56  SER56      -0.1202
     40  CA        16.4980  -47.6340   39.7170 C.3    56  SER56       0.2020
     41  C         16.6060  -48.1100   38.2670 C.2    56  SER56       0.2619
     42  O         15.6410  -48.0040   37.4980 O.2    56  SER56      -0.2717
     43  CB        16.6230  -46.1040   39.8270 C.3    56  SER56       0.2103
     44  OG        17.2850  -45.5310   38.7080 O.3    56  SER56      -0.2182
     45  N         17.7810  -48.6400   37.9140 N.am   57  SER57      -0.1951
     46  CA        17.9850  -49.3330   36.6420 C.3    57  SER57       0.1924
     47  C         17.2060  -50.6330   36.6330 C.2    57  SER57       0.2314
     48  O         16.0130  -50.6440   36.3140 O.2    57  SER57      -0.2863
     49  CB        19.4690  -49.6290   36.3870 C.3    57  SER57       0.2116
     50  OG        19.6570  -50.2380   35.1110 O.3    57  SER57      -0.2180
     51  N         13.3110  -50.8540   36.5750 N.3    60  ALA60      -0.1231
     52  CA        12.5960  -50.6400   35.3250 C.3    60  ALA60       0.1694
     53  C         12.4550  -51.9830   34.6160 C.2    60  ALA60       0.2592
     54  O         11.3970  -52.3140   34.0660 O.2    60  ALA60      -0.2718
     55  CB        13.3410  -49.6320   34.4540 C.3    60  ALA60       0.0304
     56  N         13.5330  -52.7620   34.6700 N.am   61  THR61      -0.1953
     57  CA        13.5310  -54.1580   34.2510 C.3    61  THR61       0.1897
     58  C         12.1820  -54.8490   34.4780 C.2    61  THR61       0.2313
     59  O         11.5030  -55.1950   33.5110 O.2    61  THR61      -0.2863
     60  CB        14.6650  -54.9300   34.9450 C.3    61  THR61       0.1794
     61  OG1       15.8940  -54.6810   34.2430 O.3    61  THR61      -0.2208
     62  CG2       14.3710  -56.4370   34.9780 C.3    61  THR61       0.0378
     63  N         20.0650  -55.1920   25.8580 N.3   261  PHE261     -0.1241
     64  CA        20.4250  -55.0180   27.2430 C.3   261  PHE261      0.1605
     65  C         21.7600  -55.7310   27.2670 C.2   261  PHE261      0.2264
     66  O         22.8000  -55.0850   27.3370 O.2   261  PHE261     -0.2867
     67  CB        19.4030  -55.7330   28.1410 C.3   261  PHE261      0.0534
     68  CG        19.0940  -55.0170   29.4390 C.ar  261  PHE261     -0.0203
     69  CD1       18.9070  -55.7430   30.6120 C.ar  261  PHE261     -0.0042
     70  CD2       18.9690  -53.6170   29.4950 C.ar  261  PHE261     -0.0042
     71  CE1       18.6130  -55.0940   31.8120 C.ar  261  PHE261     -0.0003
     72  CE2       18.6770  -52.9640   30.6960 C.ar  261  PHE261     -0.0003
     73  CZ        18.4980  -53.7040   31.8550 C.ar  261  PHE261     -0.0000
     74  N         23.3140  -53.9440   23.8180 N.3   264  ILE264     -0.1231
     75  CA        23.5300  -52.4840   23.9000 C.3   264  ILE264      0.1692
     76  C         24.5670  -52.1470   24.9790 C.2   264  ILE264      0.2591
     77  O         25.2190  -51.1000   24.9360 O.2   264  ILE264     -0.2718
     78  CB        22.2110  -51.6730   24.0980 C.3   264  ILE264      0.0266
     79  CG1       21.4710  -52.0870   25.3760 C.3   264  ILE264      0.0019
     80  CG2       21.3030  -51.7680   22.8730 C.3   264  ILE264      0.0020
     81  CD1       21.5480  -51.1160   26.5380 C.3   264  ILE264      0.0001
     82  N         24.7000  -53.0660   25.9340 N.am  265  VAL265     -0.1980
     83  CA        25.7530  -53.0530   26.9380 C.3   265  VAL265      0.1595
     84  C         26.3030  -54.4800   27.0550 C.2   265  VAL265      0.2287
     85  O         25.7260  -55.3230   27.7450 O.2   265  VAL265     -0.2864
     86  CB        25.2290  -52.5490   28.3120 C.3   265  VAL265      0.0276
     87  CG1       26.2400  -52.8010   29.4250 C.3   265  VAL265      0.0022
     88  CG2       24.8720  -51.0690   28.2570 C.3   265  VAL265      0.0022
     89  N         25.8850  -44.1030   25.3590 N.3   280  GLN280     -0.1245
     90  CA        24.8050  -44.0140   26.3550 C.3   280  GLN280      0.1566
     91  C         24.2800  -42.5950   26.3370 C.2   280  GLN280      0.2260
     92  O         23.1070  -42.3660   26.5670 O.2   280  GLN280     -0.2867
     93  CB        25.2890  -44.2860   27.7800 C.3   280  GLN280      0.0367
     94  CG        26.3520  -45.3500   27.9250 C.3   280  GLN280      0.0905
     95  CD        25.7750  -46.7430   27.9920 C.2   280  GLN280      0.2608
     96  OE1       25.7440  -47.4690   26.9930 O.2   280  GLN280     -0.2717
     97  NE2       25.3120  -47.1260   29.1720 N.am  280  GLN280     -0.0878
     98  N         22.9460  -44.1290   23.2940 N.3   283  ILE283     -0.1231
     99  CA        21.6760  -44.8720   23.3940 C.3   283  ILE283      0.1692
    100  C         20.7970  -44.5730   24.6250 C.2   283  ILE283      0.2593
    101  O         19.8060  -45.2630   24.8670 O.2   283  ILE283     -0.2718
    102  CB        21.8750  -46.3970   23.2220 C.3   283  ILE283      0.0266
    103  CG1       22.6540  -46.9700   24.4070 C.3   283  ILE283      0.0019
    104  CG2       22.5390  -46.7040   21.8820 C.3   283  ILE283      0.0020
    105  CD1       22.7450  -48.4740   24.4110 C.3   283  ILE283      0.0001
    106  N         21.1660  -43.5540   25.3960 N.am  284  SER284     -0.1938
    107  CA        20.2510  -42.9630   26.3760 C.3   284  SER284      0.2055
    108  C         19.5250  -41.8150   25.6830 C.2   284  SER284      0.2642
    109  O         18.3100  -41.6800   25.8150 O.2   284  SER284     -0.2714
    110  CB        20.9880  -42.4830   27.6410 C.3   284  SER284      0.2130
    111  OG        20.1270  -41.8240   28.5590 O.3   284  SER284     -0.2179
    112  N         20.2660  -41.0100   24.9220 N.am  285  LEU285     -0.1977
    113  CA        19.6540  -39.9480   24.1350 C.3   285  LEU285      0.1596
    114  C         19.0260  -40.5120   22.8670 C.2   285  LEU285      0.2287
    115  O         18.2700  -39.8210   22.1820 O.2   285  LEU285     -0.2864
    116  CB        20.6420  -38.8110   23.8510 C.3   285  LEU285      0.0297
    117  CG        20.9330  -37.7480   24.9470 C.3   285  LEU285      0.0022
    118  CD1       19.7850  -36.7540   25.1340 C.3   285  LEU285      0.0001
    119  CD2       21.3880  -38.2850   26.3100 C.3   285  LEU285      0.0001
    120  N         25.1210  -35.0250   33.7040 N.3   352  ASP352     -0.1225
    121  CA        24.9280  -36.0950   34.6990 C.3   352  ASP352      0.1790
    122  C         26.1510  -37.0210   34.9400 C.2   352  ASP352      0.2439
    123  O         26.6780  -37.0440   36.0640 O.2   352  ASP352     -0.2733
    124  CB        23.5510  -36.8170   34.5970 C.3   352  ASP352      0.1423
    125  CG        23.2200  -37.3280   33.1900 C.2   352  ASP352      0.3668
    126  OD1       23.6050  -36.6990   32.1780 O.co2 352  ASP352     -0.2456
    127  OD2       22.5370  -38.3710   33.1070 O.co2 352  ASP352     -0.2456
    128  N         26.5910  -37.7980   33.9160 N.am  353  PRO353     -0.2729
    129  CA        27.9270  -38.3780   33.9630 C.3   353  PRO353      0.1401
    130  C         28.6360  -38.4210   32.5980 C.2   353  PRO353      0.2269
    131  O         29.7680  -38.9000   32.5140 O.2   353  PRO353     -0.2865
    132  CB        27.6180  -39.8140   34.3680 C.3   353  PRO353      0.0296
    133  CG        26.2990  -40.0840   33.6890 C.3   353  PRO353      0.0237
    134  CD        25.6950  -38.7650   33.2690 C.3   353  PRO353      0.0939
@<TRIPOS>BOND
     1   104   102    1
     2   115   114    2
     3   114   113    1
     4    80    78    1
     5   102    99    1
     6   102   103    1
     7    98    99    1
     8    99   100    1
     9    74    75    1
    10   116   113    1
    11   116   117    1
    12    75    78    1
    13    75    76    1
    14    78    79    1
    15   113   112    1
    16   103   105    1
    17   100   101    2
    18   100   106   am
    19   112   108   am
    20    77    76    2
    21   117   118    1
    22   117   119    1
    23    76    82   am
    24    89    90    1
    25    79    81    1
    26   106   107    1
    27   108   109    2
    28   108   107    1
    29    63    64    1
    30    82    83    1
    31    91    90    1
    32    91    92    2
    33    90    93    1
    34   107   110    1
    35    83    84    1
    36    83    86    1
    37    96    95    2
    38    84    85    2
    39    64    65    1
    40    64    67    1
    41    65    66    2
    42   110   111    1
    43    93    94    1
    44    94    95    1
    45    95    97   am
    46    67    68    1
    47    88    86    1
    48    86    87    1
    49    68    70   ar
    50    68    69   ar
    51    70    72   ar
    52    69    71   ar
    53    72    73   ar
    54    71    73   ar
    55   126   125   ar
    56   131   130    2
    57   130   129    1
    58   127   125   ar
    59   125   124    1
    60   134   133    1
    61   134   128    1
    62    14    13    1
    63    59    58    2
    64   133   132    1
    65   120   121    1
    66   128   129    1
    67   128   122   am
    68     8     6   ar
    69   129   132    1
    70    54    53    2
    71    61    60    1
    72    57    58    1
    73    57    56    1
    74    57    60    1
    75    15    13    1
    76    13    10    1
    77    55    52    1
    78   124   121    1
    79    53    56   am
    80    53    52    1
    81   121   122    1
    82   122   123    2
    83    60    62    1
    84     6     5    1
    85     6     7   ar
    86    50    49    1
    87     5     2    1
    88    52    51    1
    89     9    10    1
    90     9     3   am
    91    10    11    1
    92    48    47    2
    93     1     2    1
    94    49    46    1
    95     2     3    1
    96    47    46    1
    97    46    45    1
    98     3     4    2
    99    11    12    2
   100    20    17    1
   101    42    41    2
   102    45    41   am
   103    41    40    1
   104    29    28    2
   105    30    27    1
   106    17    18    1
   107    17    16    1
   108    44    43    1
   109    18    19    2
   110    28    27    1
   111    28    31   am
   112    38    36    1
   113    27    26    1
   114    34    33    2
   115    32    31    1
   116    32    33    1
   117    32    35    1
   118    40    43    1
   119    40    39    1
   120    35    36    1
   121    36    37    1
   122    25    22    1
   123    22    23    1
   124    22    21    1
   125    23    24    2
