@<TRIPOS>MOLECULE
tmp/5c6uA00.pdb
 131 122 0 0 0
SMALL
GASTEIGER

@<TRIPOS>ATOM
      1  N         15.1350    6.1210   30.9360 N.3    34  GLY34      -0.1225
      2  CA        15.1610    6.3920   29.5130 C.3    34  GLY34       0.1811
      3  C         14.0390    7.3500   29.0740 C.2    34  GLY34       0.2280
      4  O         13.2530    7.0220   28.1620 O.2    34  GLY34      -0.2866
      5  N         -1.6870    6.4030   23.3150 N.3    95  ASN95      -0.1225
      6  CA        -0.4460    6.9710   23.8280 C.3    95  ASN95       0.1785
      7  C          0.7350    5.9530   23.9330 C.2    95  ASN95       0.2598
      8  O          1.7730    6.2450   24.5350 O.2    95  ASN95      -0.2718
      9  CB        -0.7210    7.5780   25.2150 C.3    95  ASN95       0.1169
     10  CG        -0.8300    6.5070   26.2710 C.2    95  ASN95       0.2627
     11  OD1       -1.3010    5.3930   26.0040 O.2    95  ASN95      -0.2716
     12  ND2       -0.3930    6.8260   27.4690 N.am   95  ASN95      -0.0877
     13  N          0.5680    4.7480   23.4060 N.am   96  SER96      -0.1938
     14  CA         1.5580    3.6830   23.6470 C.3    96  SER96       0.2055
     15  C          1.7420    2.8010   22.4430 C.2    96  SER96       0.2644
     16  O          0.8190    2.0280   22.0830 O.2    96  SER96      -0.2714
     17  CB         1.0720    2.8210   24.8310 C.3    96  SER96       0.2130
     18  OG         1.8850    1.6840   25.0750 O.3    96  SER96      -0.2179
     19  N          2.9480    2.8010   21.8860 N.am   97  SER97      -0.1935
     20  CA         3.3020    1.7880   20.8760 C.3    97  SER97       0.2055
     21  C          3.4620    0.3900   21.4980 C.2    97  SER97       0.2642
     22  O          3.1400   -0.6260   20.8760 O.2    97  SER97      -0.2714
     23  CB         4.5310    2.2110   20.0620 C.3    97  SER97       0.2130
     24  OG         5.6940    2.2450   20.8240 O.3    97  SER97      -0.2179
     25  N          3.9090    0.3190   22.7390 N.am   98  LEU98      -0.1977
     26  CA         4.0130   -0.9630   23.4180 C.3    98  LEU98       0.1596
     27  C          2.6590   -1.6960   23.4420 C.2    98  LEU98       0.2287
     28  O          2.5590   -2.8880   23.2980 O.2    98  LEU98      -0.2864
     29  CB         4.5130   -0.7310   24.8550 C.3    98  LEU98       0.0297
     30  CG         5.0050   -1.9810   25.5940 C.3    98  LEU98       0.0022
     31  CD1        6.2740   -2.4930   24.9340 C.3    98  LEU98       0.0001
     32  CD2        5.2530   -1.6610   27.0780 C.3    98  LEU98       0.0001
     33  N         15.6330   -4.8110   24.2260 N.3   134  TYR134     -0.1241
     34  CA        14.6980   -3.9490   24.9660 C.3   134  TYR134      0.1605
     35  C         13.9100   -4.7850   25.9700 C.2   134  TYR134      0.2264
     36  O         13.1320   -5.6850   25.6010 O.2   134  TYR134     -0.2867
     37  CB        13.7670   -3.2520   24.0060 C.3   134  TYR134      0.0534
     38  CG        12.7670   -2.3070   24.6460 C.ar  134  TYR134     -0.0201
     39  CD1       13.0580   -1.6190   25.8000 C.ar  134  TYR134     -0.0009
     40  CD2       11.5540   -2.0520   24.0150 C.ar  134  TYR134     -0.0009
     41  CE1       12.1390   -0.7020   26.3490 C.ar  134  TYR134      0.0417
     42  CE2       10.6450   -1.1670   24.5530 C.ar  134  TYR134      0.0417
     43  CZ        10.9440   -0.4950   25.7110 C.ar  134  TYR134      0.1957
     44  OH        10.0240    0.3820   26.2430 O.3   134  TYR134     -0.2866
     45  N         11.2880   -4.2790   27.7730 N.3   136  ARG136     -0.1245
     46  CA         9.8330   -4.3140   27.6750 C.3   136  ARG136      0.1563
     47  C          9.3450   -5.1750   26.5250 C.2   136  ARG136      0.2260
     48  O          8.2350   -5.6760   26.6190 O.2   136  ARG136     -0.2867
     49  CB         9.1890   -2.9160   27.6160 C.3   136  ARG136      0.0307
     50  CG         9.3770   -2.1620   28.9120 C.3   136  ARG136      0.0489
     51  CD         8.5700   -0.8680   28.9370 C.3   136  ARG136      0.2205
     52  NE         8.9870   -0.0400   30.0510 N.pl3 136  ARG136     -0.0865
     53  CZ         8.4470   -0.0540   31.2610 C.cat 136  ARG136      0.5346
     54  NH1        7.4170   -0.8210   31.5530 N.pl3 136  ARG136      0.1354
     55  NH2        8.9310    0.7650   32.1860 N.pl3 136  ARG136      0.1354
     56  N         14.6880   -3.5910   17.2170 N.3   175  VAL175     -0.1245
     57  CA        14.6200   -2.1460   17.1600 C.3   175  VAL175      0.1561
     58  C         15.6160   -1.7840   16.0690 C.2   175  VAL175      0.2260
     59  O         16.8260   -1.7300   16.3140 O.2   175  VAL175     -0.2867
     60  CB        14.9940   -1.5000   18.5090 C.3   175  VAL175      0.0252
     61  CG1       14.9370    0.0210   18.4340 C.3   175  VAL175      0.0019
     62  CG2       14.0670   -1.9990   19.6050 C.3   175  VAL175      0.0019
     63  N         17.7780   -0.0920   21.2350 N.3   180  ASN180     -0.1240
     64  CA        17.8620    0.0020   22.6610 C.3   180  ASN180      0.1653
     65  C         18.3810   -1.3260   23.2230 C.2   180  ASN180      0.2266
     66  O         17.6300   -2.2920   23.2810 O.2   180  ASN180     -0.2867
     67  CB        16.4660    0.3060   23.2320 C.3   180  ASN180      0.1155
     68  CG        16.4320    0.3100   24.7490 C.2   180  ASN180      0.2627
     69  OD1       17.4140   -0.0100   25.4420 O.2   180  ASN180     -0.2716
     70  ND2       15.2710    0.6720   25.2800 N.am  180  ASN180     -0.0877
     71  N         10.0750   -2.6770   15.6300 N.3   208  ASP208     -0.1239
     72  CA         9.7830   -1.5950   16.5680 C.3   208  ASP208      0.1674
     73  C         10.7090   -0.4180   16.3400 C.2   208  ASP208      0.2266
     74  O         11.7890   -0.3170   16.9540 O.2   208  ASP208     -0.2867
     75  CB         9.8780   -2.0790   18.0080 C.3   208  ASP208      0.1410
     76  CG         9.4700   -1.0000   19.0050 C.2   208  ASP208      0.3668
     77  OD1        9.0580    0.0910   18.5480 O.co2 208  ASP208     -0.2456
     78  OD2        9.5670   -1.2360   20.2380 O.co2 208  ASP208     -0.2456
     79  N         11.1370    2.5230   17.2040 N.3   210  ALA210     -0.1231
     80  CA        10.9860    3.5010   18.2740 C.3   210  ALA210      0.1694
     81  C         11.8570    4.7340   18.0990 C.2   210  ALA210      0.2592
     82  O         11.4860    5.8070   18.6140 O.2   210  ALA210     -0.2718
     83  CB        11.3310    2.8510   19.5910 C.3   210  ALA210      0.0304
     84  N         12.9940    4.5870   17.4100 N.am  211  TYR211     -0.1976
     85  CA        13.9920    5.6580   17.3240 C.3   211  TYR211      0.1639
     86  C         14.1640    6.1400   15.8940 C.2   211  TYR211      0.2290
     87  O         15.2240    6.6670   15.5170 O.2   211  TYR211     -0.2864
     88  CB        15.3150    5.2270   17.9720 C.3   211  TYR211      0.0560
     89  CG        15.0720    4.9680   19.4240 C.ar  211  TYR211     -0.0198
     90  CD1       14.7510    6.0130   20.2910 C.ar  211  TYR211     -0.0009
     91  CD2       15.0420    3.6750   19.9260 C.ar  211  TYR211     -0.0009
     92  CE1       14.4360    5.7710   21.6260 C.ar  211  TYR211      0.0417
     93  CE2       14.7230    3.4250   21.2700 C.ar  211  TYR211      0.0417
     94  CZ        14.4340    4.4740   22.1060 C.ar  211  TYR211      0.1957
     95  OH        14.1060    4.2390   23.4280 O.3   211  TYR211     -0.2866
     96  N          6.2710    5.8130   17.4640 N.3   244  SER244     -0.1217
     97  CA         5.6650    6.5410   18.5690 C.3   244  SER244      0.1889
     98  C          6.1750    7.9610   18.6410 C.2   244  SER244      0.2288
     99  O          7.3410    8.2200   18.2810 O.2   244  SER244     -0.2866
    100  CB         6.1380    5.8550   19.8750 C.3   244  SER244      0.2089
    101  OG         5.6290    6.4390   21.0380 O.3   244  SER244     -0.2183
    102  N          6.2810    9.3210   21.7820 N.3   246  SER246     -0.1202
    103  CA         6.6030    9.4920   23.2160 C.3   246  SER246      0.2020
    104  C          7.9160   10.2620   23.4390 C.2   246  SER246      0.2618
    105  O          8.0240   11.0170   24.3880 O.2   246  SER246     -0.2717
    106  CB         6.7040    8.1520   23.9200 C.3   246  SER246      0.2103
    107  OG         5.4200    7.5150   23.9760 O.3   246  SER246     -0.2182
    108  N          8.9230   10.0500   22.5910 N.am  247  LYS247     -0.1979
    109  CA        10.1970   10.7890   22.7220 C.3   247  LYS247      0.1596
    110  C         10.3170   11.8390   21.6090 C.2   247  LYS247      0.2287
    111  O         11.4180   12.2600   21.2430 O.2   247  LYS247     -0.2864
    112  CB        11.3620    9.7970   22.7480 C.3   247  LYS247      0.0298
    113  CG        11.1690    8.8390   23.9200 C.3   247  LYS247      0.0038
    114  CD        12.1880    7.7270   23.9990 C.3   247  LYS247      0.0206
    115  CE        11.8550    6.8400   25.2080 C.3   247  LYS247      0.1093
    116  NZ        13.0350    6.0460   25.6400 N.3   247  LYS247     -0.1314
    117  N          4.2560    9.3500   27.1960 N.3   252  GLY252     -0.1225
    118  CA         2.9810    8.9550   27.7850 C.3   252  GLY252      0.1811
    119  C          1.8040    9.8080   27.3900 C.2   252  GLY252      0.2280
    120  O          0.6770    9.5060   27.7740 O.2   252  GLY252     -0.2866
    121  N         20.3160    5.4470   24.5680 N.3   338  PHE338     -0.1241
    122  CA        21.1520    4.6710   25.4660 C.3   338  PHE338      0.1605
    123  C         22.5760    4.5050   24.9900 C.2   338  PHE338      0.2264
    124  O         22.8530    4.5170   23.7820 O.2   338  PHE338     -0.2867
    125  CB        20.5200    3.2720   25.6590 C.3   338  PHE338      0.0534
    126  CG        19.1110    3.3540   26.1950 C.ar  338  PHE338     -0.0203
    127  CD1       18.0420    3.3990   25.3220 C.ar  338  PHE338     -0.0042
    128  CD2       18.8870    3.5570   27.5450 C.ar  338  PHE338     -0.0042
    129  CE1       16.7470    3.5290   25.7770 C.ar  338  PHE338     -0.0003
    130  CE2       17.5820    3.6770   28.0230 C.ar  338  PHE338     -0.0003
    131  CZ        16.5140    3.6840   27.1330 C.ar  338  PHE338     -0.0000
@<TRIPOS>BOND
     1    87    86    2
     2    71    72    1
     3    86    85    1
     4    58    59    2
     5    58    57    1
     6    73    72    1
     7    73    74    2
     8    72    75    1
     9    57    56    1
    10    57    60    1
    11    79    80    1
    12    85    84    1
    13    85    88    1
    14    84    81   am
    15    96    97    1
    16    88    89    1
    17    75    76    1
    18    81    80    1
    19    81    82    2
    20    80    83    1
    21    99    98    2
    22    61    60    1
    23    60    62    1
    24    77    76   ar
    25    97    98    1
    26    97   100    1
    27    76    78   ar
    28    89    91   ar
    29    89    90   ar
    30   100   101    1
    31    91    93   ar
    32    23    24    1
    33    23    20    1
    34    90    92   ar
    35    20    21    1
    36    20    19    1
    37    22    21    2
    38    63    64    1
    39   111   110    2
    40    93    94   ar
    41    21    25   am
    42   110   109    1
    43    92    94   ar
    44   102   103    1
    45    19    15   am
    46    16    15    2
    47    94    95    1
    48    15    14    1
    49   108   109    1
    50   108   104   am
    51    64    65    1
    52    64    67    1
    53   109   112    1
    54    25    26    1
    55   112   113    1
    56   103   104    1
    57   103   106    1
    58    65    66    2
    59    67    68    1
    60    28    27    2
    61     5     6    1
    62    13    14    1
    63    13     7   am
    64    26    27    1
    65    26    29    1
    66   104   105    2
    67    14    17    1
    68   124   123    2
    69     6     7    1
    70     6     9    1
    71   106   107    1
    72   113   114    1
    73     7     8    2
    74   114   115    1
    75    37    38    1
    76    37    34    1
    77    40    42   ar
    78    40    38   ar
    79    33    34    1
    80    42    43   ar
    81   121   122    1
    82    38    39   ar
    83    68    70   am
    84    68    69    2
    85    17    18    1
    86    29    30    1
    87    31    30    1
    88    34    35    1
    89   123   122    1
    90   115   116    1
    91     9    10    1
    92   127   129   ar
    93   127   126   ar
    94   122   125    1
    95    30    32    1
    96    36    35    2
    97   125   126    1
    98    43    44    1
    99    43    41   ar
   100   129   131   ar
   101    39    41   ar
   102    11    10    2
   103   126   128   ar
   104    10    12   am
   105    47    48    2
   106    47    46    1
   107   131   130   ar
   108   117   118    1
   109   119   120    2
   110   119   118    1
   111   128   130   ar
   112    49    46    1
   113    49    50    1
   114    46    45    1
   115     4     3    2
   116    50    51    1
   117    51    52    1
   118     3     2    1
   119     2     1    1
   120    52    53    2
   121    53    54    1
   122    53    55    1
