@<TRIPOS>MOLECULE
tmp/5c6vC00.pdb
 162 152 0 0 0
SMALL
GASTEIGER

@<TRIPOS>ATOM
      1  N         30.3680   60.6310  136.8430 N.3    67  ARG67      -0.1231
      2  CA        29.7440   61.7400  137.5890 C.3    67  ARG67       0.1694
      3  C         29.4000   62.9650  136.7630 C.2    67  ARG67       0.2592
      4  O         28.4970   63.7260  137.1230 O.2    67  ARG67      -0.2718
      5  CB        30.5750   62.2350  138.7860 C.3    67  ARG67       0.0321
      6  CG        30.6050   61.3080  139.9490 C.3    67  ARG67       0.0489
      7  CD        31.3300   61.8570  141.1820 C.3    67  ARG67       0.2205
      8  NE        30.3980   62.1750  142.2690 N.pl3  67  ARG67      -0.0865
      9  CZ        30.5690   63.1070  143.2060 C.cat  67  ARG67       0.5346
     10  NH1       31.7080   63.7690  143.2900 N.pl3  67  ARG67       0.1354
     11  NH2       29.6320   63.2960  144.1360 N.pl3  67  ARG67       0.1354
     12  N         30.1020   63.1560  135.6560 N.am   68  TYR68      -0.1976
     13  CA        29.7850   64.2680  134.7700 C.3    68  TYR68       0.1639
     14  C         28.4610   64.0300  134.0520 C.2    68  TYR68       0.2290
     15  O         27.5620   64.8800  134.0790 O.2    68  TYR68      -0.2864
     16  CB        30.8840   64.4890  133.7390 C.3    68  TYR68       0.0560
     17  CG        32.1860   64.8370  134.3910 C.ar   68  TYR68      -0.0198
     18  CD1       32.5040   66.1430  134.7190 C.ar   68  TYR68      -0.0009
     19  CD2       33.0920   63.8370  134.7140 C.ar   68  TYR68      -0.0009
     20  CE1       33.7050   66.4370  135.3330 C.ar   68  TYR68       0.0417
     21  CE2       34.2820   64.1210  135.3270 C.ar   68  TYR68       0.0417
     22  CZ        34.5850   65.4160  135.6370 C.ar   68  TYR68       0.1957
     23  OH        35.7810   65.6830  136.2500 O.3    68  TYR68      -0.2866
     24  N         26.2450   62.0420  134.8270 N.3    70  MET70      -0.1230
     25  CA        25.1910   61.9090  135.8160 C.3    70  MET70       0.1702
     26  C         24.6140   63.2780  136.2030 C.2    70  MET70       0.2592
     27  O         23.4120   63.4250  136.3500 O.2    70  MET70      -0.2718
     28  CB        25.6840   61.2500  137.0910 C.3    70  MET70       0.0401
     29  CG        24.6230   60.4310  137.8210 C.3    70  MET70       0.0596
     30  SD        24.9070   60.4620  139.6040 S.3    70  MET70      -0.1393
     31  CE        24.1920   58.9130  140.1610 C.3    70  MET70       0.0692
     32  N         25.4680   64.2890  136.3570 N.am   71  LYS71      -0.1980
     33  CA        24.9950   65.6380  136.6680 C.3    71  LYS71       0.1596
     34  C         24.2950   66.2650  135.4600 C.2    71  LYS71       0.2287
     35  O         23.3860   67.0690  135.6190 O.2    71  LYS71      -0.2864
     36  CB        26.1520   66.5040  137.1700 C.3    71  LYS71       0.0298
     37  CG        25.7380   67.8430  137.7470 C.3    71  LYS71       0.0038
     38  CD        26.8410   68.3960  138.6440 C.3    71  LYS71       0.0206
     39  CE        26.7220   69.8950  138.8610 C.3    71  LYS71       0.1093
     40  NZ        25.4600   70.3020  139.5320 N.3    71  LYS71      -0.1314
     41  N         20.7660   64.8690  135.5030 N.3    74  PHE74      -0.1227
     42  CA        20.1230   65.4290  136.6690 C.3    74  PHE74       0.1736
     43  C         19.7340   66.8650  136.4070 C.2    74  PHE74       0.2595
     44  O         18.6140   67.2680  136.6950 O.2    74  PHE74      -0.2718
     45  CB        21.0210   65.3720  137.8880 C.3    74  PHE74       0.0547
     46  CG        20.4890   66.1490  139.0560 C.ar   74  PHE74      -0.0202
     47  CD1       19.5410   65.5940  139.9000 C.ar   74  PHE74      -0.0042
     48  CD2       20.9210   67.4450  139.3040 C.ar   74  PHE74      -0.0042
     49  CE1       19.0380   66.3130  140.9740 C.ar   74  PHE74      -0.0003
     50  CE2       20.4280   68.1600  140.3760 C.ar   74  PHE74      -0.0003
     51  CZ        19.4830   67.5930  141.2120 C.ar   74  PHE74      -0.0000
     52  N         20.6530   67.6490  135.8570 N.am   75  GLU75      -0.1979
     53  CA        20.3130   69.0360  135.6030 C.3    75  GLU75       0.1602
     54  C         19.1340   69.1320  134.6450 C.2    75  GLU75       0.2287
     55  O         18.2370   69.9350  134.8840 O.2    75  GLU75      -0.2864
     56  CB        21.5040   69.8300  135.0520 C.3    75  GLU75       0.0415
     57  CG        22.6250   70.0210  136.0570 C.3    75  GLU75       0.1163
     58  CD        22.1620   70.7130  137.3260 C.2    75  GLU75       0.3649
     59  OE1       21.5210   71.7760  137.2280 O.co2  75  GLU75      -0.2457
     60  OE2       22.4460   70.1940  138.4340 O.co2  75  GLU75      -0.2457
     61  N         15.8790   68.1170  136.4250 N.3    78  LYS78      -0.1245
     62  CA        15.5220   69.1670  137.3730 C.3    78  LYS78       0.1561
     63  C         14.8360   70.3330  136.6850 C.2    78  LYS78       0.2260
     64  O         13.8430   70.8400  137.1900 O.2    78  LYS78      -0.2867
     65  CB        16.7390   69.6830  138.1430 C.3    78  LYS78       0.0271
     66  CG        16.3640   70.7560  139.1630 C.3    78  LYS78       0.0035
     67  CD        17.5130   71.7020  139.5240 C.3    78  LYS78       0.0206
     68  CE        18.6020   71.0070  140.3380 C.3    78  LYS78       0.1093
     69  NZ        19.9000   71.7840  140.3340 N.3    78  LYS78      -0.1314
     70  N         11.0090   71.7130  137.3260 N.3    82  LEU82      -0.1245
     71  CA        10.6870   73.0830  137.7200 C.3    82  LEU82       0.1561
     72  C          9.7240   73.7530  136.7370 C.2    82  LEU82       0.2260
     73  O          8.8460   74.5040  137.1540 O.2    82  LEU82      -0.2867
     74  CB        11.9450   73.9320  137.8650 C.3    82  LEU82       0.0270
     75  CG        12.9100   73.5020  138.9620 C.3    82  LEU82       0.0019
     76  CD1       14.1650   74.3820  138.9460 C.3    82  LEU82       0.0001
     77  CD2       12.2320   73.5180  140.3240 C.3    82  LEU82       0.0001
     78  N         18.2720   59.4020  141.2060 N.3   104  PHE104     -0.1241
     79  CA        19.3000   60.1880  141.8740 C.3   104  PHE104      0.1605
     80  C         19.1330   60.1540  143.4000 C.2   104  PHE104      0.2264
     81  O         19.9680   60.6770  144.1390 O.2   104  PHE104     -0.2867
     82  CB        19.2920   61.6310  141.3520 C.3   104  PHE104      0.0534
     83  CG        19.4530   61.7360  139.8520 C.ar  104  PHE104     -0.0203
     84  CD1       20.6770   61.5040  139.2500 C.ar  104  PHE104     -0.0042
     85  CD2       18.3920   62.0930  139.0490 C.ar  104  PHE104     -0.0042
     86  CE1       20.8270   61.6020  137.8720 C.ar  104  PHE104     -0.0003
     87  CE2       18.5440   62.1950  137.6710 C.ar  104  PHE104     -0.0003
     88  CZ        19.7590   61.9490  137.0870 C.ar  104  PHE104     -0.0000
     89  N         21.6030   60.2430  146.5780 N.3   108  ASN108     -0.1240
     90  CA        21.3820   61.5240  147.2470 C.3   108  ASN108      0.1653
     91  C         20.0270   61.4390  147.9150 C.2   108  ASN108      0.2266
     92  O         19.0240   61.8370  147.3250 O.2   108  ASN108     -0.2867
     93  CB        21.4220   62.6520  146.2400 C.3   108  ASN108      0.1155
     94  CG        22.8370   63.0050  145.8430 C.2   108  ASN108      0.2627
     95  OD1       23.3130   62.5860  144.7870 O.2   108  ASN108     -0.2716
     96  ND2       23.5050   63.8050  146.6600 N.am  108  ASN108     -0.0877
     97  N         18.7200   65.1520  149.2350 N.3   111  LEU111     -0.1245
     98  CA        18.4330   66.0660  148.1310 C.3   111  LEU111      0.1561
     99  C         17.1260   65.7250  147.4530 C.2   111  LEU111      0.2260
    100  O         16.3790   66.6090  147.0540 O.2   111  LEU111     -0.2867
    101  CB        19.5530   66.0400  147.0900 C.3   111  LEU111      0.0270
    102  CG        19.3400   66.9500  145.8710 C.3   111  LEU111      0.0019
    103  CD1       19.4540   68.4270  146.2220 C.3   111  LEU111      0.0001
    104  CD2       20.2910   66.5670  144.7450 C.3   111  LEU111      0.0001
    105  N         14.4350   67.0810  149.6030 N.3   114  GLU114     -0.1231
    106  CA        14.3770   68.5300  149.4420 C.3   114  GLU114      0.1699
    107  C         13.6890   68.9160  148.1310 C.2   114  GLU114      0.2592
    108  O         12.9320   69.8770  148.0900 O.2   114  GLU114     -0.2718
    109  CB        15.7810   69.1340  149.5170 C.3   114  GLU114      0.0402
    110  CG        16.4030   69.0100  150.9140 C.3   114  GLU114      0.1161
    111  CD        17.8530   69.4660  150.9850 C.2   114  GLU114      0.3649
    112  OE1       18.2020   70.4870  150.3490 O.co2 114  GLU114     -0.2457
    113  OE2       18.6470   68.7870  151.6720 O.co2 114  GLU114     -0.2457
    114  N         13.9580   68.1760  147.0600 N.am  115  ILE115     -0.1980
    115  CA        13.3680   68.4660  145.7540 C.3   115  ILE115      0.1595
    116  C         11.8840   68.0990  145.7660 C.2   115  ILE115      0.2287
    117  O         11.0440   68.7810  145.1710 O.2   115  ILE115     -0.2864
    118  CB        14.0720   67.6910  144.6320 C.3   115  ILE115      0.0276
    119  CG1       15.5090   68.1740  144.4700 C.3   115  ILE115      0.0022
    120  CG2       13.3140   67.8210  143.3260 C.3   115  ILE115      0.0022
    121  CD1       16.3140   67.3710  143.4750 C.3   115  ILE115      0.0001
    122  N          9.3600   70.6700  147.2020 N.3   118  LEU118     -0.1245
    123  CA         9.0170   71.8560  146.4220 C.3   118  LEU118      0.1561
    124  C          7.5730   71.7680  145.9360 C.2   118  LEU118      0.2260
    125  O          6.9660   72.7720  145.5620 O.2   118  LEU118     -0.2867
    126  CB         9.9690   72.0380  145.2380 C.3   118  LEU118      0.0270
    127  CG        11.4600   72.1400  145.5430 C.3   118  LEU118      0.0019
    128  CD1       12.2150   72.2960  144.2410 C.3   118  LEU118      0.0001
    129  CD2       11.7730   73.2510  146.5060 C.3   118  LEU118      0.0001
    130  N         12.0830   78.7400  148.1770 N.3   127  ASN127     -0.1240
    131  CA        13.3470   78.0890  148.5170 C.3   127  ASN127      0.1653
    132  C         14.4870   79.0320  148.1410 C.2   127  ASN127      0.2266
    133  O         14.5560   79.4990  147.0020 O.2   127  ASN127     -0.2867
    134  CB        13.4650   76.7400  147.7790 C.3   127  ASN127      0.1155
    135  CG        14.7170   75.9530  148.1590 C.2   127  ASN127      0.2627
    136  OD1       15.8320   76.3390  147.8230 O.2   127  ASN127     -0.2716
    137  ND2       14.5270   74.8240  148.8340 N.am  127  ASN127     -0.0877
    138  N         17.6730   78.5820  147.5950 N.3   129  GLN129     -0.1231
    139  CA        18.5900   78.1470  146.5470 C.3   129  GLN129      0.1698
    140  C         17.9890   78.3610  145.1500 C.2   129  GLN129      0.2592
    141  O         18.7220   78.5560  144.1790 O.2   129  GLN129     -0.2718
    142  CB        18.9760   76.6850  146.7230 C.3   129  GLN129      0.0381
    143  CG        19.6200   76.3530  148.0530 C.3   129  GLN129      0.0905
    144  CD        20.1780   74.9390  148.0690 C.2   129  GLN129      0.2608
    145  OE1       21.1160   74.6250  147.3320 O.2   129  GLN129     -0.2717
    146  NE2       19.6070   74.0810  148.9070 N.am  129  GLN129     -0.0878
    147  N         16.6630   78.3150  145.0480 N.am  130  LEU130     -0.1980
    148  CA        15.9820   78.5550  143.7760 C.3   130  LEU130      0.1596
    149  C         15.4160   79.9750  143.6300 C.2   130  LEU130      0.2287
    150  O         14.7480   80.2860  142.6490 O.2   130  LEU130     -0.2864
    151  CB        14.8780   77.5250  143.5840 C.3   130  LEU130      0.0297
    152  CG        15.3750   76.0840  143.6620 C.3   130  LEU130      0.0022
    153  CD1       14.2310   75.1160  143.5750 C.3   130  LEU130      0.0001
    154  CD2       16.3510   75.8140  142.5370 C.3   130  LEU130      0.0001
    155  N         29.8480   70.9430  131.6040 N.3   150  LEU150     -0.1245
    156  CA        29.8480   69.5350  132.0180 C.3   150  LEU150      0.1561
    157  C         30.1780   68.6080  130.8650 C.2   150  LEU150      0.2260
    158  O         30.8760   67.6210  131.0490 O.2   150  LEU150     -0.2867
    159  CB        28.5010   69.1370  132.6200 C.3   150  LEU150      0.0270
    160  CG        28.1420   69.7140  133.9880 C.3   150  LEU150      0.0019
    161  CD1       26.6750   69.4340  134.3040 C.3   150  LEU150      0.0001
    162  CD2       29.0480   69.1440  135.0660 C.3   150  LEU150      0.0001
@<TRIPOS>BOND
     1   157   158    2
     2   157   156    1
     3   155   156    1
     4   156   159    1
     5   159   160    1
     6    16    17    1
     7    16    13    1
     8   160   161    1
     9   160   162    1
    10    14    15    2
    11    14    13    1
    12    17    19   ar
    13    17    18   ar
    14    54    55    2
    15    54    53    1
    16    19    21   ar
    17    18    20   ar
    18    13    12    1
    19    24    25    1
    20    56    53    1
    21    56    57    1
    22    21    22   ar
    23    20    22   ar
    24    34    35    2
    25    34    33    1
    26    41    42    1
    27    53    52    1
    28    22    23    1
    29    12     3   am
    30    25    26    1
    31    25    28    1
    32    52    43   am
    33    57    58    1
    34    26    27    2
    35    26    32   am
    36    32    33    1
    37    43    42    1
    38    43    44    2
    39    61    62    1
    40    33    36    1
    41    42    45    1
    42    63    64    2
    43    63    62    1
    44    72    73    2
    45    72    71    1
    46     3     4    2
    47     3     2    1
    48     1     2    1
    49    88    87   ar
    50    88    86   ar
    51    28    29    1
    52    36    37    1
    53    59    58   ar
    54    58    60   ar
    55    70    71    1
    56    62    65    1
    57     2     5    1
    58    87    85   ar
    59    71    74    1
    60    37    38    1
    61    29    30    1
    62    74    75    1
    63    86    84   ar
    64    45    46    1
    65    65    66    1
    66    38    39    1
    67     5     6    1
    68    39    40    1
    69    76    75    1
    70    75    77    1
    71    85    83   ar
    72    46    48   ar
    73    46    47   ar
    74    66    67    1
    75    84    83   ar
    76    48    50   ar
    77    67    68    1
    78    30    31    1
    79    83    82    1
    80    47    49   ar
    81     6     7    1
    82    69    68    1
    83    50    51   ar
    84    49    51   ar
    85     7     8    1
    86    78    79    1
    87    82    79    1
    88    79    80    1
    89     8     9    2
    90   154   152    1
    91   150   149    2
    92     9    10    1
    93     9    11    1
    94   120   118    1
    95    80    81    2
    96   121   119    1
    97   153   152    1
    98   151   152    1
    99   151   148    1
   100   149   148    1
   101   148   147    1
   102   141   140    2
   103   128   127    1
   104   119   118    1
   105   118   115    1
   106   104   102    1
   107    95    94    2
   108   147   140   am
   109   140   139    1
   110   117   116    2
   111   126   127    1
   112   126   123    1
   113   127   129    1
   114   125   124    2
   115   115   116    1
   116   115   114    1
   117    94    93    1
   118    94    96   am
   119   102   103    1
   120   102   101    1
   121   124   123    1
   122    93    90    1
   123   123   122    1
   124   139   142    1
   125   139   138    1
   126    89    90    1
   127   142   143    1
   128   133   132    2
   129   100    99    2
   130   114   107   am
   131   101    98    1
   132    90    91    1
   133    92    91    2
   134   145   144    2
   135    99    98    1
   136   134   135    1
   137   134   131    1
   138   136   135    2
   139   143   144    1
   140   144   146   am
   141   108   107    2
   142    98    97    1
   143   107   106    1
   144   132   131    1
   145   135   137   am
   146   130   131    1
   147   106   109    1
   148   106   105    1
   149   109   110    1
   150   112   111   ar
   151   110   111    1
   152   111   113   ar
