@<TRIPOS>MOLECULE
tmp/5c71A00.pdb
 153 145 0 0 0
SMALL
GASTEIGER

@<TRIPOS>ATOM
      1  N          6.2770   28.1270    9.7790 N.3   160  GLN160     -0.1245
      2  CA         5.8080   27.3420   10.9800 C.3   160  GLN160      0.1566
      3  C          4.5090   26.6200   10.7500 C.2   160  GLN160      0.2260
      4  O          3.9650   26.0980   11.6850 O.2   160  GLN160     -0.2867
      5  CB         5.6170   28.2350   12.2050 C.3   160  GLN160      0.0367
      6  CG         6.8910   28.9320   12.6100 C.3   160  GLN160      0.0905
      7  CD         7.2200   30.0400   11.6620 C.2   160  GLN160      0.2608
      8  OE1        6.4070   30.9350   11.4190 O.2   160  GLN160     -0.2717
      9  NE2        8.4120   29.9940   11.0940 N.am  160  GLN160     -0.0878
     10  N          2.0760   23.7100    8.6600 N.3   162  ASP162     -0.1239
     11  CA         2.2440   22.3660    8.1240 C.3   162  ASP162      0.1674
     12  C          2.1680   22.3460    6.6060 C.2   162  ASP162      0.2266
     13  O          3.1880   22.2060    5.9310 O.2   162  ASP162     -0.2867
     14  CB         1.1930   21.4220    8.7130 C.3   162  ASP162      0.1410
     15  CG         1.7740   20.0790    9.1090 C.2   162  ASP162      0.3668
     16  OD1        3.0010   19.8950    8.9680 O.co2 162  ASP162     -0.2456
     17  OD2        1.0030   19.2060    9.5600 O.co2 162  ASP162     -0.2456
     18  N         -6.7360   27.5600    6.9570 N.3   332  HIS332     -0.1241
     19  CA        -5.5090   28.2580    7.0690 C.3   332  HIS332      0.1621
     20  C         -5.3450   29.2500    5.9720 C.2   332  HIS332      0.2264
     21  O         -4.2690   29.8160    5.8380 O.2   332  HIS332     -0.2867
     22  CB        -4.3590   27.3370    7.2490 C.3   332  HIS332      0.0745
     23  CG        -4.5540   26.3260    8.3430 C.ar  332  HIS332      0.0817
     24  ND1       -5.5930   26.3740    9.2430 N.ar  332  HIS332     -0.2268
     25  CD2       -3.8500   25.2170    8.6450 C.ar  332  HIS332      0.1154
     26  CE1       -5.5390   25.3190   10.0270 C.ar  332  HIS332      0.1986
     27  NE2       -4.4800   24.6110    9.6930 N.ar  332  HIS332     -0.2212
     28  N          7.3050   28.0910   18.7510 N.3   362  SER362     -0.1217
     29  CA         7.5920   27.0180   19.7390 C.3   362  SER362      0.1889
     30  C          7.1710   25.6080   19.2390 C.2   362  SER362      0.2288
     31  O          6.0780   25.3930   18.6700 O.2   362  SER362     -0.2866
     32  CB         6.9300   27.3410   21.1000 C.3   362  SER362      0.2089
     33  OG         5.5690   27.7450   20.9660 O.3   362  SER362     -0.2183
     34  N         -4.9700   30.7020   13.3290 N.3   403  ASN403     -0.1225
     35  CA        -4.8810   29.2830   13.5860 C.3   403  ASN403      0.1785
     36  C         -3.6070   28.9980   14.2890 C.2   403  ASN403      0.2597
     37  O         -2.5390   29.3640   13.8140 O.2   403  ASN403     -0.2718
     38  CB        -4.9140   28.4670   12.3090 C.3   403  ASN403      0.1169
     39  CG        -4.8160   26.9800   12.5980 C.2   403  ASN403      0.2627
     40  OD1       -3.7870   26.3350   12.3500 O.2   403  ASN403     -0.2716
     41  ND2       -5.8570   26.4450   13.2010 N.am  403  ASN403     -0.0877
     42  N         -3.7380   28.3420   15.4300 N.am  404  ASP404     -0.1974
     43  CA        -2.6280   28.0150   16.2880 C.3   404  ASP404      0.1709
     44  C         -1.6800   29.1700   16.6020 C.2   404  ASP404      0.2293
     45  O         -0.4970   29.0080   16.6230 O.2   404  ASP404     -0.2864
     46  CB        -1.8910   26.7970   15.7270 C.3   404  ASP404      0.1436
     47  CG        -2.7570   25.5500   15.7390 C.2   404  ASP404      0.3671
     48  OD1       -3.6740   25.5310   16.5790 O.co2 404  ASP404     -0.2456
     49  OD2       -2.5720   24.5950   14.9270 O.co2 404  ASP404     -0.2456
     50  N         -4.4700   26.5330   20.0950 N.3   437  VAL437     -0.1231
     51  CA        -3.5360   25.4080   20.1320 C.3   437  VAL437      0.1692
     52  C         -3.4050   24.8620   21.5600 C.2   437  VAL437      0.2593
     53  O         -3.6420   25.5850   22.5460 O.2   437  VAL437     -0.2718
     54  CB        -2.1520   25.8330   19.5770 C.3   437  VAL437      0.0266
     55  CG1       -1.3390   26.6200   20.6050 C.3   437  VAL437      0.0020
     56  CG2       -1.3880   24.6140   19.0820 C.3   437  VAL437      0.0020
     57  N         -3.0250   23.5920   21.6620 N.am  438  GLY438     -0.1942
     58  CA        -2.9040   22.8930   22.9510 C.3   438  GLY438      0.2014
     59  C         -2.1690   23.6090   24.0740 C.2   438  GLY438      0.2638
     60  O         -2.5000   23.4760   25.2340 O.2   438  GLY438     -0.2714
     61  N         -1.1330   24.3440   23.7250 N.am  439  LEU439     -0.1977
     62  CA        -0.2980   25.0290   24.6980 C.3   439  LEU439      0.1596
     63  C         -1.0710   26.0810   25.4340 C.2   439  LEU439      0.2287
     64  O         -0.8870   26.2550   26.6260 O.2   439  LEU439     -0.2864
     65  CB         0.9110   25.6170   23.9820 C.3   439  LEU439      0.0297
     66  CG         1.8110   26.5320   24.8070 C.3   439  LEU439      0.0022
     67  CD1        2.2790   25.8550   26.1020 C.3   439  LEU439      0.0001
     68  CD2        2.9870   26.9840   23.9280 C.3   439  LEU439      0.0001
     69  N         -3.8170   26.3920   27.0570 N.3   441  THR441     -0.1218
     70  CA        -4.8730   25.7230   27.8090 C.3   441  THR441      0.1862
     71  C         -5.8330   26.7910   28.2910 C.2   441  THR441      0.2287
     72  O         -5.5060   27.9640   28.2360 O.2   441  THR441     -0.2866
     73  CB        -4.3310   25.0070   29.0540 C.3   441  THR441      0.1770
     74  OG1       -3.8270   25.9790   30.0020 O.3   441  THR441     -0.2211
     75  CG2       -3.2620   24.0420   28.6510 C.3   441  THR441      0.0375
     76  N         -8.1040   23.1850   18.7430 N.3   457  ASN457     -0.1240
     77  CA        -7.3970   22.0540   18.1350 C.3   457  ASN457      0.1653
     78  C         -6.7190   21.1950   19.2210 C.2   457  ASN457      0.2266
     79  O         -5.9510   21.7320   20.0370 O.2   457  ASN457     -0.2867
     80  CB        -6.3290   22.5760   17.1770 C.3   457  ASN457      0.1155
     81  CG        -6.8590   23.6270   16.2270 C.2   457  ASN457      0.2627
     82  OD1       -8.0100   23.5760   15.7780 O.2   457  ASN457     -0.2716
     83  ND2       -6.0240   24.5980   15.9250 N.am  457  ASN457     -0.0877
     84  N         -4.8390   17.1260   20.1060 N.3   459  TYR459     -0.1227
     85  CA        -4.2850   15.8620   19.6410 C.3   459  TYR459      0.1736
     86  C         -3.8510   15.0170   20.8100 C.2   459  TYR459      0.2595
     87  O         -2.8050   14.3440   20.7840 O.2   459  TYR459     -0.2718
     88  CB        -3.0920   16.1510   18.7070 C.3   459  TYR459      0.0548
     89  CG        -3.5760   16.7340   17.4460 C.ar  459  TYR459     -0.0200
     90  CD1       -3.8450   18.1040   17.3420 C.ar  459  TYR459     -0.0009
     91  CD2       -3.8840   15.9100   16.3800 C.ar  459  TYR459     -0.0009
     92  CE1       -4.3600   18.6440   16.1580 C.ar  459  TYR459      0.0417
     93  CE2       -4.3990   16.4250   15.2050 C.ar  459  TYR459      0.0417
     94  CZ        -4.6340   17.7770   15.0920 C.ar  459  TYR459      0.1957
     95  OH        -5.1560   18.2380   13.9220 O.3   459  TYR459     -0.2866
     96  N         -4.6650   15.0300   21.8540 N.am  460  PHE460     -0.1976
     97  CA        -4.3050   14.2990   23.0720 C.3   460  PHE460      0.1639
     98  C         -3.9340   12.8790   22.6860 C.2   460  PHE460      0.2290
     99  O         -2.8830   12.3550   23.1150 O.2   460  PHE460     -0.2864
    100  CB        -5.4190   14.3060   24.1410 C.3   460  PHE460      0.0560
    101  CG        -5.6290   15.6400   24.7950 C.ar  460  PHE460     -0.0200
    102  CD1       -4.7110   16.1290   25.7160 C.ar  460  PHE460     -0.0042
    103  CD2       -6.7550   16.4070   24.4870 C.ar  460  PHE460     -0.0042
    104  CE1       -4.9210   17.3840   26.3100 C.ar  460  PHE460     -0.0003
    105  CE2       -6.9630   17.6440   25.0750 C.ar  460  PHE460     -0.0003
    106  CZ        -6.0480   18.1360   25.9860 C.ar  460  PHE460     -0.0000
    107  N         -0.2590   13.1670   19.6930 N.3   463  TYR463     -0.1227
    108  CA         1.0510   13.8130   19.9440 C.3   463  TYR463      0.1736
    109  C          1.6120   13.7080   21.4150 C.2   463  TYR463      0.2596
    110  O          2.8170   13.7600   21.6170 O.2   463  TYR463     -0.2718
    111  CB         1.0230   15.3010   19.4710 C.3   463  TYR463      0.0548
    112  CG         1.0070   15.5670   17.9510 C.ar  463  TYR463     -0.0200
    113  CD1        2.1380   15.3090   17.1460 C.ar  463  TYR463     -0.0009
    114  CD2       -0.1220   16.1110   17.3290 C.ar  463  TYR463     -0.0009
    115  CE1        2.1310   15.5670   15.7730 C.ar  463  TYR463      0.0417
    116  CE2       -0.1420   16.3970   15.9570 C.ar  463  TYR463      0.0417
    117  CZ         0.9830   16.1310   15.1800 C.ar  463  TYR463      0.1957
    118  OH         0.9610   16.4010   13.8200 O.3   463  TYR463     -0.2866
    119  N          0.7610   13.5370   22.4250 N.am  464  THR464     -0.1939
    120  CA         1.2200   13.6930   23.8170 C.3   464  THR464      0.2028
    121  C          1.0490   12.4240   24.6910 C.2   464  THR464      0.2642
    122  O          2.0140   11.9220   25.3140 O.2   464  THR464     -0.2714
    123  CB         0.5660   14.9470   24.4640 C.3   464  THR464      0.1808
    124  OG1       -0.8300   14.7230   24.7200 O.3   464  THR464     -0.2208
    125  CG2        0.6880   16.1340   23.5300 C.3   464  THR464      0.0379
    126  N         -0.1660   11.9080   24.7280 N.am  465  GLN465     -0.1976
    127  CA        -0.4320   10.6780   25.4540 C.3   465  GLN465      0.1601
    128  C         -0.5960    9.6120   24.4250 C.2   465  GLN465      0.2287
    129  O         -1.6940    9.1000   24.1980 O.2   465  GLN465     -0.2864
    130  CB        -1.6830   10.8220   26.2970 C.3   465  GLN465      0.0394
    131  CG        -1.4820   11.7930   27.4430 C.3   465  GLN465      0.0908
    132  CD        -1.6710   13.2260   27.0570 C.2   465  GLN465      0.2608
    133  OE1       -2.1940   13.5420   25.9960 O.2   465  GLN465     -0.2717
    134  NE2       -1.2640   14.1130   27.9440 N.am  465  GLN465     -0.0878
    135  N         -9.6950   20.9470   15.3520 N.3   495  ASP495     -0.1239
    136  CA        -8.7600   19.8630   14.9740 C.3   495  ASP495      0.1674
    137  C         -8.8370   18.7510   15.9950 C.2   495  ASP495      0.2266
    138  O         -8.8100   19.0120   17.1880 O.2   495  ASP495     -0.2867
    139  CB        -7.2420   20.2050   14.9750 C.3   495  ASP495      0.1410
    140  CG        -6.8190   21.2900   13.9920 C.2   495  ASP495      0.3668
    141  OD1       -7.6110   21.8040   13.1530 O.co2 495  ASP495     -0.2456
    142  OD2       -5.6230   21.6720   14.0810 O.co2 495  ASP495     -0.2456
    143  N          6.8490   13.6150    8.5390 N.3   553  ARG553     -0.1245
    144  CA         5.7680   13.7150    7.5650 C.3   553  ARG553      0.1563
    145  C          6.0720   12.7220    6.4850 C.2   553  ARG553      0.2260
    146  O          7.0800   12.8190    5.8010 O.2   553  ARG553     -0.2867
    147  CB         5.6480   15.1200    7.0010 C.3   553  ARG553      0.0307
    148  CG         5.0320   16.0890    7.9880 C.3   553  ARG553      0.0489
    149  CD         3.5560   15.8030    8.0790 C.3   553  ARG553      0.2205
    150  NE         2.8700   16.6410    9.0470 N.pl3 553  ARG553     -0.0865
    151  CZ         2.5090   16.2590   10.2740 C.cat 553  ARG553      0.5346
    152  NH1        2.7980   15.0470   10.7350 N.pl3 553  ARG553      0.1354
    153  NH2        1.8520   17.1040   11.0540 N.pl3 553  ARG553      0.1354
@<TRIPOS>BOND
     1   146   145    2
     2    21    20    2
     3    13    12    2
     4    20    19    1
     5   145   144    1
     6    12    11    1
     7    18    19    1
     8   147   144    1
     9   147   148    1
    10    19    22    1
    11    22    23    1
    12   144   143    1
    13   148   149    1
    14   149   150    1
    15    11    10    1
    16    11    14    1
    17    23    25   ar
    18    23    24   ar
    19    25    27   ar
    20    14    15    1
    21    16    15   ar
    22   150   151    2
    23    15    17   ar
    24    24    26   ar
    25    27    26   ar
    26     1     2    1
    27   151   152    1
    28   151   153    1
    29     3     2    1
    30     3     4    2
    31     2     5    1
    32     9     7   am
    33     8     7    2
    34     7     6    1
    35     5     6    1
    36    38    39    1
    37    38    35    1
    38    40    39    2
    39    39    41   am
    40   141   140   ar
    41    34    35    1
    42    35    36    1
    43    37    36    2
    44   118   117    1
    45    95    94    1
    46   140   142   ar
    47   140   139    1
    48    36    42   am
    49    49    47   ar
    50   136   139    1
    51   136   135    1
    52   136   137    1
    53    94    93   ar
    54    94    92   ar
    55   117   115   ar
    56   117   116   ar
    57    93    91   ar
    58    42    43    1
    59    46    47    1
    60    46    43    1
    61    47    48   ar
    62   115   113   ar
    63    82    81    2
    64    83    81   am
    65   116   114   ar
    66   137   138    2
    67    92    90   ar
    68    81    80    1
    69    43    44    1
    70    91    89   ar
    71    44    45    2
    72   113   112   ar
    73    80    77    1
    74   114   112   ar
    75    90    89   ar
    76    89    88    1
    77   112   111    1
    78    77    76    1
    79    77    78    1
    80    31    30    2
    81    88    85    1
    82    28    29    1
    83    56    54    1
    84    78    79    2
    85    30    29    1
    86   111   108    1
    87    54    51    1
    88    54    55    1
    89    85    84    1
    90    85    86    1
    91   107   108    1
    92    29    32    1
    93   108   109    1
    94    50    51    1
    95    51    52    1
    96    87    86    2
    97    86    96   am
    98    33    32    1
    99   109   110    2
   100   109   119   am
   101    52    57   am
   102    52    53    2
   103    57    58    1
   104    96    97    1
   105   119   120    1
   106    98    97    1
   107    98    99    2
   108    58    59    1
   109    97   100    1
   110   125   123    1
   111    61    59   am
   112    61    62    1
   113   120   123    1
   114   120   121    1
   115    68    66    1
   116    65    62    1
   117    65    66    1
   118    59    60    2
   119   100   101    1
   120   129   128    2
   121   128   127    1
   122   123   124    1
   123   103   101   ar
   124   103   105   ar
   125   121   126   am
   126   121   122    2
   127    62    63    1
   128   126   127    1
   129   101   102   ar
   130    66    67    1
   131   105   106   ar
   132    63    64    2
   133   127   130    1
   134   102   104   ar
   135   106   104   ar
   136   133   132    2
   137   130   131    1
   138    69    70    1
   139   132   131    1
   140   132   134   am
   141    70    71    1
   142    70    73    1
   143    72    71    2
   144    75    73    1
   145    73    74    1
