@<TRIPOS>MOLECULE
tmp/5c71A01.pdb
 140 137 0 0 0
SMALL
GASTEIGER

@<TRIPOS>ATOM
      1  N          3.9940   26.5890    9.5300 N.3   161  HIS161     -0.1226
      2  CA         2.7440   25.9160    9.3040 C.3   161  HIS161      0.1752
      3  C          3.0300   24.6330    8.5840 C.2   161  HIS161      0.2596
      4  O          4.1100   24.4630    8.0060 O.2   161  HIS161     -0.2718
      5  CB         1.7540   26.8180    8.5840 C.3   161  HIS161      0.0759
      6  CG         2.2490   27.3540    7.2890 C.ar  161  HIS161      0.0818
      7  ND1        3.0960   28.4370    7.2030 N.ar  161  HIS161     -0.2268
      8  CD2        2.0130   26.9550    6.0220 C.ar  161  HIS161      0.1154
      9  CE1        3.3710   28.6690    5.9350 C.ar  161  HIS161      0.1986
     10  NE2        2.7280   27.7760    5.2010 N.ar  161  HIS161     -0.2212
     11  N          2.0760   23.7100    8.6600 N.am  162  ASP162     -0.1960
     12  CA         2.2440   22.3660    8.1240 C.3   162  ASP162      0.1840
     13  C          2.1680   22.3460    6.6060 C.2   162  ASP162      0.2622
     14  O          3.1880   22.2060    5.9310 O.2   162  ASP162     -0.2715
     15  CB         1.1930   21.4220    8.7130 C.3   162  ASP162      0.1450
     16  CG         1.7740   20.0790    9.1090 C.2   162  ASP162      0.3671
     17  OD1        3.0010   19.8950    8.9680 O.co2 162  ASP162     -0.2456
     18  OD2        1.0030   19.2060    9.5600 O.co2 162  ASP162     -0.2456
     19  N          0.9610   22.4810    6.0680 N.am  163  PHE163     -0.1974
     20  CA         0.7950   22.4190    4.6010 C.3   163  PHE163      0.1639
     21  C          1.9230   23.0280    3.7350 C.2   163  PHE163      0.2290
     22  O          2.5190   24.0580    4.0750 O.2   163  PHE163     -0.2864
     23  CB        -0.5620   22.9990    4.2150 C.3   163  PHE163      0.0560
     24  CG        -0.7610   24.4360    4.5850 C.ar  163  PHE163     -0.0200
     25  CD1       -1.0500   24.8140    5.8930 C.ar  163  PHE163     -0.0042
     26  CD2       -0.7300   25.4140    3.6180 C.ar  163  PHE163     -0.0042
     27  CE1       -1.2780   26.1410    6.2200 C.ar  163  PHE163     -0.0003
     28  CE2       -0.9550   26.7350    3.9340 C.ar  163  PHE163     -0.0003
     29  CZ        -1.2440   27.1030    5.2240 C.ar  163  PHE163     -0.0000
     30  N         -6.7360   27.5600    6.9570 N.3   332  HIS332     -0.1241
     31  CA        -5.5090   28.2580    7.0690 C.3   332  HIS332      0.1621
     32  C         -5.3450   29.2500    5.9720 C.2   332  HIS332      0.2264
     33  O         -4.2690   29.8160    5.8380 O.2   332  HIS332     -0.2867
     34  CB        -4.3590   27.3370    7.2490 C.3   332  HIS332      0.0745
     35  CG        -4.5540   26.3260    8.3430 C.ar  332  HIS332      0.0817
     36  ND1       -5.5930   26.3740    9.2430 N.ar  332  HIS332     -0.2268
     37  CD2       -3.8500   25.2170    8.6450 C.ar  332  HIS332      0.1154
     38  CE1       -5.5390   25.3190   10.0270 C.ar  332  HIS332      0.1986
     39  NE2       -4.4800   24.6110    9.6930 N.ar  332  HIS332     -0.2212
     40  N         -4.9700   30.7020   13.3290 N.3   403  ASN403     -0.1225
     41  CA        -4.8810   29.2830   13.5860 C.3   403  ASN403      0.1785
     42  C         -3.6070   28.9980   14.2890 C.2   403  ASN403      0.2597
     43  O         -2.5390   29.3640   13.8140 O.2   403  ASN403     -0.2718
     44  CB        -4.9140   28.4670   12.3090 C.3   403  ASN403      0.1169
     45  CG        -4.8160   26.9800   12.5980 C.2   403  ASN403      0.2627
     46  OD1       -3.7870   26.3350   12.3500 O.2   403  ASN403     -0.2716
     47  ND2       -5.8570   26.4450   13.2010 N.am  403  ASN403     -0.0877
     48  N         -3.7380   28.3420   15.4300 N.am  404  ASP404     -0.1974
     49  CA        -2.6280   28.0150   16.2880 C.3   404  ASP404      0.1709
     50  C         -1.6800   29.1700   16.6020 C.2   404  ASP404      0.2293
     51  O         -0.4970   29.0080   16.6230 O.2   404  ASP404     -0.2864
     52  CB        -1.8910   26.7970   15.7270 C.3   404  ASP404      0.1436
     53  CG        -2.7570   25.5500   15.7390 C.2   404  ASP404      0.3671
     54  OD1       -3.6740   25.5310   16.5790 O.co2 404  ASP404     -0.2456
     55  OD2       -2.5720   24.5950   14.9270 O.co2 404  ASP404     -0.2456
     56  N         -4.8390   17.1260   20.1060 N.3   459  TYR459     -0.1241
     57  CA        -4.2850   15.8620   19.6410 C.3   459  TYR459      0.1605
     58  C         -3.8510   15.0170   20.8100 C.2   459  TYR459      0.2264
     59  O         -2.8050   14.3440   20.7840 O.2   459  TYR459     -0.2867
     60  CB        -3.0920   16.1510   18.7070 C.3   459  TYR459      0.0534
     61  CG        -3.5760   16.7340   17.4460 C.ar  459  TYR459     -0.0201
     62  CD1       -3.8450   18.1040   17.3420 C.ar  459  TYR459     -0.0009
     63  CD2       -3.8840   15.9100   16.3800 C.ar  459  TYR459     -0.0009
     64  CE1       -4.3600   18.6440   16.1580 C.ar  459  TYR459      0.0417
     65  CE2       -4.3990   16.4250   15.2050 C.ar  459  TYR459      0.0417
     66  CZ        -4.6340   17.7770   15.0920 C.ar  459  TYR459      0.1957
     67  OH        -5.1560   18.2380   13.9220 O.3   459  TYR459     -0.2866
     68  N         -0.2590   13.1670   19.6930 N.3   463  TYR463     -0.1241
     69  CA         1.0510   13.8130   19.9440 C.3   463  TYR463      0.1605
     70  C          1.6120   13.7080   21.4150 C.2   463  TYR463      0.2264
     71  O          2.8170   13.7600   21.6170 O.2   463  TYR463     -0.2867
     72  CB         1.0230   15.3010   19.4710 C.3   463  TYR463      0.0534
     73  CG         1.0070   15.5670   17.9510 C.ar  463  TYR463     -0.0201
     74  CD1        2.1380   15.3090   17.1460 C.ar  463  TYR463     -0.0009
     75  CD2       -0.1220   16.1110   17.3290 C.ar  463  TYR463     -0.0009
     76  CE1        2.1310   15.5670   15.7730 C.ar  463  TYR463      0.0417
     77  CE2       -0.1420   16.3970   15.9570 C.ar  463  TYR463      0.0417
     78  CZ         0.9830   16.1310   15.1800 C.ar  463  TYR463      0.1957
     79  OH         0.9610   16.4010   13.8200 O.3   463  TYR463     -0.2866
     80  N         -9.6950   20.9470   15.3520 N.3   495  ASP495     -0.1239
     81  CA        -8.7600   19.8630   14.9740 C.3   495  ASP495      0.1674
     82  C         -8.8370   18.7510   15.9950 C.2   495  ASP495      0.2266
     83  O         -8.8100   19.0120   17.1880 O.2   495  ASP495     -0.2867
     84  CB        -7.2420   20.2050   14.9750 C.3   495  ASP495      0.1410
     85  CG        -6.8190   21.2900   13.9920 C.2   495  ASP495      0.3668
     86  OD1       -7.6110   21.8040   13.1530 O.co2 495  ASP495     -0.2456
     87  OD2       -5.6230   21.6720   14.0810 O.co2 495  ASP495     -0.2456
     88  N         -9.7820   16.7820   11.8390 N.3   540  TRP540     -0.1241
     89  CA        -8.6210   17.1750   11.0420 C.3   540  TRP540      0.1605
     90  C         -8.0780   15.8740   10.4460 C.2   540  TRP540      0.2264
     91  O         -7.6460   15.0230   11.2040 O.2   540  TRP540     -0.2867
     92  CB        -7.5370   17.8990   11.9000 C.3   540  TRP540      0.0550
     93  CG        -6.4460   18.4260   11.0550 C.ar  540  TRP540      0.0003
     94  CD1       -5.2880   17.8140   10.7610 C.ar  540  TRP540      0.0946
     95  CD2       -6.4800   19.6170   10.2770 C.ar  540  TRP540      0.0152
     96  NE1       -4.5710   18.5460    9.8420 N.ar  540  TRP540     -0.2442
     97  CE2       -5.2800   19.6710    9.5350 C.ar  540  TRP540      0.0810
     98  CE3       -7.4190   20.6270   10.1090 C.ar  540  TRP540      0.0012
     99  CZ2       -4.9650   20.7300    8.6790 C.ar  540  TRP540      0.0191
    100  CZ3       -7.1140   21.6740    9.2520 C.ar  540  TRP540      0.0001
    101  CH2       -5.8830   21.7240    8.5570 C.ar  540  TRP540      0.0015
    102  N         -2.8580   15.5500    2.6570 N.3   545  PHE545     -0.1241
    103  CA        -2.3640   16.6970    1.8960 C.3   545  PHE545      0.1605
    104  C         -0.8560   16.8760    2.0760 C.2   545  PHE545      0.2264
    105  O         -0.2710   16.3330    2.9960 O.2   545  PHE545     -0.2867
    106  CB        -3.1090   17.9600    2.3270 C.3   545  PHE545      0.0534
    107  CG        -2.8880   18.2930    3.7530 C.ar  545  PHE545     -0.0203
    108  CD1       -3.7080   17.7580    4.7320 C.ar  545  PHE545     -0.0042
    109  CD2       -1.8110   19.0840    4.1320 C.ar  545  PHE545     -0.0042
    110  CE1       -3.4750   18.0220    6.0610 C.ar  545  PHE545     -0.0003
    111  CE2       -1.5880   19.3500    5.4570 C.ar  545  PHE545     -0.0003
    112  CZ        -2.4270   18.8190    6.4300 C.ar  545  PHE545     -0.0000
    113  N          6.8490   13.6150    8.5390 N.3   553  ARG553     -0.1245
    114  CA         5.7680   13.7150    7.5650 C.3   553  ARG553      0.1563
    115  C          6.0720   12.7220    6.4850 C.2   553  ARG553      0.2260
    116  O          7.0800   12.8190    5.8010 O.2   553  ARG553     -0.2867
    117  CB         5.6480   15.1200    7.0010 C.3   553  ARG553      0.0307
    118  CG         5.0320   16.0890    7.9880 C.3   553  ARG553      0.0489
    119  CD         3.5560   15.8030    8.0790 C.3   553  ARG553      0.2205
    120  NE         2.8700   16.6410    9.0470 N.pl3 553  ARG553     -0.0865
    121  CZ         2.5090   16.2590   10.2740 C.cat 553  ARG553      0.5346
    122  NH1        2.7980   15.0470   10.7350 N.pl3 553  ARG553      0.1354
    123  NH2        1.8520   17.1040   11.0540 N.pl3 553  ARG553      0.1354
    124  N          1.0970   15.2360    5.1400 N.3   557  ASN557     -0.1240
    125  CA         0.2290   15.0260    6.2620 C.3   557  ASN557      0.1653
    126  C         -0.7930   13.9870    5.8900 C.2   557  ASN557      0.2266
    127  O         -1.5420   14.1730    4.9350 O.2   557  ASN557     -0.2867
    128  CB        -0.4820   16.2980    6.6530 C.3   557  ASN557      0.1155
    129  CG        -1.2350   16.1550    7.9770 C.2   557  ASN557      0.2627
    130  OD1       -1.9800   15.1760    8.1980 O.2   557  ASN557     -0.2716
    131  ND2       -1.0240   17.1110    8.8740 N.am  557  ASN557     -0.0877
    132  N         -3.1010   12.7500    8.2010 N.3   559  LYS559     -0.1245
    133  CA        -4.2820   12.8040    9.0830 C.3   559  LYS559      0.1561
    134  C         -5.6320   12.8660    8.3420 C.2   559  LYS559      0.2260
    135  O         -6.6560   13.0290    8.9530 O.2   559  LYS559     -0.2867
    136  CB        -4.1760   13.9490   10.0900 C.3   559  LYS559      0.0271
    137  CG        -3.0320   13.7500   11.0590 C.3   559  LYS559      0.0035
    138  CD        -3.1670   14.6110   12.2980 C.3   559  LYS559      0.0206
    139  CE        -1.9590   14.4960   13.2440 C.3   559  LYS559      0.1093
    140  NZ        -0.7000   14.8660   12.5570 N.3   559  LYS559     -0.1314
@<TRIPOS>BOND
     1   103   104    1
     2   103   106    1
     3   103   102    1
     4   104   105    2
     5   106   107    1
     6    26    28   ar
     7    26    24   ar
     8    21    22    2
     9    21    20    1
    10   107   109   ar
    11   107   108   ar
    12    28    29   ar
    13   109   111   ar
    14    23    24    1
    15    23    20    1
    16    24    25   ar
    17    20    19    1
    18   108   110   ar
    19   127   126    2
    20   124   125    1
    21    10     9   ar
    22    10     8   ar
    23    29    27   ar
    24   111   112   ar
    25   116   115    2
    26    33    32    2
    27   126   125    1
    28    25    27   ar
    29    14    13    2
    30     9     7   ar
    31    32    31    1
    32     8     6   ar
    33   110   112   ar
    34    19    13   am
    35   125   128    1
    36   115   114    1
    37    13    12    1
    38   128   129    1
    39    30    31    1
    40   117   114    1
    41   117   118    1
    42    31    34    1
    43     7     6   ar
    44    34    35    1
    45     6     5    1
    46   114   113    1
    47   129   130    2
    48   129   131   am
    49   118   119    1
    50     4     3    2
    51   119   120    1
    52    12    11    1
    53    12    15    1
    54   132   133    1
    55   134   135    2
    56   134   133    1
    57    35    37   ar
    58    35    36   ar
    59   101    99   ar
    60   101   100   ar
    61     3    11   am
    62     3     2    1
    63     5     2    1
    64    37    39   ar
    65    99    97   ar
    66    15    16    1
    67    17    16   ar
    68   120   121    2
    69   133   136    1
    70    16    18   ar
    71    36    38   ar
    72   100    98   ar
    73     2     1    1
    74    97    96   ar
    75    97    95   ar
    76    39    38   ar
    77    96    94   ar
    78   136   137    1
    79    98    95   ar
    80   121   122    1
    81   121   123    1
    82    95    93   ar
    83    90    89    1
    84    90    91    2
    85    94    93   ar
    86    89    88    1
    87    89    92    1
    88    93    92    1
    89   137   138    1
    90   138   139    1
    91    44    45    1
    92    44    41    1
    93    46    45    2
    94   140   139    1
    95    45    47   am
    96    86    85   ar
    97    40    41    1
    98    41    42    1
    99    43    42    2
   100    79    78    1
   101    67    66    1
   102    85    87   ar
   103    85    84    1
   104    42    48   am
   105    55    53   ar
   106    81    84    1
   107    81    80    1
   108    81    82    1
   109    66    65   ar
   110    66    64   ar
   111    78    76   ar
   112    78    77   ar
   113    65    63   ar
   114    48    49    1
   115    52    53    1
   116    52    49    1
   117    53    54   ar
   118    76    74   ar
   119    77    75   ar
   120    82    83    2
   121    64    62   ar
   122    49    50    1
   123    63    61   ar
   124    50    51    2
   125    74    73   ar
   126    75    73   ar
   127    62    61   ar
   128    61    60    1
   129    73    72    1
   130    60    57    1
   131    72    69    1
   132    57    56    1
   133    57    58    1
   134    68    69    1
   135    69    70    1
   136    59    58    2
   137    70    71    2
