@<TRIPOS>MOLECULE
tmp/5c78A00.pdb
 146 140 0 0 0
SMALL
GASTEIGER

@<TRIPOS>ATOM
      1  N         95.0010  130.0510   74.4970 N.3   120  ASN120     -0.1225
      2  CA        94.9430  130.9290   73.3090 C.3   120  ASN120      0.1785
      3  C         96.3200  131.3940   72.8290 C.2   120  ASN120      0.2597
      4  O         97.3040  131.3670   73.5600 O.2   120  ASN120     -0.2718
      5  CB        94.0330  132.1440   73.5540 C.3   120  ASN120      0.1169
      6  CG        94.6610  133.2110   74.4540 C.2   120  ASN120      0.2627
      7  OD1       95.5660  133.9290   74.0500 O.2   120  ASN120     -0.2716
      8  ND2       94.1270  133.3520   75.6650 N.am  120  ASN120     -0.0877
      9  N         96.3780  131.8260   71.5800 N.am  121  TYR121     -0.1962
     10  CA        97.6610  131.9750   70.9070 C.3   121  TYR121      0.1771
     11  C         98.5420  133.0200   71.5260 C.2   121  TYR121      0.2619
     12  O         99.7470  132.8780   71.5570 O.2   121  TYR121     -0.2715
     13  CB        97.4490  132.3100   69.4490 C.3   121  TYR121      0.0574
     14  CG        98.7060  132.4930   68.6470 C.ar  121  TYR121     -0.0198
     15  CD1       99.1030  133.7540   68.2540 C.ar  121  TYR121     -0.0009
     16  CD2       99.4910  131.4100   68.2740 C.ar  121  TYR121     -0.0009
     17  CE1      100.2270  133.9450   67.5060 C.ar  121  TYR121      0.0417
     18  CE2      100.6300  131.5870   67.5120 C.ar  121  TYR121      0.0417
     19  CZ       100.9900  132.8660   67.1340 C.ar  121  TYR121      0.1957
     20  OH       102.1210  133.1040   66.3890 O.3   121  TYR121     -0.2866
     21  N         97.9400  134.1010   71.9750 N.am  122  GLU122     -0.1963
     22  CA        98.7140  135.1480   72.5960 C.3   122  GLU122      0.1733
     23  C         99.3200  134.7120   73.9190 C.2   122  GLU122      0.2616
     24  O        100.4470  135.0910   74.2190 O.2   122  GLU122     -0.2715
     25  CB        97.8560  136.3830   72.7940 C.3   122  GLU122      0.0429
     26  CG        98.5910  137.5130   73.4450 C.3   122  GLU122      0.1163
     27  CD        97.8810  138.7930   73.1910 C.2   122  GLU122      0.3649
     28  OE1       96.9110  138.7410   72.4060 O.co2 122  GLU122     -0.2457
     29  OE2       98.3150  139.8420   73.7080 O.co2 122  GLU122     -0.2457
     30  N         98.5860  133.9160   74.7000 N.am  123  LYS123     -0.1977
     31  CA        99.0790  133.4310   75.9930 C.3   123  LYS123      0.1596
     32  C        100.3120  132.5710   75.8260 C.2   123  LYS123      0.2287
     33  O        101.3230  132.7870   76.4800 O.2   123  LYS123     -0.2864
     34  CB        98.0130  132.6130   76.7310 C.3   123  LYS123      0.0298
     35  CG        97.4120  133.2850   77.9580 C.3   123  LYS123      0.0038
     36  CD        96.9690  132.2280   78.9890 C.3   123  LYS123      0.0206
     37  CE        96.2090  132.8480   80.1770 C.3   123  LYS123      0.1093
     38  NZ        94.8810  133.4590   79.7910 N.3   123  LYS123     -0.1314
     39  N        103.1450  134.7050   74.7020 N.3   126  GLN126     -0.1245
     40  CA       103.7050  135.7490   75.5610 C.3   126  GLN126      0.1566
     41  C        104.6740  135.2320   76.6060 C.2   126  GLN126      0.2260
     42  O        105.1030  135.9820   77.4730 O.2   126  GLN126     -0.2867
     43  CB       102.6050  136.5650   76.2510 C.3   126  GLN126      0.0367
     44  CG       101.7900  135.8710   77.3290 C.3   126  GLN126      0.0905
     45  CD       101.0310  136.8930   78.1740 C.2   126  GLN126      0.2608
     46  OE1       99.9980  137.4240   77.7550 O.2   126  GLN126     -0.2717
     47  NE2      101.5510  137.1820   79.3630 N.am  126  GLN126     -0.0878
     48  N         90.7030  128.1060   75.2980 N.3   337  ASN337     -0.1240
     49  CA        90.0480  129.0260   74.3520 C.3   337  ASN337      0.1653
     50  C         88.4880  128.8880   74.3970 C.2   337  ASN337      0.2266
     51  O         87.9080  128.7870   75.4620 O.2   337  ASN337     -0.2867
     52  CB        90.5990  128.7900   72.9090 C.3   337  ASN337      0.1155
     53  CG        91.2090  130.0850   72.2500 C.2   337  ASN337      0.2627
     54  OD1       91.7250  130.0720   71.1130 O.2   337  ASN337     -0.2716
     55  ND2       91.1680  131.1840   72.9940 N.am  337  ASN337     -0.0877
     56  N         99.3770  142.3010   75.2280 N.3   359  GLU359     -0.1245
     57  CA        98.9490  142.6090   76.5940 C.3   359  GLU359      0.1567
     58  C         99.7260  143.6660   77.3570 C.2   359  GLU359      0.2260
     59  O         99.1840  144.2420   78.2980 O.2   359  GLU359     -0.2867
     60  CB        98.9710  141.3460   77.4360 C.3   359  GLU359      0.0388
     61  CG        97.6080  140.7560   77.6480 C.3   359  GLU359      0.1160
     62  CD        97.5380  139.9110   78.9000 C.2   359  GLU359      0.3649
     63  OE1       98.4580  140.0560   79.7360 O.co2 359  GLU359     -0.2457
     64  OE2       96.5770  139.1100   79.0380 O.co2 359  GLU359     -0.2457
     65  N         92.9410  133.4930   62.2470 N.3   397  GLY397     -0.1210
     66  CA        92.1640  133.4330   63.4750 C.3   397  GLY397      0.1956
     67  C         92.7010  134.0240   64.7870 C.2   397  GLY397      0.2612
     68  O         91.9540  134.6690   65.5220 O.2   397  GLY397     -0.2717
     69  N         93.9620  133.7220   65.1070 N.am  398  LEU398     -0.1965
     70  CA        94.6100  134.0360   66.3830 C.3   398  LEU398      0.1728
     71  C         94.6000  135.5210   66.6810 C.2   398  LEU398      0.2616
     72  O         94.4100  136.3110   65.7660 O.2   398  LEU398     -0.2715
     73  CB        96.0300  133.5300   66.3300 C.3   398  LEU398      0.0311
     74  CG        96.0910  132.4970   65.1960 C.3   398  LEU398      0.0022
     75  CD1       97.4530  132.4000   64.5220 C.3   398  LEU398      0.0001
     76  CD2       95.6320  131.1350   65.6870 C.3   398  LEU398      0.0001
     77  N         94.8170  135.9130   67.9380 N.am  399  LEU399     -0.1963
     78  CA        94.8180  137.3520   68.3830 C.3   399  LEU399      0.1728
     79  C         93.4460  138.0750   68.3430 C.2   399  LEU399      0.2616
     80  O         92.8180  138.2290   67.2950 O.2   399  LEU399     -0.2715
     81  CB        95.8430  138.2000   67.5880 C.3   399  LEU399      0.0311
     82  CG        97.2850  137.7320   67.7990 C.3   399  LEU399      0.0022
     83  CD1       98.3100  138.7050   67.2680 C.3   399  LEU399      0.0001
     84  CD2       97.5500  137.4260   69.2600 C.3   399  LEU399      0.0001
     85  N         92.9750  138.5100   69.5020 N.am  400  LYS400     -0.1964
     86  CA        91.7320  139.2660   69.5490 C.3   400  LYS400      0.1713
     87  C         91.9950  140.7630   69.4390 C.2   400  LYS400      0.2458
     88  O         92.7250  141.3390   70.2520 O.2   400  LYS400     -0.2730
     89  CB        90.9580  138.9720   70.8260 C.3   400  LYS400      0.0311
     90  CG        89.8640  139.9720   71.1080 C.3   400  LYS400      0.0038
     91  CD        88.7400  139.3760   71.9230 C.3   400  LYS400      0.0206
     92  CE        88.0990  140.4570   72.7900 C.3   400  LYS400      0.1093
     93  NZ        88.9770  140.9300   73.9170 N.3   400  LYS400     -0.1314
     94  N         91.3960  141.3970   68.4260 N.am  401  PRO401     -0.2716
     95  CA        91.5490  142.8300   68.2520 C.3   401  PRO401      0.1536
     96  C         91.0570  143.6340   69.4520 C.2   401  PRO401      0.2598
     97  O         89.9990  143.3690   70.0270 O.2   401  PRO401     -0.2715
     98  CB        90.7040  143.1190   67.0080 C.3   401  PRO401      0.0310
     99  CG        89.9370  141.8980   66.7450 C.3   401  PRO401      0.0237
    100  CD        90.6630  140.7780   67.3150 C.3   401  PRO401      0.0939
    101  N         91.8520  144.6350   69.8030 N.am  402  LYS402     -0.1978
    102  CA        91.5400  145.5240   70.8970 C.3   402  LYS402      0.1596
    103  C         90.3310  146.4120   70.5950 C.2   402  LYS402      0.2287
    104  O         89.5920  146.8030   71.5090 O.2   402  LYS402     -0.2864
    105  CB        92.7720  146.3700   71.2140 C.3   402  LYS402      0.0298
    106  CG        93.7120  145.7930   72.2770 C.3   402  LYS402      0.0038
    107  CD        93.1550  146.0580   73.6860 C.3   402  LYS402      0.0206
    108  CE        93.9670  145.3820   74.7540 C.3   402  LYS402      0.1093
    109  NZ        93.8400  143.9290   74.5240 N.3   402  LYS402     -0.1314
    110  N         84.0320  137.8010   62.5850 N.3   413  LEU413     -0.1231
    111  CA        84.8420  136.7080   63.1080 C.3   413  LEU413      0.1693
    112  C         84.9330  136.8850   64.6070 C.2   413  LEU413      0.2592
    113  O         85.2700  137.9690   65.0790 O.2   413  LEU413     -0.2718
    114  CB        86.2550  136.6970   62.5050 C.3   413  LEU413      0.0284
    115  CG        87.2630  135.7060   63.1240 C.3   413  LEU413      0.0019
    116  CD1       86.8090  134.2780   62.9220 C.3   413  LEU413      0.0001
    117  CD2       88.6320  135.8830   62.5410 C.3   413  LEU413      0.0001
    118  N         84.6050  135.8370   65.3520 N.am  414  ASN414     -0.1960
    119  CA        84.7280  135.8780   66.8040 C.3   414  ASN414      0.1819
    120  C         84.8620  134.4990   67.4730 C.2   414  ASN414      0.2621
    121  O         85.0670  133.4610   66.8280 O.2   414  ASN414     -0.2715
    122  CB        83.5290  136.6080   67.4060 C.3   414  ASN414      0.1195
    123  CG        82.2170  136.0210   66.9510 C.2   414  ASN414      0.2630
    124  OD1       81.9350  134.8540   67.2150 O.2   414  ASN414     -0.2716
    125  ND2       81.3930  136.8260   66.2910 N.am  414  ASN414     -0.0877
    126  N         84.7290  134.5210   68.7890 N.am  415  ALA415     -0.1977
    127  CA        84.8840  133.3220   69.5830 C.3   415  ALA415      0.1597
    128  C         83.9990  132.1810   69.0600 C.2   415  ALA415      0.2287
    129  O         84.4300  131.0280   68.9950 O.2   415  ALA415     -0.2864
    130  CB        84.5680  133.6240   71.0430 C.3   415  ALA415      0.0319
    131  N         85.5950  131.1780   65.3990 N.3   418  ALA418     -0.1245
    132  CA        87.0470  131.1610   65.1520 C.3   418  ALA418      0.1562
    133  C         87.6390  129.8110   64.7120 C.2   418  ALA418      0.2260
    134  O         88.5410  129.7800   63.8870 O.2   418  ALA418     -0.2867
    135  CB        87.7710  131.6530   66.3970 C.3   418  ALA418      0.0290
    136  N         89.9270  129.4610   61.4510 N.3   422  ARG422     -0.1245
    137  CA        91.2890  128.9590   61.5700 C.3   422  ARG422      0.1563
    138  C         91.4470  127.7520   60.6750 C.2   422  ARG422      0.2260
    139  O         92.4680  127.5630   60.0220 O.2   422  ARG422     -0.2867
    140  CB        91.6210  128.5930   63.0280 C.3   422  ARG422      0.0307
    141  CG        92.3560  129.6720   63.7880 C.3   422  ARG422      0.0489
    142  CD        91.4420  130.3650   64.7640 C.3   422  ARG422      0.2205
    143  NE        91.6310  129.9460   66.1520 N.pl3 422  ARG422     -0.0865
    144  CZ        91.8160  130.8140   67.1480 C.cat 422  ARG422      0.5346
    145  NH1       91.8380  132.1220   66.8610 N.pl3 422  ARG422      0.1354
    146  NH2       91.9630  130.3930   68.4130 N.pl3 422  ARG422      0.1354
@<TRIPOS>BOND
     1   139   138    2
     2   138   137    1
     3   136   137    1
     4   137   140    1
     5    65    66    1
     6   114   111    1
     7   114   115    1
     8   117   115    1
     9   110   111    1
    10   116   115    1
    11   140   141    1
    12   111   112    1
    13    66    67    1
    14   141   142    1
    15   134   133    2
    16    75    74    1
    17   112   113    2
    18   112   118   am
    19   133   132    1
    20   142   143    1
    21    67    69   am
    22    67    68    2
    23    69    70    1
    24   132   131    1
    25   132   135    1
    26    74    76    1
    27    74    73    1
    28   118   119    1
    29    72    71    2
    30   143   144    2
    31   125   123   am
    32    73    70    1
    33    70    71    1
    34    20    19    1
    35    71    77   am
    36    99    98    1
    37    99   100    1
    38   119   122    1
    39   119   120    1
    40   121   120    2
    41   145   144    1
    42   123   124    2
    43   123   122    1
    44    98    95    1
    45    19    17   ar
    46    19    18   ar
    47   144   146    1
    48    83    82    1
    49    80    79    2
    50   100    94    1
    51   120   126   am
    52    17    15   ar
    53    18    16   ar
    54    81    82    1
    55    81    78    1
    56    82    84    1
    57    77    78    1
    58    95    94    1
    59    95    96    1
    60    15    14   ar
    61    16    14   ar
    62    79    78    1
    63    79    85   am
    64    94    87   am
    65    14    13    1
    66   126   127    1
    67   129   128    2
    68   128   127    1
    69    87    86    1
    70    87    88    2
    71    13    10    1
    72    96   101   am
    73    96    97    2
    74    85    86    1
    75    86    89    1
    76   127   130    1
    77   101   102    1
    78   103   102    1
    79   103   104    2
    80    89    90    1
    81   102   105    1
    82    10    11    1
    83    10     9    1
    84    90    91    1
    85    54    53    2
    86   105   106    1
    87    11    12    2
    88    11    21   am
    89     9     3   am
    90    91    92    1
    91    21    22    1
    92    53    52    1
    93    53    55   am
    94   106   107    1
    95    28    27   ar
    96    22    25    1
    97    22    23    1
    98    92    93    1
    99    25    26    1
   100     3     2    1
   101     3     4    2
   102    52    49    1
   103    27    26    1
   104    27    29   ar
   105     2     5    1
   106     2     1    1
   107     5     6    1
   108   107   108    1
   109    23    24    2
   110    23    30   am
   111     7     6    2
   112    49    50    1
   113    49    48    1
   114    50    51    2
   115     6     8   am
   116   109   108    1
   117    30    31    1
   118    39    40    1
   119    56    57    1
   120    40    43    1
   121    40    41    1
   122    32    31    1
   123    32    33    2
   124    31    34    1
   125    43    44    1
   126    57    58    1
   127    57    60    1
   128    41    42    2
   129    34    35    1
   130    44    45    1
   131    58    59    2
   132    60    61    1
   133    61    62    1
   134    46    45    2
   135    35    36    1
   136    45    47   am
   137    62    64   ar
   138    62    63   ar
   139    36    37    1
   140    38    37    1
