@<TRIPOS>MOLECULE
tmp/5c79A00.pdb
 105 98 0 0 0
SMALL
GASTEIGER

@<TRIPOS>ATOM
      1  N         -8.1470   -2.5260  -38.4790 N.3    15  LYS15      -0.1245
      2  CA        -8.3110   -3.4200  -39.6380 C.3    15  LYS15       0.1561
      3  C         -7.3910   -4.6000  -39.4390 C.2    15  LYS15       0.2260
      4  O         -6.2010   -4.4140  -39.2500 O.2    15  LYS15      -0.2867
      5  CB        -7.9980   -2.7050  -40.9260 C.3    15  LYS15       0.0271
      6  CG        -7.9390   -3.6960  -42.1180 C.3    15  LYS15       0.0035
      7  CD        -7.6620   -3.1170  -43.4680 C.3    15  LYS15       0.0206
      8  CE        -6.2900   -2.5200  -43.6310 C.3    15  LYS15       0.1093
      9  NZ        -5.1300   -3.4150  -43.8590 N.3    15  LYS15      -0.1314
     10  N         -4.9200   -7.4910  -40.1590 N.3    17  SER17      -0.1202
     11  CA        -4.0040   -7.9900  -41.1720 C.3    17  SER17       0.2020
     12  C         -4.2560   -9.4910  -41.3720 C.2    17  SER17       0.2618
     13  O         -4.9840  -10.1270  -40.6160 O.2    17  SER17      -0.2717
     14  CB        -2.5490   -7.7760  -40.7680 C.3    17  SER17       0.2103
     15  OG        -2.1760   -8.6340  -39.7090 O.3    17  SER17      -0.2182
     16  N         -3.6120  -10.0610  -42.3730 N.am   18  ASP18      -0.1973
     17  CA        -3.6140  -11.5290  -42.5310 C.3    18  ASP18       0.1709
     18  C         -2.2510  -12.0360  -42.9640 C.2    18  ASP18       0.2293
     19  O         -1.3640  -11.2320  -43.2930 O.2    18  ASP18      -0.2864
     20  CB        -4.7140  -11.9580  -43.5250 C.3    18  ASP18       0.1436
     21  CG        -5.1200  -13.4290  -43.3770 C.2    18  ASP18       0.3671
     22  OD1       -4.9060  -14.0350  -42.2990 O.co2  18  ASP18      -0.2456
     23  OD2       -5.6820  -13.9890  -44.3360 O.co2  18  ASP18      -0.2456
     24  N          1.1080  -14.6610  -41.9970 N.3    20  ILE20      -0.1231
     25  CA         1.8650  -15.2260  -40.8850 C.3    20  ILE20       0.1692
     26  C          1.5720  -14.4500  -39.5980 C.2    20  ILE20       0.2591
     27  O          1.6000  -15.0170  -38.5020 O.2    20  ILE20      -0.2718
     28  CB         3.3810  -15.2190  -41.1950 C.3    20  ILE20       0.0266
     29  CG1        3.6750  -16.0950  -42.4040 C.3    20  ILE20       0.0019
     30  CG2        4.2170  -15.6880  -40.0010 C.3    20  ILE20       0.0020
     31  CD1        5.0180  -15.7740  -43.0160 C.3    20  ILE20       0.0001
     32  N          1.3350  -13.1490  -39.7470 N.am   21  ARG21      -0.1980
     33  CA         0.8750  -12.3050  -38.6430 C.3    21  ARG21       0.1597
     34  C         -0.5330  -11.7470  -38.9270 C.2    21  ARG21       0.2287
     35  O         -0.7360  -11.0150  -39.9100 O.2    21  ARG21      -0.2864
     36  CB         1.9090  -11.1990  -38.4260 C.3    21  ARG21       0.0334
     37  CG         1.9210  -10.5730  -37.0490 C.3    21  ARG21       0.0492
     38  CD         2.9850   -9.4810  -36.9840 C.3    21  ARG21       0.2205
     39  NE         2.7120   -8.3190  -37.8310 N.pl3  21  ARG21      -0.0865
     40  CZ         3.3110   -7.1350  -37.7100 C.cat  21  ARG21       0.5346
     41  NH1        4.2290   -6.9210  -36.7590 N.pl3  21  ARG21       0.1354
     42  NH2        2.9820   -6.1510  -38.5390 N.pl3  21  ARG21       0.1354
     43  N         -4.6980   -3.5010  -36.8440 N.3    25  GLN25      -0.1245
     44  CA        -3.9020   -2.3390  -37.2120 C.3    25  GLN25       0.1566
     45  C         -4.7980   -1.1430  -37.4000 C.2    25  GLN25       0.2260
     46  O         -5.7680   -1.1750  -38.1830 O.2    25  GLN25      -0.2867
     47  CB        -3.0670   -2.5850  -38.4780 C.3    25  GLN25       0.0367
     48  CG        -2.1470   -3.7860  -38.3180 C.3    25  GLN25       0.0905
     49  CD        -1.3010   -4.0750  -39.5290 C.2    25  GLN25       0.2608
     50  OE1       -1.7980   -4.2710  -40.6210 O.2    25  GLN25      -0.2717
     51  NE2        0.0070   -4.1510  -39.3180 N.am   25  GLN25      -0.0878
     52  N         -6.2780    2.1990  -38.6920 N.3    27  ARG27      -0.1245
     53  CA        -6.2980    2.9440  -39.9450 C.3    27  ARG27       0.1563
     54  C         -7.2590    4.1200  -39.9170 C.2    27  ARG27       0.2260
     55  O         -8.3460    4.0620  -39.3320 O.2    27  ARG27      -0.2867
     56  CB        -6.6850    2.0120  -41.0920 C.3    27  ARG27       0.0307
     57  CG        -5.7230    0.8670  -41.2950 C.3    27  ARG27       0.0489
     58  CD        -4.3950    1.3800  -41.8110 C.3    27  ARG27       0.2205
     59  NE        -3.4300    0.2950  -42.0480 N.pl3  27  ARG27      -0.0865
     60  CZ        -2.4000   -0.0410  -41.2570 C.cat  27  ARG27       0.5346
     61  NH1       -2.1490    0.5580  -40.1010 N.pl3  27  ARG27       0.1354
     62  NH2       -1.5870   -1.0360  -41.6380 N.pl3  27  ARG27       0.1354
     63  N         -7.4690    4.5350  -45.2830 N.3    39  SER39      -0.1202
     64  CA        -6.0930    4.9820  -45.4760 C.3    39  SER39       0.2020
     65  C         -5.1590    3.8240  -45.3150 C.2    39  SER39       0.2619
     66  O         -5.4330    2.8380  -44.6470 O.2    39  SER39      -0.2717
     67  CB        -5.7330    6.1280  -44.5370 C.3    39  SER39       0.2103
     68  OG        -6.5810    7.2420  -44.7890 O.3    39  SER39      -0.2182
     69  N         -4.0420    3.9030  -46.0220 N.am   40  HIS40      -0.1961
     70  CA        -2.9690    2.9450  -45.8190 C.3    40  HIS40       0.1787
     71  C         -2.1010    3.4140  -44.6420 C.2    40  HIS40       0.2620
     72  O         -2.2760    4.5090  -44.1090 O.2    40  HIS40      -0.2715
     73  CB        -2.1370    2.8090  -47.0920 C.3    40  HIS40       0.0785
     74  CG        -2.9370    2.4390  -48.2860 C.ar   40  HIS40       0.0821
     75  ND1       -3.3490    1.1550  -48.5450 N.ar   40  HIS40      -0.2267
     76  CD2       -3.4120    3.1970  -49.2970 C.ar   40  HIS40       0.1154
     77  CE1       -4.0440    1.1330  -49.6740 C.ar   40  HIS40       0.1986
     78  NE2       -4.0930    2.3590  -50.1460 N.ar   40  HIS40      -0.2212
     79  N         -1.1880    2.5600  -44.2410 N.am   41  ALA41      -0.1977
     80  CA        -0.2430    2.8850  -43.1490 C.3    41  ALA41       0.1597
     81  C          0.6520    4.0780  -43.5360 C.2    41  ALA41       0.2287
     82  O          0.8850    5.0090  -42.7530 O.2    41  ALA41      -0.2864
     83  CB         0.6080    1.6630  -42.8370 C.3    41  ALA41       0.0319
     84  N          0.2690    7.6130  -49.6040 N.3    45  ARG45      -0.1245
     85  CA        -0.2840    6.6550  -50.5720 C.3    45  ARG45       0.1563
     86  C         -1.7960    6.8990  -50.6840 C.2    45  ARG45       0.2260
     87  O         -2.4410    7.1800  -49.6800 O.2    45  ARG45      -0.2867
     88  CB         0.0090    5.2270  -50.1070 C.3    45  ARG45       0.0307
     89  CG        -0.2040    4.1380  -51.1540 C.3    45  ARG45       0.0489
     90  CD         0.2570    2.7880  -50.6180 C.3    45  ARG45       0.2205
     91  NE        -0.4670    1.6570  -51.2140 N.pl3  45  ARG45      -0.0865
     92  CZ        -0.5550    0.4300  -50.6890 C.cat  45  ARG45       0.5346
     93  NH1        0.0240    0.1320  -49.5210 N.pl3  45  ARG45       0.1354
     94  NH2       -1.2450   -0.5160  -51.3330 N.pl3  45  ARG45       0.1354
     95  N        -13.1950   -8.7750  -51.6330 N.3    74  ARG74      -0.1245
     96  CA       -12.5040   -8.8300  -50.3630 C.3    74  ARG74       0.1563
     97  C        -13.4970   -8.6630  -49.2090 C.2    74  ARG74       0.2260
     98  O        -14.4000   -7.8530  -49.3040 O.2    74  ARG74      -0.2867
     99  CB       -11.5080   -7.6640  -50.2950 C.3    74  ARG74       0.0307
    100  CG       -10.8100   -7.6030  -48.9860 C.3    74  ARG74       0.0489
    101  CD        -9.5610   -6.7930  -49.0140 C.3    74  ARG74       0.2205
    102  NE        -8.9730   -6.9090  -47.6820 N.pl3  74  ARG74      -0.0865
    103  CZ        -7.8730   -6.2880  -47.2860 C.cat  74  ARG74       0.5346
    104  NH1       -7.2090   -5.5110  -48.1020 N.pl3  74  ARG74       0.1354
    105  NH2       -7.4480   -6.4490  -46.0370 N.pl3  74  ARG74       0.1354
@<TRIPOS>BOND
     1    95    96    1
     2    94    92    1
     3    91    92    2
     4    91    90    1
     5    89    90    1
     6    89    88    1
     7    92    93    1
     8    86    85    1
     9    86    87    2
    10    85    88    1
    11    85    84    1
    12    96    99    1
    13    96    97    1
    14    99   100    1
    15    78    77   ar
    16    78    76   ar
    17    77    75   ar
    18    98    97    2
    19    76    74   ar
    20   101   100    1
    21   101   102    1
    22    75    74   ar
    23    74    73    1
    24   104   103    1
    25   102   103    2
    26   103   105    1
    27    73    70    1
    28    69    70    1
    29    69    65   am
    30    70    71    1
    31    64    65    1
    32    64    63    1
    33    64    67    1
    34    65    66    2
    35    68    67    1
    36    71    79   am
    37    71    72    2
    38    23    21   ar
    39    79    80    1
    40     9     8    1
    41     8     7    1
    42    81    80    1
    43    81    82    2
    44    20    21    1
    45    20    17    1
    46     7     6    1
    47    21    22   ar
    48    19    18    2
    49    80    83    1
    50    31    29    1
    51    18    17    1
    52    17    16    1
    53    29    28    1
    54    16    12   am
    55     6     5    1
    56    59    58    1
    57    59    60    2
    58    24    25    1
    59    58    57    1
    60    62    60    1
    61    12    11    1
    62    12    13    2
    63    57    56    1
    64    60    61    1
    65    28    25    1
    66    28    30    1
    67    11    14    1
    68    11    10    1
    69    56    53    1
    70     5     2    1
    71    25    26    1
    72    14    15    1
    73    50    49    2
    74    53    54    1
    75    53    52    1
    76    54    55    2
    77    35    34    2
    78    32    26   am
    79    32    33    1
    80     2     3    1
    81     2     1    1
    82    26    27    2
    83    49    51   am
    84    49    48    1
    85     3     4    2
    86    34    33    1
    87    33    36    1
    88    42    40    1
    89    47    48    1
    90    47    44    1
    91    36    37    1
    92    46    45    2
    93    39    40    2
    94    39    38    1
    95    40    41    1
    96    45    44    1
    97    44    43    1
    98    37    38    1
