@<TRIPOS>MOLECULE
tmp/5c7aA00.pdb
 103 103 0 0 0
SMALL
GASTEIGER

@<TRIPOS>ATOM
      1  N         -7.1280  -23.2470   -2.7520 N.3    49  LYS49      -0.1245
      2  CA        -7.9040  -23.5340   -3.9780 C.3    49  LYS49       0.1561
      3  C         -8.0760  -25.0320   -4.2410 C.2    49  LYS49       0.2260
      4  O         -7.1160  -25.7930   -4.2380 O.2    49  LYS49      -0.2867
      5  CB        -7.3310  -22.8450   -5.2170 C.3    49  LYS49       0.0271
      6  CG        -8.2660  -22.9430   -6.4250 C.3    49  LYS49       0.0035
      7  CD        -7.8150  -22.0490   -7.5750 C.3    49  LYS49       0.0206
      8  CE        -8.8730  -21.9980   -8.6690 C.3    49  LYS49       0.1093
      9  NZ        -8.3780  -21.1730   -9.8020 N.3    49  LYS49      -0.1314
     10  N        -13.9390  -24.6440   -9.6420 N.3    58  GLY58      -0.1210
     11  CA       -12.9550  -24.1870   -8.6640 C.3    58  GLY58       0.1956
     12  C        -13.5480  -23.2930   -7.5860 C.2    58  GLY58       0.2612
     13  O        -14.5750  -22.6470   -7.8060 O.2    58  GLY58      -0.2717
     14  N        -12.8850  -23.2680   -6.4280 N.am   59  LEU59      -0.1965
     15  CA       -13.3570  -22.6100   -5.2030 C.3    59  LEU59       0.1728
     16  C        -12.1610  -22.2350   -4.3080 C.2    59  LEU59       0.2617
     17  O        -11.2830  -23.0710   -4.1000 O.2    59  LEU59      -0.2715
     18  CB       -14.2760  -23.5890   -4.4670 C.3    59  LEU59       0.0311
     19  CG       -15.8050  -23.4880   -4.3760 C.3    59  LEU59       0.0022
     20  CD1      -16.5100  -22.6210   -5.4100 C.3    59  LEU59       0.0001
     21  CD2      -16.4260  -24.8680   -4.2910 C.3    59  LEU59       0.0001
     22  N        -12.1250  -21.0010   -3.7890 N.am   60  THR60      -0.1937
     23  CA       -11.0260  -20.5010   -2.9110 C.3    60  THR60       0.2028
     24  C        -11.5330  -19.7840   -1.6640 C.2    60  THR60       0.2642
     25  O        -12.7410  -19.6050   -1.4850 O.2    60  THR60      -0.2714
     26  CB       -10.1050  -19.4530   -3.5870 C.3    60  THR60       0.1808
     27  OG1      -10.8910  -18.3460   -4.0520 O.3    60  THR60      -0.2208
     28  CG2       -9.3440  -20.0250   -4.7060 C.3    60  THR60       0.0379
     29  N        -10.5880  -19.3770   -0.8120 N.am   61  ASP61      -0.1957
     30  CA       -10.8390  -18.5220    0.3550 C.3    61  ASP61       0.1840
     31  C        -11.9360  -19.0590    1.2460 C.2    61  ASP61       0.2622
     32  O        -12.9690  -18.4310    1.4650 O.2    61  ASP61      -0.2715
     33  CB       -11.0870  -17.0820   -0.0750 C.3    61  ASP61       0.1450
     34  CG       -10.0050  -16.5750   -0.9960 C.2    61  ASP61       0.3671
     35  OD1      -10.3410  -16.1830   -2.1250 O.co2  61  ASP61      -0.2456
     36  OD2       -8.8170  -16.5670   -0.5950 O.co2  61  ASP61      -0.2456
     37  N        -11.6670  -20.2540    1.7520 N.am   62  TRP62      -0.1960
     38  CA       -12.5750  -21.0170    2.5850 C.3    62  TRP62       0.1771
     39  C        -12.5990  -20.4040    3.9610 C.2    62  TRP62       0.2619
     40  O        -11.5720  -20.3500    4.6230 O.2    62  TRP62      -0.2715
     41  CB       -12.1030  -22.4720    2.6450 C.3    62  TRP62       0.0590
     42  CG       -12.3720  -23.1840    1.3700 C.ar   62  TRP62       0.0006
     43  CD1      -11.5480  -23.2720    0.2820 C.ar   62  TRP62       0.0946
     44  CD2      -13.5640  -23.9200    1.0380 C.ar   62  TRP62       0.0152
     45  NE1      -12.1520  -24.0210   -0.7150 N.ar   62  TRP62      -0.2442
     46  CE2      -13.3880  -24.4290   -0.2740 C.ar   62  TRP62       0.0810
     47  CE3      -14.7600  -24.1960    1.7250 C.ar   62  TRP62       0.0012
     48  CZ2      -14.3640  -25.1990   -0.9130 C.ar   62  TRP62       0.0191
     49  CZ3      -15.7250  -24.9550    1.0990 C.ar   62  TRP62       0.0001
     50  CH2      -15.5180  -25.4520   -0.2230 C.ar   62  TRP62       0.0015
     51  N        -13.7820  -19.9470    4.3640 N.am   63  LYS63      -0.1977
     52  CA       -14.0780  -19.4990    5.7210 C.3    63  LYS63       0.1596
     53  C        -14.5020  -20.7520    6.5180 C.2    63  LYS63       0.2287
     54  O        -15.0110  -21.7150    5.9080 O.2    63  LYS63      -0.2864
     55  CB       -15.1570  -18.3990    5.6960 C.3    63  LYS63       0.0298
     56  CG       -14.7190  -17.1460    4.9220 C.3    63  LYS63       0.0038
     57  CD       -15.6070  -15.9030    5.1030 C.3    63  LYS63       0.0206
     58  CE       -16.7560  -15.7930    4.0850 C.3    63  LYS63       0.1093
     59  NZ       -16.3990  -16.0360    2.6350 N.3    63  LYS63      -0.1314
     60  N        -18.0380  -22.2340    5.8850 N.3    66  GLU66      -0.1245
     61  CA       -18.4010  -22.6330    4.5280 C.3    66  GLU66       0.1567
     62  C        -18.2700  -24.1410    4.3870 C.2    66  GLU66       0.2260
     63  O        -17.1920  -24.6940    4.5640 O.2    66  GLU66      -0.2867
     64  CB       -17.5980  -21.8590    3.4690 C.3    66  GLU66       0.0388
     65  CG       -18.0700  -20.4180    3.3240 C.3    66  GLU66       0.1160
     66  CD       -17.1030  -19.4980    2.5910 C.2    66  GLU66       0.3649
     67  OE1      -15.9220  -19.8560    2.3670 O.co2  66  GLU66      -0.2457
     68  OE2      -17.5290  -18.3830    2.2270 O.co2  66  GLU66      -0.2457
     69  N        -21.1530  -25.2450   -0.9130 N.3    71  GLN71      -0.1245
     70  CA       -20.4320  -24.4040   -1.8600 C.3    71  GLN71       0.1566
     71  C        -20.3910  -25.0460   -3.2590 C.2    71  GLN71       0.2260
     72  O        -20.4720  -24.3450   -4.2840 O.2    71  GLN71      -0.2867
     73  CB       -19.0250  -24.0660   -1.3450 C.3    71  GLN71       0.0367
     74  CG       -18.9900  -23.1850   -0.0960 C.3    71  GLN71       0.0905
     75  CD       -19.5390  -21.7830   -0.3250 C.2    71  GLN71       0.2608
     76  OE1      -19.0610  -21.0380   -1.1820 O.2    71  GLN71      -0.2717
     77  NE2      -20.5470  -21.4210    0.4440 N.am   71  GLN71      -0.0878
     78  N        -22.1160  -22.8650   -6.4170 N.3    75  TRP75      -0.1227
     79  CA       -21.3660  -22.3650   -7.5630 C.3    75  TRP75       0.1737
     80  C        -21.3940  -23.2830   -8.7830 C.2    75  TRP75       0.2595
     81  O        -21.2130  -22.8220   -9.9100 O.2    75  TRP75      -0.2718
     82  CB       -19.9220  -22.0190   -7.1410 C.3    75  TRP75       0.0564
     83  CG       -19.8990  -20.8990   -6.1440 C.ar   75  TRP75       0.0003
     84  CD1      -19.7950  -21.0170   -4.7800 C.ar   75  TRP75       0.0946
     85  CD2      -19.9830  -19.4890   -6.4190 C.ar   75  TRP75       0.0152
     86  NE1      -19.8080  -19.7750   -4.1950 N.ar   75  TRP75      -0.2442
     87  CE2      -19.9220  -18.8180   -5.1690 C.ar   75  TRP75       0.0810
     88  CE3      -20.1030  -18.7260   -7.5970 C.ar   75  TRP75       0.0012
     89  CZ2      -19.9760  -17.4250   -5.0600 C.ar   75  TRP75       0.0191
     90  CZ3      -20.1570  -17.3380   -7.4910 C.ar   75  TRP75       0.0001
     91  CH2      -20.0940  -16.7020   -6.2330 C.ar   75  TRP75       0.0015
     92  N        -21.6210  -24.5830   -8.5530 N.am   76  TYR76      -0.1976
     93  CA       -21.6100  -25.5830   -9.6360 C.3    76  TYR76       0.1639
     94  C        -22.8600  -26.4480   -9.6300 C.2    76  TYR76       0.2290
     95  O        -22.7610  -27.6600   -9.5220 O.2    76  TYR76      -0.2864
     96  CB       -20.2700  -26.3630   -9.6530 C.3    76  TYR76       0.0560
     97  CG       -19.1500  -25.3660   -9.7100 C.ar   76  TYR76      -0.0198
     98  CD1      -18.4300  -25.0390   -8.5640 C.ar   76  TYR76      -0.0009
     99  CD2      -18.8080  -24.7360  -10.9260 C.ar   76  TYR76      -0.0009
    100  CE1      -17.3940  -24.1090   -8.6210 C.ar   76  TYR76       0.0417
    101  CE2      -17.7750  -23.8050  -10.9990 C.ar   76  TYR76       0.0417
    102  CZ       -17.0670  -23.4920   -9.8440 C.ar   76  TYR76       0.1957
    103  OH       -16.0330  -22.5670   -9.8970 O.3    76  TYR76      -0.2866
@<TRIPOS>BOND
     1   101    99   ar
     2   101   102   ar
     3    99    97   ar
     4    81    80    2
     5   103   102    1
     6   102   100   ar
     7     9     8    1
     8    97    96    1
     9    97    98   ar
    10    96    93    1
    11    10    11    1
    12    93    94    1
    13    93    92    1
    14    94    95    2
    15    80    92   am
    16    80    79    1
    17     8     7    1
    18    11    12    1
    19   100    98   ar
    20    13    12    2
    21    88    90   ar
    22    88    85   ar
    23    12    14   am
    24     7     6    1
    25    79    82    1
    26    79    78    1
    27    90    91   ar
    28    82    83    1
    29    14    15    1
    30     6     5    1
    31    85    83   ar
    32    85    87   ar
    33    91    89   ar
    34    83    84   ar
    35    20    19    1
    36     5     2    1
    37    15    18    1
    38    15    16    1
    39    87    89   ar
    40    87    86   ar
    41    84    86   ar
    42    28    26    1
    43    18    19    1
    44    19    21    1
    45    16    17    2
    46    16    22   am
    47    72    71    2
    48     3     4    2
    49     3     2    1
    50    27    26    1
    51     2     1    1
    52    22    23    1
    53    26    23    1
    54    71    70    1
    55    23    24    1
    56    35    34   ar
    57    70    73    1
    58    70    69    1
    59    24    25    2
    60    24    29   am
    61    73    74    1
    62    76    75    2
    63    34    36   ar
    64    34    33    1
    65    48    46   ar
    66    48    50   ar
    67    29    30    1
    68    45    46   ar
    69    45    43   ar
    70    75    74    1
    71    75    77   am
    72    46    44   ar
    73    50    49   ar
    74    33    30    1
    75    43    42   ar
    76    30    31    1
    77    44    42   ar
    78    44    47   ar
    79    49    47   ar
    80    31    32    2
    81    31    37   am
    82    42    41    1
    83    37    38    1
    84    68    66   ar
    85    67    66   ar
    86    38    41    1
    87    38    39    1
    88    66    65    1
    89    59    58    1
    90    65    64    1
    91    64    61    1
    92    39    51   am
    93    39    40    2
    94    58    57    1
    95    51    52    1
    96    62    61    1
    97    62    63    2
    98    61    60    1
    99    56    57    1
   100    56    55    1
   101    55    52    1
   102    52    53    1
   103    54    53    2
