@<TRIPOS>MOLECULE
tmp/5c7bA00.pdb
 103 103 0 0 0
SMALL
GASTEIGER

@<TRIPOS>ATOM
      1  N         -7.0300  -23.3660   -2.7990 N.3    49  LYS49      -0.1245
      2  CA        -7.6590  -23.6720   -4.0770 C.3    49  LYS49       0.1561
      3  C         -7.9460  -25.1800   -4.2170 C.2    49  LYS49       0.2260
      4  O         -7.0420  -26.0240   -4.2430 O.2    49  LYS49      -0.2867
      5  CB        -6.8040  -23.1490   -5.2430 C.3    49  LYS49       0.0271
      6  CG        -7.3790  -21.9590   -6.0210 C.3    49  LYS49       0.0035
      7  CD        -8.3600  -22.4160   -7.1410 C.3    49  LYS49       0.0206
      8  CE        -8.8650  -21.2690   -8.0530 C.3    49  LYS49       0.1093
      9  NZ        -7.7250  -20.4140   -8.5740 N.3    49  LYS49      -0.1314
     10  N        -13.8500  -24.6900   -9.6890 N.3    58  GLY58      -0.1210
     11  CA       -12.8800  -24.3100   -8.6850 C.3    58  GLY58       0.1956
     12  C        -13.4190  -23.3670   -7.6210 C.2    58  GLY58       0.2612
     13  O        -14.2340  -22.4680   -7.8900 O.2    58  GLY58      -0.2717
     14  N        -12.9440  -23.5890   -6.4000 N.am   59  LEU59      -0.1965
     15  CA       -13.3120  -22.7990   -5.2350 C.3    59  LEU59       0.1728
     16  C        -12.0960  -22.4790   -4.3510 C.2    59  LEU59       0.2617
     17  O        -11.1530  -23.2750   -4.2400 O.2    59  LEU59      -0.2715
     18  CB       -14.3860  -23.5430   -4.4270 C.3    59  LEU59       0.0311
     19  CG       -15.7540  -23.7680   -5.0510 C.3    59  LEU59       0.0022
     20  CD1      -16.5100  -24.7740   -4.2210 C.3    59  LEU59       0.0001
     21  CD2      -16.5200  -22.4580   -5.1660 C.3    59  LEU59       0.0001
     22  N        -12.1430  -21.3010   -3.7290 N.am   60  THR60      -0.1937
     23  CA       -11.0110  -20.7470   -2.9910 C.3    60  THR60       0.2028
     24  C        -11.4580  -19.9600   -1.7490 C.2    60  THR60       0.2642
     25  O        -12.6400  -19.6500   -1.6080 O.2    60  THR60      -0.2714
     26  CB       -10.1400  -19.8580   -3.9090 C.3    60  THR60       0.1808
     27  OG1       -8.8610  -19.7130   -3.2990 O.3    60  THR60      -0.2208
     28  CG2      -10.7600  -18.4650   -4.1410 C.3    60  THR60       0.0379
     29  N        -10.5140  -19.6430   -0.8610 N.am   61  ASP61      -0.1957
     30  CA       -10.7520  -18.7720    0.3060 C.3    61  ASP61       0.1840
     31  C        -11.8230  -19.2940    1.2490 C.2    61  ASP61       0.2622
     32  O        -12.8000  -18.5990    1.5720 O.2    61  ASP61      -0.2715
     33  CB       -11.0380  -17.3290   -0.1080 C.3    61  ASP61       0.1450
     34  CG        -9.9410  -16.7380   -0.9440 C.2    61  ASP61       0.3671
     35  OD1      -10.2660  -15.8930   -1.8020 O.co2  61  ASP61      -0.2456
     36  OD2       -8.7570  -17.1070   -0.7550 O.co2  61  ASP61      -0.2456
     37  N        -11.6040  -20.5370    1.6750 N.am   62  TRP62      -0.1960
     38  CA       -12.4640  -21.2710    2.5970 C.3    62  TRP62       0.1771
     39  C        -12.5810  -20.6520    3.9900 C.2    62  TRP62       0.2619
     40  O        -11.6100  -20.6360    4.7400 O.2    62  TRP62      -0.2715
     41  CB       -11.9390  -22.6960    2.6820 C.3    62  TRP62       0.0590
     42  CG       -12.1940  -23.3670    1.4060 C.ar   62  TRP62       0.0006
     43  CD1      -11.3490  -23.4520    0.3290 C.ar   62  TRP62       0.0946
     44  CD2      -13.3920  -24.0690    1.0370 C.ar   62  TRP62       0.0152
     45  NE1      -11.9480  -24.1630   -0.6830 N.ar   62  TRP62      -0.2442
     46  CE2      -13.2010  -24.5530   -0.2760 C.ar   62  TRP62       0.0810
     47  CE3      -14.6160  -24.3360    1.6970 C.ar   62  TRP62       0.0012
     48  CZ2      -14.1860  -25.2890   -0.9440 C.ar   62  TRP62       0.0191
     49  CZ3      -15.5810  -25.0610    1.0350 C.ar   62  TRP62       0.0001
     50  CH2      -15.3630  -25.5280   -0.2690 C.ar   62  TRP62       0.0015
     51  N        -13.7740  -20.1460    4.3220 N.am   63  LYS63      -0.1977
     52  CA       -14.1030  -19.6460    5.6740 C.3    63  LYS63       0.1596
     53  C        -14.5200  -20.8370    6.5520 C.2    63  LYS63       0.2287
     54  O        -14.9750  -21.8540    6.0200 O.2    63  LYS63      -0.2864
     55  CB       -15.1590  -18.5330    5.6150 C.3    63  LYS63       0.0298
     56  CG       -14.7680  -17.3500    4.7160 C.3    63  LYS63       0.0038
     57  CD       -15.1400  -15.9580    5.2640 C.3    63  LYS63       0.0206
     58  CE       -16.5640  -15.4850    4.9310 C.3    63  LYS63       0.1093
     59  NZ       -16.9880  -15.6930    3.5060 N.3    63  LYS63      -0.1314
     60  N        -18.0520  -22.4010    6.0490 N.3    66  GLU66      -0.1245
     61  CA       -18.4440  -22.8460    4.6980 C.3    66  GLU66       0.1567
     62  C        -18.3160  -24.3640    4.5660 C.2    66  GLU66       0.2260
     63  O        -17.2790  -24.9210    4.9170 O.2    66  GLU66      -0.2867
     64  CB       -17.6430  -22.1050    3.6240 C.3    66  GLU66       0.0388
     65  CG       -18.1030  -20.6640    3.4130 C.3    66  GLU66       0.1160
     66  CD       -17.1080  -19.7620    2.6630 C.2    66  GLU66       0.3649
     67  OE1      -15.9930  -20.1950    2.2960 O.co2  66  GLU66      -0.2457
     68  OE2      -17.4300  -18.5800    2.4240 O.co2  66  GLU66      -0.2457
     69  N        -20.9600  -25.2480   -0.8440 N.3    71  GLN71      -0.1245
     70  CA       -20.2490  -24.4130   -1.8080 C.3    71  GLN71       0.1566
     71  C        -20.2010  -24.9990   -3.2540 C.2    71  GLN71       0.2260
     72  O        -20.2880  -24.2740   -4.2530 O.2    71  GLN71      -0.2867
     73  CB       -18.8600  -24.0810   -1.2750 C.3    71  GLN71       0.0367
     74  CG       -18.8670  -23.1750   -0.0530 C.3    71  GLN71       0.0905
     75  CD       -19.5230  -21.8090   -0.2720 C.2    71  GLN71       0.2608
     76  OE1      -19.1560  -21.0320   -1.1650 O.2    71  GLN71      -0.2717
     77  NE2      -20.5080  -21.5160    0.5600 N.am   71  GLN71      -0.0878
     78  N        -21.9530  -22.9080   -6.4840 N.3    75  TRP75      -0.1227
     79  CA       -21.2390  -22.3620   -7.5950 C.3    75  TRP75       0.1737
     80  C        -21.3010  -23.2770   -8.7960 C.2    75  TRP75       0.2595
     81  O        -21.2120  -22.8090   -9.9270 O.2    75  TRP75      -0.2718
     82  CB       -19.7980  -22.0410   -7.1630 C.3    75  TRP75       0.0564
     83  CG       -19.7880  -20.9580   -6.1490 C.ar   75  TRP75       0.0003
     84  CD1      -19.6370  -21.1020   -4.8030 C.ar   75  TRP75       0.0946
     85  CD2      -19.9380  -19.5460   -6.3830 C.ar   75  TRP75       0.0152
     86  NE1      -19.6810  -19.8790   -4.1850 N.ar   75  TRP75      -0.2442
     87  CE2      -19.8660  -18.9050   -5.1290 C.ar   75  TRP75       0.0810
     88  CE3      -20.1280  -18.7600   -7.5340 C.ar   75  TRP75       0.0012
     89  CZ2      -19.9740  -17.5130   -4.9850 C.ar   75  TRP75       0.0191
     90  CZ3      -20.2360  -17.3570   -7.3830 C.ar   75  TRP75       0.0001
     91  CH2      -20.1580  -16.7630   -6.1140 C.ar   75  TRP75       0.0015
     92  N        -21.4530  -24.5830   -8.5550 N.am   76  TYR76      -0.1976
     93  CA       -21.4560  -25.5910   -9.6310 C.3    76  TYR76       0.1639
     94  C        -22.7430  -26.4210   -9.6830 C.2    76  TYR76       0.2290
     95  O        -22.7030  -27.6630   -9.6500 O.2    76  TYR76      -0.2864
     96  CB       -20.1390  -26.3820   -9.6240 C.3    76  TYR76       0.0560
     97  CG       -19.0360  -25.3630   -9.6450 C.ar   76  TYR76      -0.0198
     98  CD1      -18.2650  -25.1110   -8.5120 C.ar   76  TYR76      -0.0009
     99  CD2      -18.7640  -24.6400  -10.8070 C.ar   76  TYR76      -0.0009
    100  CE1      -17.2470  -24.1630   -8.5420 C.ar   76  TYR76       0.0417
    101  CE2      -17.7560  -23.6930  -10.8550 C.ar   76  TYR76       0.0417
    102  CZ       -16.9900  -23.4480   -9.7210 C.ar   76  TYR76       0.1957
    103  OH       -15.9780  -22.4950   -9.7720 O.3    76  TYR76      -0.2866
@<TRIPOS>BOND
     1   101    99   ar
     2   101   102   ar
     3    99    97   ar
     4    81    80    2
     5   103   102    1
     6   102   100   ar
     7    10    11    1
     8    94    95    2
     9    94    93    1
    10    97    96    1
    11    97    98   ar
    12    93    96    1
    13    93    92    1
    14    80    92   am
    15    80    79    1
    16    11    12    1
    17     9     8    1
    18   100    98   ar
    19     8     7    1
    20    13    12    2
    21    12    14   am
    22    79    82    1
    23    79    78    1
    24    88    90   ar
    25    88    85   ar
    26    90    91   ar
    27    82    83    1
    28     7     6    1
    29    14    15    1
    30    85    83   ar
    31    85    87   ar
    32    83    84   ar
    33    91    89   ar
    34     6     5    1
    35     5     2    1
    36    15    18    1
    37    15    16    1
    38    21    19    1
    39    87    89   ar
    40    87    86   ar
    41    19    18    1
    42    19    20    1
    43    84    86   ar
    44    16    17    2
    45    16    22   am
    46    72    71    2
    47     4     3    2
    48     3     2    1
    49    28    26    1
    50     2     1    1
    51    26    27    1
    52    26    23    1
    53    22    23    1
    54    71    70    1
    55    23    24    1
    56    70    73    1
    57    70    69    1
    58    35    34   ar
    59    24    25    2
    60    24    29   am
    61    73    74    1
    62    76    75    2
    63    34    36   ar
    64    34    33    1
    65    48    46   ar
    66    48    50   ar
    67    29    30    1
    68    45    46   ar
    69    45    43   ar
    70    46    44   ar
    71    75    74    1
    72    75    77   am
    73    50    49   ar
    74    33    30    1
    75    30    31    1
    76    43    42   ar
    77    49    47   ar
    78    44    42   ar
    79    44    47   ar
    80    31    32    2
    81    31    37   am
    82    42    41    1
    83    37    38    1
    84    67    66   ar
    85    68    66   ar
    86    38    41    1
    87    38    39    1
    88    66    65    1
    89    65    64    1
    90    59    58    1
    91    64    61    1
    92    39    51   am
    93    39    40    2
    94    51    52    1
    95    62    61    1
    96    62    63    2
    97    61    60    1
    98    56    57    1
    99    56    55    1
   100    58    57    1
   101    55    52    1
   102    52    53    1
   103    54    53    2
