@<TRIPOS>MOLECULE
tmp/5c7cA00.pdb
 111 110 0 0 0
SMALL
GASTEIGER

@<TRIPOS>ATOM
      1  N        -13.0290  -18.0620  -17.3800 N.3     1  MET1       -0.1245
      2  CA       -12.4890  -18.9400  -16.2960 C.3     1  MET1        0.1570
      3  C        -12.4850  -20.4290  -16.6860 C.2     1  MET1        0.2261
      4  O        -12.0940  -21.2780  -15.8680 O.2     1  MET1       -0.2867
      5  CB       -13.2860  -18.7410  -14.9930 C.3     1  MET1        0.0387
      6  CG       -14.7070  -19.2940  -15.0590 C.3     1  MET1        0.0595
      7  SD       -15.8920  -18.7530  -13.8210 S.3     1  MET1       -0.1393
      8  CE       -15.4360  -17.0180  -13.6640 C.3     1  MET1        0.0692
      9  N         -6.9940  -23.2130   -2.8540 N.3    50  LYS50      -0.1245
     10  CA        -7.6950  -23.4780   -4.1270 C.3    50  LYS50       0.1561
     11  C         -7.8460  -24.9720   -4.3500 C.2    50  LYS50       0.2260
     12  O         -6.8700  -25.7200   -4.3160 O.2    50  LYS50      -0.2867
     13  CB        -6.9790  -22.8300   -5.3270 C.3    50  LYS50       0.0271
     14  CG        -7.7090  -22.9430   -6.6670 C.3    50  LYS50       0.0035
     15  CD        -7.0640  -22.0990   -7.7650 C.3    50  LYS50       0.0206
     16  CE        -6.9540  -20.6290   -7.3630 C.3    50  LYS50       0.1093
     17  NZ        -6.5290  -19.7250   -8.4770 N.3    50  LYS50      -0.1314
     18  N        -13.5940  -24.6200   -9.8200 N.3    59  GLY59      -0.1210
     19  CA       -12.6390  -24.1500   -8.8340 C.3    59  GLY59       0.1956
     20  C        -13.2690  -23.3170   -7.7350 C.2    59  GLY59       0.2612
     21  O        -14.2130  -22.5420   -7.9720 O.2    59  GLY59      -0.2717
     22  N        -12.7300  -23.4880   -6.5320 N.am   60  LEU60      -0.1965
     23  CA       -13.1350  -22.7510   -5.3430 C.3    60  LEU60       0.1728
     24  C        -11.9100  -22.3660   -4.5380 C.2    60  LEU60       0.2617
     25  O        -10.9510  -23.1440   -4.4600 O.2    60  LEU60      -0.2715
     26  CB       -14.0630  -23.6110   -4.4890 C.3    60  LEU60       0.0311
     27  CG       -15.5970  -23.4590   -4.5320 C.3    60  LEU60       0.0022
     28  CD1      -16.1860  -22.5530   -5.6030 C.3    60  LEU60       0.0001
     29  CD2      -16.2360  -24.8270   -4.5500 C.3    60  LEU60       0.0001
     30  N        -11.9470  -21.1710   -3.9450 N.am   61  THR61      -0.1937
     31  CA       -10.8140  -20.6100   -3.2170 C.3    61  THR61       0.2028
     32  C        -11.2680  -19.7760   -2.0010 C.2    61  THR61       0.2642
     33  O        -12.4650  -19.5120   -1.8440 O.2    61  THR61      -0.2714
     34  CB        -9.8890  -19.8100   -4.1750 C.3    61  THR61       0.1808
     35  OG1       -8.5770  -19.7550   -3.6160 O.3    61  THR61      -0.2208
     36  CG2      -10.4150  -18.3720   -4.4720 C.3    61  THR61       0.0379
     37  N        -10.3110  -19.3730   -1.1580 N.am   62  ASP62      -0.1957
     38  CA       -10.5280  -18.4770    0.0040 C.3    62  ASP62       0.1840
     39  C        -11.6210  -18.9610    0.9450 C.2    62  ASP62       0.2622
     40  O        -12.6150  -18.2720    1.1810 O.2    62  ASP62      -0.2715
     41  CB       -10.7870  -17.0100   -0.4040 C.3    62  ASP62       0.1450
     42  CG        -9.7800  -16.4730   -1.4190 C.2    62  ASP62       0.3671
     43  OD1      -10.1250  -15.4730   -2.0840 O.co2  62  ASP62      -0.2456
     44  OD2       -8.6590  -17.0240   -1.5670 O.co2  62  ASP62      -0.2456
     45  N        -11.4170  -20.1610    1.4800 N.am   63  TRP63      -0.1960
     46  CA       -12.3810  -20.8160    2.3600 C.3    63  TRP63       0.1771
     47  C        -12.4360  -20.1560    3.7330 C.2    63  TRP63       0.2619
     48  O        -11.4280  -20.0650    4.4290 O.2    63  TRP63      -0.2715
     49  CB       -12.0480  -22.3010    2.4910 C.3    63  TRP63       0.0590
     50  CG       -12.2580  -23.0730    1.2110 C.ar   63  TRP63       0.0006
     51  CD1      -11.3760  -23.2060    0.1830 C.ar   63  TRP63       0.0946
     52  CD2      -13.4340  -23.8150    0.8360 C.ar   63  TRP63       0.0152
     53  NE1      -11.9260  -23.9880   -0.8180 N.ar   63  TRP63      -0.2442
     54  CE2      -13.1870  -24.3730   -0.4380 C.ar   63  TRP63       0.0810
     55  CE3      -14.6710  -24.0600    1.4580 C.ar   63  TRP63       0.0012
     56  CZ2      -14.1340  -25.1650   -1.1090 C.ar   63  TRP63       0.0191
     57  CZ3      -15.6060  -24.8390    0.8010 C.ar   63  TRP63       0.0001
     58  CH2      -15.3360  -25.3860   -0.4730 C.ar   63  TRP63       0.0015
     59  N        -13.6320  -19.7030    4.0970 N.am   64  LYS64      -0.1977
     60  CA       -13.9290  -19.2040    5.4320 C.3    64  LYS64       0.1596
     61  C        -14.3620  -20.4150    6.2960 C.2    64  LYS64       0.2287
     62  O        -14.7760  -21.4540    5.7350 O.2    64  LYS64      -0.2864
     63  CB       -14.9940  -18.0990    5.3680 C.3    64  LYS64       0.0298
     64  CG       -14.5250  -16.8440    4.6330 C.3    64  LYS64       0.0038
     65  CD       -15.4500  -15.6410    4.8290 C.3    64  LYS64       0.0206
     66  CE       -16.6710  -15.6640    3.9100 C.3    64  LYS64       0.1093
     67  NZ       -16.3490  -15.7100    2.4410 N.3    64  LYS64      -0.1314
     68  N        -17.9280  -21.8030    5.5810 N.3    67  GLU67      -0.1245
     69  CA       -18.2330  -22.2370    4.2080 C.3    67  GLU67       0.1567
     70  C        -18.0750  -23.7480    4.0520 C.2    67  GLU67       0.2260
     71  O        -16.9760  -24.2730    4.2050 O.2    67  GLU67      -0.2867
     72  CB       -17.3840  -21.4730    3.1820 C.3    67  GLU67       0.0388
     73  CG       -17.7150  -19.9890    3.1130 C.3    67  GLU67       0.1160
     74  CD       -16.7930  -19.1830    2.2130 C.2    67  GLU67       0.3649
     75  OE1      -15.5830  -19.5120    2.0720 O.co2  67  GLU67      -0.2457
     76  OE2      -17.2910  -18.1960    1.6340 O.co2  67  GLU67      -0.2457
     77  N        -20.8980  -25.0400   -1.1070 N.3    72  GLN72      -0.1245
     78  CA       -20.1710  -24.2330   -2.0830 C.3    72  GLN72       0.1566
     79  C        -20.2110  -24.8590   -3.4730 C.2    72  GLN72       0.2260
     80  O        -20.3620  -24.1490   -4.4740 O.2    72  GLN72      -0.2867
     81  CB       -18.7340  -23.9630   -1.6140 C.3    72  GLN72       0.0367
     82  CG       -18.6440  -23.1110   -0.3470 C.3    72  GLN72       0.0905
     83  CD       -19.2200  -21.7210   -0.5190 C.2    72  GLN72       0.2608
     84  OE1      -18.8120  -20.9650   -1.4080 O.2    72  GLN72      -0.2717
     85  NE2      -20.1760  -21.3780    0.3360 N.am   72  GLN72      -0.0878
     86  N        -21.8370  -22.6460   -6.5800 N.3    76  TRP76      -0.1227
     87  CA       -21.1180  -22.1850   -7.7590 C.3    76  TRP76       0.1737
     88  C        -21.1900  -23.1290   -8.9720 C.2    76  TRP76       0.2595
     89  O        -21.0870  -22.6600  -10.1080 O.2    76  TRP76      -0.2718
     90  CB       -19.6600  -21.8220   -7.3940 C.3    76  TRP76       0.0564
     91  CG       -19.6300  -20.7100   -6.4070 C.ar   76  TRP76       0.0003
     92  CD1      -19.4770  -20.8190   -5.0430 C.ar   76  TRP76       0.0946
     93  CD2      -19.7580  -19.3120   -6.6900 C.ar   76  TRP76       0.0152
     94  NE1      -19.5020  -19.5630   -4.4640 N.ar   76  TRP76      -0.2442
     95  CE2      -19.6730  -18.6230   -5.4500 C.ar   76  TRP76       0.0810
     96  CE3      -19.9360  -18.5710   -7.8730 C.ar   76  TRP76       0.0012
     97  CZ2      -19.7600  -17.2290   -5.3560 C.ar   76  TRP76       0.0191
     98  CZ3      -20.0230  -17.1820   -7.7820 C.ar   76  TRP76       0.0001
     99  CH2      -19.9340  -16.5240   -6.5280 C.ar   76  TRP76       0.0015
    100  N        -21.3630  -24.4380   -8.7230 N.am   77  TYR77      -0.1976
    101  CA       -21.4130  -25.4640   -9.7960 C.3    77  TYR77       0.1639
    102  C        -22.6710  -26.3260   -9.7590 C.2    77  TYR77       0.2290
    103  O        -22.5770  -27.5430   -9.6480 O.2    77  TYR77      -0.2864
    104  CB       -20.0940  -26.2820   -9.8330 C.3    77  TYR77       0.0560
    105  CG       -18.9630  -25.2920   -9.8080 C.ar   77  TYR77      -0.0198
    106  CD1      -18.1760  -25.1080   -8.6540 C.ar   77  TYR77      -0.0009
    107  CD2      -18.6770  -24.5210  -10.9470 C.ar   77  TYR77      -0.0009
    108  CE1      -17.1370  -24.1820   -8.6520 C.ar   77  TYR77       0.0417
    109  CE2      -17.6490  -23.5990  -10.9580 C.ar   77  TYR77       0.0417
    110  CZ       -16.8810  -23.4290   -9.8130 C.ar   77  TYR77       0.1957
    111  OH       -15.8610  -22.5000   -9.8590 O.3    77  TYR77      -0.2866
@<TRIPOS>BOND
     1     1     2    1
     2     3     2    1
     3     3     4    2
     4     2     5    1
     5     6     5    1
     6     6     7    1
     7     7     8    1
     8   109   107   ar
     9   109   110   ar
    10   107   105   ar
    11    89    88    2
    12   111   110    1
    13   104   105    1
    14   104   101    1
    15    18    19    1
    16   110   108   ar
    17   105   106   ar
    18   101   102    1
    19   101   100    1
    20   102   103    2
    21    88   100   am
    22    88    87    1
    23    19    20    1
    24   106   108   ar
    25    17    16    1
    26    21    20    2
    27    96    98   ar
    28    96    93   ar
    29    98    99   ar
    30    15    16    1
    31    15    14    1
    32    87    90    1
    33    87    86    1
    34    20    22   am
    35    90    91    1
    36    93    91   ar
    37    93    95   ar
    38    14    13    1
    39    22    23    1
    40    99    97   ar
    41    91    92   ar
    42    28    27    1
    43    95    97   ar
    44    95    94   ar
    45    23    24    1
    46    23    26    1
    47    13    10    1
    48    92    94   ar
    49    29    27    1
    50    24    25    2
    51    24    30   am
    52    27    26    1
    53    80    79    2
    54    36    34    1
    55    11    12    2
    56    11    10    1
    57    34    35    1
    58    34    31    1
    59    10     9    1
    60    30    31    1
    61    79    78    1
    62    31    32    1
    63    43    42   ar
    64    78    81    1
    65    78    77    1
    66    32    33    2
    67    32    37   am
    68    81    82    1
    69    44    42   ar
    70    42    41    1
    71    84    83    2
    72    37    38    1
    73    56    58   ar
    74    56    54   ar
    75    53    54   ar
    76    53    51   ar
    77    83    82    1
    78    83    85   am
    79    58    57   ar
    80    54    52   ar
    81    41    38    1
    82    38    39    1
    83    51    50   ar
    84    57    55   ar
    85    52    50   ar
    86    52    55   ar
    87    39    40    2
    88    39    45   am
    89    50    49    1
    90    45    46    1
    91    76    74   ar
    92    75    74   ar
    93    74    73    1
    94    46    49    1
    95    46    47    1
    96    67    66    1
    97    73    72    1
    98    72    69    1
    99    47    59   am
   100    47    48    2
   101    66    65    1
   102    70    71    2
   103    70    69    1
   104    59    60    1
   105    69    68    1
   106    64    65    1
   107    64    63    1
   108    63    60    1
   109    60    61    1
   110    62    61    2
