@<TRIPOS>MOLECULE
tmp/5c7dA00.pdb
 103 103 0 0 0
SMALL
GASTEIGER

@<TRIPOS>ATOM
      1  N         -7.1020  -23.3190   -2.7430 N.3    49  LYS49      -0.1245
      2  CA        -7.8530  -23.5500   -3.9950 C.3    49  LYS49       0.1561
      3  C         -8.0650  -25.0380   -4.2800 C.2    49  LYS49       0.2260
      4  O         -7.1220  -25.8170   -4.3090 O.2    49  LYS49      -0.2867
      5  CB        -7.1900  -22.8610   -5.1930 C.3    49  LYS49       0.0271
      6  CG        -7.9350  -23.0740   -6.5060 C.3    49  LYS49       0.0035
      7  CD        -7.4810  -22.1140   -7.5900 C.3    49  LYS49       0.0206
      8  CE        -8.3010  -22.3610   -8.8480 C.3    49  LYS49       0.1093
      9  NZ        -8.0810  -21.3240   -9.8930 N.3    49  LYS49      -0.1314
     10  N        -13.8460  -24.6420   -9.5680 N.3    58  GLY58      -0.1210
     11  CA       -12.8260  -24.1760   -8.6310 C.3    58  GLY58       0.1956
     12  C        -13.4100  -23.2800   -7.5560 C.2    58  GLY58       0.2612
     13  O        -14.3390  -22.5040   -7.8200 O.2    58  GLY58      -0.2717
     14  N        -12.8600  -23.3940   -6.3510 N.am   59  LEU59      -0.1965
     15  CA       -13.2770  -22.6180   -5.1820 C.3    59  LEU59       0.1728
     16  C        -12.0690  -22.2890   -4.3050 C.2    59  LEU59       0.2617
     17  O        -11.1710  -23.1120   -4.1740 O.2    59  LEU59      -0.2715
     18  CB       -14.3060  -23.4040   -4.3690 C.3    59  LEU59       0.0311
     19  CG       -15.6810  -23.6810   -4.9940 C.3    59  LEU59       0.0022
     20  CD1      -16.4820  -24.6290   -4.1100 C.3    59  LEU59       0.0001
     21  CD2      -16.4490  -22.3850   -5.2530 C.3    59  LEU59       0.0001
     22  N        -12.0630  -21.0910   -3.7170 N.am   60  THR60      -0.1937
     23  CA       -10.9430  -20.5750   -2.9100 C.3    60  THR60       0.2028
     24  C        -11.4730  -19.8420   -1.6740 C.2    60  THR60       0.2642
     25  O        -12.6840  -19.6680   -1.5230 O.2    60  THR60      -0.2714
     26  CB       -10.0400  -19.5630   -3.6800 C.3    60  THR60       0.1808
     27  OG1      -10.8070  -18.4170   -4.0660 O.3    60  THR60      -0.2208
     28  CG2       -9.4220  -20.1540   -4.9140 C.3    60  THR60       0.0379
     29  N        -10.5560  -19.4190   -0.8030 N.am   61  ASP61      -0.1957
     30  CA       -10.8400  -18.5410    0.3570 C.3    61  ASP61       0.1840
     31  C        -11.9090  -19.1250    1.2810 C.2    61  ASP61       0.2622
     32  O        -12.9120  -18.4890    1.6060 O.2    61  ASP61      -0.2715
     33  CB       -11.1600  -17.1020   -0.0850 C.3    61  ASP61       0.1450
     34  CG       -10.0570  -16.4930   -0.9400 C.2    61  ASP61       0.3671
     35  OD1      -10.2220  -16.4360   -2.1770 O.co2  61  ASP61      -0.2456
     36  OD2       -9.0210  -16.0700   -0.3820 O.co2  61  ASP61      -0.2456
     37  N        -11.6500  -20.3630    1.6870 N.am   62  TRP62      -0.1960
     38  CA       -12.5040  -21.1610    2.5500 C.3    62  TRP62       0.1771
     39  C        -12.5460  -20.5860    3.9520 C.2    62  TRP62       0.2619
     40  O        -11.5240  -20.4910    4.6290 O.2    62  TRP62      -0.2715
     41  CB       -12.0020  -22.6090    2.5730 C.3    62  TRP62       0.0590
     42  CG       -12.2920  -23.2860    1.2980 C.ar   62  TRP62       0.0006
     43  CD1      -11.4730  -23.3740    0.2040 C.ar   62  TRP62       0.0946
     44  CD2      -13.4980  -23.9850    0.9570 C.ar   62  TRP62       0.0152
     45  NE1      -12.0920  -24.0840   -0.7960 N.ar   62  TRP62      -0.2442
     46  CE2      -13.3350  -24.4730   -0.3640 C.ar   62  TRP62       0.0810
     47  CE3      -14.7000  -24.2470    1.6400 C.ar   62  TRP62       0.0012
     48  CZ2      -14.3310  -25.2100   -1.0200 C.ar   62  TRP62       0.0191
     49  CZ3      -15.6880  -24.9780    0.9910 C.ar   62  TRP62       0.0001
     50  CH2      -15.4960  -25.4520   -0.3300 C.ar   62  TRP62       0.0015
     51  N        -13.7470  -20.2050    4.3680 N.am   63  LYS63      -0.1977
     52  CA       -14.0140  -19.7480    5.7230 C.3    63  LYS63       0.1596
     53  C        -14.4830  -20.9430    6.5580 C.2    63  LYS63       0.2287
     54  O        -15.0720  -21.8790    5.9910 O.2    63  LYS63      -0.2864
     55  CB       -15.0080  -18.5840    5.6980 C.3    63  LYS63       0.0298
     56  CG       -14.2750  -17.2750    5.4530 C.3    63  LYS63       0.0038
     57  CD       -15.1030  -16.1670    4.8300 C.3    63  LYS63       0.0206
     58  CE       -14.1990  -15.2990    3.9490 C.3    63  LYS63       0.1093
     59  NZ       -13.8730  -15.9390    2.6220 N.3    63  LYS63      -0.1314
     60  N        -17.9770  -22.2420    5.9510 N.3    66  GLU66      -0.1245
     61  CA       -18.3240  -22.6620    4.6010 C.3    66  GLU66       0.1567
     62  C        -18.1790  -24.1650    4.4530 C.2    66  GLU66       0.2260
     63  O        -17.1170  -24.7250    4.7140 O.2    66  GLU66      -0.2867
     64  CB       -17.5290  -21.8900    3.5500 C.3    66  GLU66       0.0388
     65  CG       -17.9820  -20.4440    3.4400 C.3    66  GLU66       0.1160
     66  CD       -17.0320  -19.5570    2.6600 C.2    66  GLU66       0.3649
     67  OE1      -15.8490  -19.9280    2.4150 O.co2  66  GLU66      -0.2457
     68  OE2      -17.4820  -18.4630    2.2850 O.co2  66  GLU66      -0.2457
     69  N        -21.1660  -25.2410   -0.9400 N.3    71  GLN71      -0.1245
     70  CA       -20.4150  -24.4020   -1.8790 C.3    71  GLN71       0.1566
     71  C        -20.3950  -24.9960   -3.2930 C.2    71  GLN71       0.2260
     72  O        -20.5130  -24.2650   -4.2910 O.2    71  GLN71      -0.2867
     73  CB       -18.9870  -24.1470   -1.3750 C.3    71  GLN71       0.0367
     74  CG       -18.8870  -23.2790   -0.1090 C.3    71  GLN71       0.0905
     75  CD       -19.4770  -21.8910   -0.2770 C.2    71  GLN71       0.2608
     76  OE1      -19.0740  -21.1290   -1.1600 O.2    71  GLN71      -0.2717
     77  NE2      -20.4350  -21.5540    0.5700 N.am   71  GLN71      -0.0878
     78  N        -22.1020  -22.8460   -6.3980 N.3    75  TRP75      -0.1227
     79  CA       -21.3560  -22.3330   -7.5260 C.3    75  TRP75       0.1737
     80  C        -21.3550  -23.2420   -8.7620 C.2    75  TRP75       0.2595
     81  O        -21.1900  -22.7520   -9.8640 O.2    75  TRP75      -0.2718
     82  CB       -19.9220  -21.9980   -7.0850 C.3    75  TRP75       0.0564
     83  CG       -19.8980  -20.9240   -6.0450 C.ar   75  TRP75       0.0003
     84  CD1      -19.7710  -21.1070   -4.7000 C.ar   75  TRP75       0.0946
     85  CD2      -20.0050  -19.5030   -6.2570 C.ar   75  TRP75       0.0152
     86  NE1      -19.7910  -19.8900   -4.0540 N.ar   75  TRP75      -0.2442
     87  CE2      -19.9330  -18.8880   -4.9790 C.ar   75  TRP75       0.0810
     88  CE3      -20.1520  -18.6930   -7.3980 C.ar   75  TRP75       0.0012
     89  CZ2      -20.0030  -17.4930   -4.8010 C.ar   75  TRP75       0.0191
     90  CZ3      -20.2220  -17.3090   -7.2340 C.ar   75  TRP75       0.0001
     91  CH2      -20.1480  -16.7150   -5.9360 C.ar   75  TRP75       0.0015
     92  N        -21.5390  -24.5540   -8.5620 N.am   76  TYR76      -0.1976
     93  CA       -21.5450  -25.5410   -9.6540 C.3    76  TYR76       0.1639
     94  C        -22.8190  -26.4040   -9.6460 C.2    76  TYR76       0.2290
     95  O        -22.7320  -27.6200   -9.5370 O.2    76  TYR76      -0.2864
     96  CB       -20.2130  -26.3320   -9.6510 C.3    76  TYR76       0.0560
     97  CG       -19.0980  -25.3250   -9.6680 C.ar   76  TYR76      -0.0198
     98  CD1      -18.3470  -25.0550   -8.5140 C.ar   76  TYR76      -0.0009
     99  CD2      -18.7880  -24.6220  -10.8510 C.ar   76  TYR76      -0.0009
    100  CE1      -17.3170  -24.1100   -8.5510 C.ar   76  TYR76       0.0417
    101  CE2      -17.7640  -23.6800  -10.8980 C.ar   76  TYR76       0.0417
    102  CZ       -17.0340  -23.4260   -9.7520 C.ar   76  TYR76       0.1957
    103  OH       -16.0220  -22.4960   -9.8030 O.3    76  TYR76      -0.2866
@<TRIPOS>BOND
     1   101    99   ar
     2   101   102   ar
     3    99    97   ar
     4     9     8    1
     5    81    80    2
     6   103   102    1
     7   102   100   ar
     8    97    96    1
     9    97    98   ar
    10    93    96    1
    11    93    94    1
    12    93    92    1
    13    94    95    2
    14    10    11    1
    15     8     7    1
    16    80    92   am
    17    80    79    1
    18    11    12    1
    19   100    98   ar
    20    13    12    2
    21     7     6    1
    22    12    14   am
    23    79    82    1
    24    79    78    1
    25    88    90   ar
    26    88    85   ar
    27    90    91   ar
    28    82    83    1
    29     6     5    1
    30    14    15    1
    31    85    83   ar
    32    85    87   ar
    33    83    84   ar
    34    91    89   ar
    35    21    19    1
    36     5     2    1
    37    15    18    1
    38    15    16    1
    39    19    18    1
    40    19    20    1
    41    87    89   ar
    42    87    86   ar
    43    28    26    1
    44    84    86   ar
    45     4     3    2
    46    16    17    2
    47    16    22   am
    48    72    71    2
    49     3     2    1
    50    27    26    1
    51     2     1    1
    52    22    23    1
    53    26    23    1
    54    71    70    1
    55    23    24    1
    56    35    34   ar
    57    70    73    1
    58    70    69    1
    59    24    25    2
    60    24    29   am
    61    73    74    1
    62    76    75    2
    63    48    46   ar
    64    48    50   ar
    65    34    36   ar
    66    34    33    1
    67    29    30    1
    68    45    46   ar
    69    45    43   ar
    70    46    44   ar
    71    50    49   ar
    72    75    74    1
    73    75    77   am
    74    33    30    1
    75    43    42   ar
    76    30    31    1
    77    44    42   ar
    78    44    47   ar
    79    49    47   ar
    80    31    32    2
    81    31    37   am
    82    42    41    1
    83    37    38    1
    84    68    66   ar
    85    67    66   ar
    86    38    41    1
    87    38    39    1
    88    59    58    1
    89    66    65    1
    90    65    64    1
    91    64    61    1
    92    58    57    1
    93    39    51   am
    94    39    40    2
    95    51    52    1
    96    62    61    1
    97    62    63    2
    98    61    60    1
    99    57    56    1
   100    56    55    1
   101    55    52    1
   102    52    53    1
   103    54    53    2
