@<TRIPOS>MOLECULE
tmp/5c7eB00.pdb
 170 159 0 0 0
SMALL
GASTEIGER

@<TRIPOS>ATOM
      1  N        -52.1820   38.1000   77.9280 N.3    67  ARG67      -0.1245
      2  CA       -53.0570   37.3150   77.0550 C.3    67  ARG67       0.1563
      3  C        -54.4030   37.9960   76.7510 C.2    67  ARG67       0.2260
      4  O        -54.9750   37.7730   75.6850 O.2    67  ARG67      -0.2867
      5  CB       -53.3140   35.9330   77.6660 C.3    67  ARG67       0.0307
      6  CG       -54.1990   35.0830   76.7380 C.3    67  ARG67       0.0489
      7  CD       -54.5470   33.7570   77.3150 C.3    67  ARG67       0.2205
      8  NE       -55.1720   33.8510   78.6490 N.pl3  67  ARG67      -0.0865
      9  CZ       -56.4890   34.0430   78.8100 C.cat  67  ARG67       0.5346
     10  NH1      -57.2610   34.1790   77.7430 N.pl3  67  ARG67       0.1354
     11  NH2      -57.0060   34.1180   80.0190 N.pl3  67  ARG67       0.1354
     12  N        -53.6240   40.7010   74.2240 N.3    70  MET70      -0.1230
     13  CA       -53.1550   40.0860   72.9950 C.3    70  MET70       0.1702
     14  C        -54.3550   39.5810   72.1940 C.2    70  MET70       0.2592
     15  O        -54.3870   39.6930   70.9720 O.2    70  MET70      -0.2718
     16  CB       -52.1930   38.9300   73.2590 C.3    70  MET70       0.0401
     17  CG       -51.1760   38.7880   72.1380 C.3    70  MET70       0.0596
     18  SD       -50.2480   37.2480   72.1150 S.3    70  MET70      -0.1393
     19  CE       -48.7680   37.7680   71.2630 C.3    70  MET70       0.0692
     20  N        -55.3350   39.0060   72.8820 N.am   71  LYS71      -0.1980
     21  CA       -56.5490   38.5500   72.2150 C.3    71  LYS71       0.1596
     22  C        -57.3520   39.7310   71.6820 C.2    71  LYS71       0.2287
     23  O        -57.9940   39.6280   70.6410 O.2    71  LYS71      -0.2864
     24  CB       -57.4150   37.7020   73.1530 C.3    71  LYS71       0.0298
     25  CG       -58.6500   37.1250   72.4830 C.3    71  LYS71       0.0038
     26  CD       -59.1430   35.8600   73.1380 C.3    71  LYS71       0.0206
     27  CE       -60.6180   35.6470   72.8120 C.3    71  LYS71       0.1093
     28  NZ       -60.9300   35.2740   71.4050 N.3    71  LYS71      -0.1314
     29  N        -55.7840   40.8310   68.3940 N.3    74  PHE74      -0.1227
     30  CA       -56.0090   39.7700   67.4250 C.3    74  PHE74       0.1736
     31  C        -57.4240   39.8130   66.8680 C.2    74  PHE74       0.2595
     32  O        -57.6170   39.7060   65.6630 O.2    74  PHE74      -0.2718
     33  CB       -55.7580   38.4030   68.0440 C.3    74  PHE74       0.0547
     34  CG       -56.1690   37.2750   67.1600 C.ar   74  PHE74      -0.0202
     35  CD1      -55.3220   36.8160   66.1720 C.ar   74  PHE74      -0.0042
     36  CD2      -57.4290   36.7090   67.2760 C.ar   74  PHE74      -0.0042
     37  CE1      -55.7060   35.7810   65.3340 C.ar   74  PHE74      -0.0003
     38  CE2      -57.8210   35.6820   66.4400 C.ar   74  PHE74      -0.0003
     39  CZ       -56.9570   35.2160   65.4660 C.ar   74  PHE74      -0.0000
     40  N        -58.4120   39.9540   67.7440 N.am   75  GLU75      -0.1979
     41  CA       -59.7990   40.0030   67.3030 C.3    75  GLU75       0.1602
     42  C        -59.9920   41.1860   66.3630 C.2    75  GLU75       0.2287
     43  O        -60.5970   41.0350   65.3070 O.2    75  GLU75      -0.2864
     44  CB       -60.7550   40.1020   68.4970 C.3    75  GLU75       0.0415
     45  CG       -60.9440   38.7930   69.2500 C.3    75  GLU75       0.1163
     46  CD       -61.6840   37.7390   68.4500 C.2    75  GLU75       0.3649
     47  OE1      -62.8090   38.0280   67.9820 O.co2  75  GLU75      -0.2457
     48  OE2      -61.1290   36.6330   68.2700 O.co2  75  GLU75      -0.2457
     49  N        -58.2870   40.5600   62.9940 N.3    78  LYS78      -0.1245
     50  CA       -59.0290   39.5370   62.2670 C.3    78  LYS78       0.1561
     51  C        -60.2310   40.1350   61.5330 C.2    78  LYS78       0.2260
     52  O        -60.4180   39.8960   60.3410 O.2    78  LYS78      -0.2867
     53  CB       -59.4960   38.4270   63.2110 C.3    78  LYS78       0.0271
     54  CG       -60.2720   37.3230   62.5060 C.3    78  LYS78       0.0035
     55  CD       -61.2740   36.6630   63.4370 C.3    78  LYS78       0.0206
     56  CE       -60.6500   35.5190   64.2040 C.3    78  LYS78       0.1093
     57  NZ       -61.5290   35.1070   65.3300 N.3    78  LYS78      -0.1314
     58  N        -61.1180   40.2340   57.5390 N.3    82  LEU82      -0.1245
     59  CA       -62.3220   39.6550   56.9640 C.3    82  LEU82       0.1561
     60  C        -63.0930   40.6710   56.1350 C.2    82  LEU82       0.2260
     61  O        -63.5660   40.3530   55.0480 O.2    82  LEU82      -0.2867
     62  CB       -63.2230   39.0920   58.0620 C.3    82  LEU82       0.0270
     63  CG       -62.6500   37.9270   58.8690 C.3    82  LEU82       0.0019
     64  CD1      -63.6430   37.4760   59.9150 C.3    82  LEU82       0.0001
     65  CD2      -62.2670   36.7710   57.9630 C.3    82  LEU82       0.0001
     66  N        -48.7390   37.3040   65.4510 N.3   104  PHE104     -0.1241
     67  CA       -49.4040   36.2280   66.1610 C.3   104  PHE104      0.1605
     68  C        -48.9770   34.8480   65.6580 C.2   104  PHE104      0.2264
     69  O        -49.3100   33.8420   66.2730 O.2   104  PHE104     -0.2867
     70  CB       -50.9220   36.3670   66.0360 C.3   104  PHE104      0.0534
     71  CG       -51.4650   37.6780   66.5320 C.ar  104  PHE104     -0.0203
     72  CD1      -51.5990   37.9220   67.8820 C.ar  104  PHE104     -0.0042
     73  CD2      -51.8690   38.6580   65.6420 C.ar  104  PHE104     -0.0042
     74  CE1      -52.1120   39.1230   68.3410 C.ar  104  PHE104     -0.0003
     75  CE2      -52.3840   39.8620   66.0940 C.ar  104  PHE104     -0.0003
     76  CZ       -52.5060   40.0930   67.4440 C.ar  104  PHE104     -0.0000
     77  N        -46.5100   32.4470   67.9740 N.3   107  PHE107     -0.1227
     78  CA       -47.1240   31.7850   69.1090 C.3   107  PHE107      0.1736
     79  C        -48.0000   30.6280   68.6480 C.2   107  PHE107      0.2595
     80  O        -48.1470   29.6370   69.3550 O.2   107  PHE107     -0.2718
     81  CB       -47.9080   32.8050   69.9440 C.3   107  PHE107      0.0547
     82  CG       -47.0290   33.8610   70.5690 C.ar  107  PHE107     -0.0202
     83  CD1      -46.3570   33.6010   71.7590 C.ar  107  PHE107     -0.0042
     84  CD2      -46.8340   35.0890   69.9480 C.ar  107  PHE107     -0.0042
     85  CE1      -45.5300   34.5530   72.3320 C.ar  107  PHE107     -0.0003
     86  CE2      -46.0030   36.0470   70.5140 C.ar  107  PHE107     -0.0003
     87  CZ       -45.3540   35.7790   71.7100 C.ar  107  PHE107     -0.0000
     88  N        -48.6960   30.8070   67.5360 N.am  108  ASN108     -0.1974
     89  CA       -49.4060   29.6940   66.9140 C.3   108  ASN108      0.1688
     90  C        -49.2700   29.6670   65.3950 C.2   108  ASN108      0.2292
     91  O        -49.9870   30.4030   64.7200 O.2   108  ASN108     -0.2864
     92  CB       -50.8640   29.7850   67.3130 C.3   108  ASN108      0.1181
     93  CG       -51.2490   31.1960   67.6870 C.2   108  ASN108      0.2629
     94  OD1      -50.7700   31.7320   68.6870 O.2   108  ASN108     -0.2716
     95  ND2      -52.0930   31.8190   66.8740 N.am  108  ASN108     -0.0877
     96  N        -52.6800   28.3850   63.1860 N.3   111  LEU111     -0.1245
     97  CA       -53.7840   29.3140   62.9640 C.3   111  LEU111      0.1561
     98  C        -53.4420   30.3280   61.8710 C.2   111  LEU111      0.2260
     99  O        -54.2960   30.6640   61.0510 O.2   111  LEU111     -0.2867
    100  CB       -54.1720   30.0360   64.2490 C.3   111  LEU111      0.0270
    101  CG       -55.3190   31.0440   64.1050 C.3   111  LEU111      0.0019
    102  CD1      -56.6420   30.3450   63.8040 C.3   111  LEU111      0.0001
    103  CD2      -55.4430   31.8920   65.3560 C.3   111  LEU111      0.0001
    104  N        -53.9200   28.7130   58.5420 N.3   114  GLU114     -0.1231
    105  CA       -55.3470   28.5790   58.2610 C.3   114  GLU114      0.1699
    106  C        -55.9920   29.9200   57.8990 C.2   114  GLU114      0.2592
    107  O        -56.9130   29.9770   57.0780 O.2   114  GLU114     -0.2718
    108  CB       -56.0600   27.9160   59.4430 C.3   114  GLU114      0.0402
    109  CG       -55.7150   26.4250   59.5600 C.3   114  GLU114      0.1161
    110  CD       -56.2740   25.7650   60.8080 C.2   114  GLU114      0.3649
    111  OE1      -57.4870   25.9120   61.0770 O.co2 114  GLU114     -0.2457
    112  OE2      -55.4880   25.1130   61.5330 O.co2 114  GLU114     -0.2457
    113  N        -55.5320   30.9910   58.5380 N.am  115  ILE115     -0.1980
    114  CA       -56.0410   32.3290   58.2390 C.3   115  ILE115      0.1595
    115  C        -55.5770   32.7770   56.8540 C.2   115  ILE115      0.2287
    116  O        -56.3430   33.3830   56.0950 O.2   115  ILE115     -0.2864
    117  CB       -55.6020   33.3610   59.3020 C.3   115  ILE115      0.0276
    118  CG1      -56.3190   33.0850   60.6200 C.3   115  ILE115      0.0022
    119  CG2      -55.9380   34.7780   58.8620 C.3   115  ILE115      0.0022
    120  CD1      -55.8480   33.9440   61.7530 C.3   115  ILE115      0.0001
    121  N        -57.6290   31.4800   53.7910 N.3   118  LEU118     -0.1245
    122  CA       -58.9250   32.1130   53.5360 C.3   118  LEU118      0.1561
    123  C        -58.9210   32.9990   52.2850 C.2   118  LEU118      0.2260
    124  O        -59.9720   33.3060   51.7160 O.2   118  LEU118     -0.2867
    125  CB       -59.3540   32.9350   54.7460 C.3   118  LEU118      0.0270
    126  CG       -59.5870   32.1600   56.0390 C.3   118  LEU118      0.0019
    127  CD1      -59.9720   33.1160   57.1470 C.3   118  LEU118      0.0001
    128  CD2      -60.6820   31.1360   55.8120 C.3   118  LEU118      0.0001
    129  N        -65.5930   28.4410   55.2140 N.3   127  ASN127     -0.1240
    130  CA       -65.0160   27.9160   56.4400 C.3   127  ASN127      0.1653
    131  C        -66.1180   27.7730   57.4840 C.2   127  ASN127      0.2266
    132  O        -66.8880   28.7060   57.7110 O.2   127  ASN127     -0.2867
    133  CB       -63.8900   28.8150   56.9420 C.3   127  ASN127      0.1155
    134  CG       -63.1760   28.2330   58.1340 C.2   127  ASN127      0.2627
    135  OD1      -63.7280   28.1640   59.2300 O.2   127  ASN127     -0.2716
    136  ND2      -61.9490   27.7780   57.9200 N.am  127  ASN127     -0.0877
    137  N        -66.2080   27.5320   60.7210 N.3   129  GLN129     -0.1231
    138  CA       -66.1400   28.3140   61.9480 C.3   129  GLN129      0.1698
    139  C        -66.6370   29.7320   61.7350 C.2   129  GLN129      0.2592
    140  O        -67.1710   30.3620   62.6470 O.2   129  GLN129     -0.2718
    141  CB       -64.7140   28.3260   62.4850 C.3   129  GLN129      0.0381
    142  CG       -64.1480   26.9380   62.6840 C.3   129  GLN129      0.0905
    143  CD       -62.9990   26.9240   63.6620 C.2   129  GLN129      0.2608
    144  OE1      -63.1630   27.2840   64.8280 O.2   129  GLN129     -0.2717
    145  NE2      -61.8300   26.4960   63.2000 N.am  129  GLN129     -0.0878
    146  N        -66.4470   30.2270   60.5190 N.am  130  LEU130     -0.1980
    147  CA       -66.8810   31.5620   60.1470 C.3   130  LEU130      0.1596
    148  C        -68.2090   31.5490   59.4000 C.2   130  LEU130      0.2287
    149  O        -68.6670   32.5960   58.9450 O.2   130  LEU130     -0.2864
    150  CB       -65.8090   32.2400   59.2910 C.3   130  LEU130      0.0297
    151  CG       -64.4100   32.3540   59.8990 C.3   130  LEU130      0.0022
    152  CD1      -63.4450   32.9740   58.9040 C.3   130  LEU130      0.0001
    153  CD2      -64.4380   33.1590   61.1860 C.3   130  LEU130      0.0001
    154  N        -67.7030   41.0130   72.7940 N.3   146  GLU146     -0.1245
    155  CA       -66.5440   40.2170   73.1900 C.3   146  GLU146      0.1567
    156  C        -65.4020   41.0890   73.7050 C.2   146  GLU146      0.2260
    157  O        -64.7840   40.7830   74.7240 O.2   146  GLU146     -0.2867
    158  CB       -66.0710   39.3780   71.9990 C.3   146  GLU146      0.0388
    159  CG       -64.7820   38.5780   72.1950 C.3   146  GLU146      0.1160
    160  CD       -64.8800   37.4850   73.2410 C.2   146  GLU146      0.3649
    161  OE1      -66.0080   37.1540   73.6650 O.co2 146  GLU146     -0.2457
    162  OE2      -63.8190   36.9400   73.6190 O.co2 146  GLU146     -0.2457
    163  N        -63.3150   41.3690   77.4100 N.3   150  LEU150     -0.1245
    164  CA       -61.8580   41.2420   77.4260 C.3   150  LEU150      0.1561
    165  C        -61.1870   42.4380   78.0870 C.2   150  LEU150      0.2260
    166  O        -60.1910   42.2930   78.7990 O.2   150  LEU150     -0.2867
    167  CB       -61.3110   41.0890   76.0060 C.3   150  LEU150      0.0270
    168  CG       -61.4570   39.7730   75.2440 C.3   150  LEU150      0.0019
    169  CD1      -61.0240   39.9610   73.8010 C.3   150  LEU150      0.0001
    170  CD2      -60.6250   38.6890   75.9030 C.3   150  LEU150      0.0001
@<TRIPOS>BOND
     1   124   123    2
     2   123   122    1
     3   122   121    1
     4   122   125    1
     5   125   126    1
     6    61    60    2
     7   129   130    1
     8   128   126    1
     9   126   127    1
    10   116   115    2
    11    60    59    1
    12   130   133    1
    13   130   131    1
    14   115   114    1
    15   133   134    1
    16    59    58    1
    17    59    62    1
    18   107   106    2
    19   131   132    2
    20   106   105    1
    21   106   113   am
    22   136   134   am
    23    65    63    1
    24    62    63    1
    25   134   135    2
    26   114   113    1
    27   114   117    1
    28   105   104    1
    29   105   108    1
    30   119   117    1
    31    63    64    1
    32   152   151    1
    33   149   148    2
    34   150   151    1
    35   150   147    1
    36   117   118    1
    37   148   147    1
    38   108   109    1
    39   109   110    1
    40   151   153    1
    41   147   146    1
    42    52    51    2
    43   146   139   am
    44   118   120    1
    45   137   138    1
    46   110   111   ar
    47   110   112   ar
    48    99    98    2
    49    51    50    1
    50   139   138    1
    51   139   140    2
    52    98    97    1
    53   138   141    1
    54    50    49    1
    55    50    53    1
    56   141   142    1
    57    54    53    1
    58    54    55    1
    59   142   143    1
    60    97    96    1
    61    97   100    1
    62   145   143   am
    63    55    56    1
    64   143   144    2
    65   102   101    1
    66   101   100    1
    67   101   103    1
    68    56    57    1
    69    91    90    2
    70    43    42    2
    71    37    39   ar
    72    37    35   ar
    73    90    89    1
    74    66    67    1
    75    39    38   ar
    76    73    75   ar
    77    73    71   ar
    78    68    67    1
    79    68    69    2
    80    32    31    2
    81    70    67    1
    82    70    71    1
    83    75    76   ar
    84    35    34   ar
    85    42    41    1
    86    38    36   ar
    87    71    72   ar
    88    31    30    1
    89    31    40   am
    90    95    93   am
    91    89    92    1
    92    89    88    1
    93    34    36   ar
    94    34    33    1
    95    41    40    1
    96    41    44    1
    97    92    93    1
    98    30    33    1
    99    30    29    1
   100    76    74   ar
   101    88    79   am
   102    93    94    2
   103    72    74   ar
   104    77    78    1
   105    47    46   ar
   106    48    46   ar
   107    46    45    1
   108    44    45    1
   109    79    78    1
   110    79    80    2
   111    78    81    1
   112    81    82    1
   113    84    86   ar
   114    84    82   ar
   115    86    87   ar
   116    82    83   ar
   117    23    22    2
   118    15    14    2
   119    19    18    1
   120    28    27    1
   121    22    21    1
   122    87    85   ar
   123    83    85   ar
   124   158   159    1
   125   158   155    1
   126    18    17    1
   127    17    16    1
   128    14    20   am
   129    14    13    1
   130   159   160    1
   131    21    20    1
   132    21    24    1
   133    25    26    1
   134    25    24    1
   135   154   155    1
   136    27    26    1
   137    13    16    1
   138    13    12    1
   139   155   156    1
   140   160   162   ar
   141   160   161   ar
   142   156   157    2
   143   169   168    1
   144   168   170    1
   145   168   167    1
   146     4     3    2
   147   167   164    1
   148     6     7    1
   149     6     5    1
   150     3     2    1
   151     2     5    1
   152     2     1    1
   153     7     8    1
   154   163   164    1
   155   164   165    1
   156    10     9    1
   157   165   166    2
   158     8     9    2
   159     9    11    1
