@<TRIPOS>MOLECULE
tmp/5c7eE00.pdb
 174 165 0 0 0
SMALL
GASTEIGER

@<TRIPOS>ATOM
      1  N        -26.1350  -36.7810  -17.4860 N.3    67  ARG67      -0.1231
      2  CA       -27.1120  -36.3590  -18.4860 C.3    67  ARG67       0.1694
      3  C        -28.3150  -35.6360  -17.8840 C.2    67  ARG67       0.2592
      4  O        -28.9220  -34.7960  -18.5490 O.2    67  ARG67      -0.2718
      5  CB       -27.6320  -37.5420  -19.3000 C.3    67  ARG67       0.0321
      6  CG       -26.6690  -38.1200  -20.3030 C.3    67  ARG67       0.0489
      7  CD       -27.2940  -39.3030  -21.0040 C.3    67  ARG67       0.2205
      8  NE       -28.3240  -38.9080  -21.9660 N.pl3  67  ARG67      -0.0865
      9  CZ       -29.2440  -39.7320  -22.4660 C.cat  67  ARG67       0.5346
     10  NH1      -29.2620  -41.0110  -22.0970 N.pl3  67  ARG67       0.1354
     11  NH2      -30.1260  -39.2970  -23.3550 N.pl3  67  ARG67       0.1354
     12  N        -28.6750  -35.9720  -16.6470 N.am   68  TYR68      -0.1976
     13  CA       -29.8020  -35.3110  -15.9830 C.3    68  TYR68       0.1639
     14  C        -29.4790  -33.8530  -15.7420 C.2    68  TYR68       0.2290
     15  O        -30.2260  -32.9530  -16.1290 O.2    68  TYR68      -0.2864
     16  CB       -30.1470  -35.9910  -14.6530 C.3    68  TYR68       0.0560
     17  CG       -30.6100  -37.4060  -14.8300 C.ar   68  TYR68      -0.0198
     18  CD1      -29.6950  -38.4450  -14.9240 C.ar   68  TYR68      -0.0009
     19  CD2      -31.9580  -37.7060  -14.9370 C.ar   68  TYR68      -0.0009
     20  CE1      -30.1110  -39.7410  -15.1110 C.ar   68  TYR68       0.0417
     21  CE2      -32.3830  -38.9980  -15.1240 C.ar   68  TYR68       0.0417
     22  CZ       -31.4570  -40.0110  -15.2130 C.ar   68  TYR68       0.1957
     23  OH       -31.8860  -41.3020  -15.4000 O.3    68  TYR68      -0.2866
     24  N        -27.2680  -32.2610  -17.0520 N.3    70  MET70      -0.1230
     25  CA       -26.9420  -31.6550  -18.3340 C.3    70  MET70       0.1702
     26  C        -28.1490  -31.1140  -19.0740 C.2    70  MET70       0.2592
     27  O        -28.1070  -30.0260  -19.6560 O.2    70  MET70      -0.2718
     28  CB       -26.2330  -32.6520  -19.2370 C.3    70  MET70       0.0401
     29  CG       -25.0440  -32.0030  -19.7610 C.3    70  MET70       0.0596
     30  SD       -24.4850  -32.4160  -21.3750 S.3    70  MET70      -0.1393
     31  CE       -23.2410  -31.1420  -21.3700 C.3    70  MET70       0.0692
     32  N        -29.2290  -31.8760  -19.0620 N.am   71  LYS71      -0.1980
     33  CA       -30.4340  -31.4050  -19.7040 C.3    71  LYS71       0.1596
     34  C        -31.0090  -30.2470  -18.9090 C.2    71  LYS71       0.2287
     35  O        -31.5530  -29.3150  -19.4940 O.2    71  LYS71      -0.2864
     36  CB       -31.4600  -32.5270  -19.8640 C.3    71  LYS71       0.0298
     37  CG       -32.6690  -32.1130  -20.7050 C.3    71  LYS71       0.0038
     38  CD       -33.3190  -33.2990  -21.4090 C.3    71  LYS71       0.0206
     39  CE       -34.7560  -32.9870  -21.8120 C.3    71  LYS71       0.1093
     40  NZ       -34.8630  -32.0030  -22.9230 N.3    71  LYS71      -0.1314
     41  N        -29.1460  -27.2000  -19.9430 N.3    74  PHE74      -0.1227
     42  CA       -29.4860  -26.9110  -21.3240 C.3    74  PHE74       0.1736
     43  C        -30.8530  -26.2620  -21.4170 C.2    74  PHE74       0.2595
     44  O        -31.0200  -25.2620  -22.1110 O.2    74  PHE74      -0.2718
     45  CB       -29.4780  -28.1680  -22.1920 C.3    74  PHE74       0.0547
     46  CG       -30.0120  -27.9330  -23.5840 C.ar   74  PHE74      -0.0202
     47  CD1      -29.1970  -27.4090  -24.5760 C.ar   74  PHE74      -0.0042
     48  CD2      -31.3390  -28.1920  -23.8860 C.ar   74  PHE74      -0.0042
     49  CE1      -29.6840  -27.1790  -25.8450 C.ar   74  PHE74      -0.0003
     50  CE2      -31.8260  -27.9570  -25.1480 C.ar   74  PHE74      -0.0003
     51  CZ       -30.9960  -27.4490  -26.1290 C.ar   74  PHE74      -0.0000
     52  N        -31.8320  -26.8360  -20.7280 N.am   75  GLU75      -0.1979
     53  CA       -33.1830  -26.3030  -20.8000 C.3    75  GLU75       0.1602
     54  C        -33.1880  -24.8720  -20.2940 C.2    75  GLU75       0.2287
     55  O        -33.7630  -23.9980  -20.9380 O.2    75  GLU75      -0.2864
     56  CB       -34.1740  -27.1770  -20.0190 C.3    75  GLU75       0.0415
     57  CG       -34.5630  -28.4830  -20.7350 C.3    75  GLU75       0.1163
     58  CD       -35.3670  -28.2500  -22.0040 C.2    75  GLU75       0.3649
     59  OE1      -36.3920  -27.5410  -21.9240 O.co2  75  GLU75      -0.2457
     60  OE2      -34.9740  -28.7570  -23.0800 O.co2  75  GLU75      -0.2457
     61  N        -31.4730  -22.5060  -22.7920 N.3    78  LYS78      -0.1245
     62  CA       -32.3260  -22.3820  -23.9680 C.3    78  LYS78       0.1561
     63  C        -33.4100  -21.3230  -23.7270 C.2    78  LYS78       0.2260
     64  O        -33.5940  -20.4160  -24.5390 O.2    78  LYS78      -0.2867
     65  CB       -32.9690  -23.7310  -24.3210 C.3    78  LYS78       0.0271
     66  CG       -33.8650  -23.6930  -25.5700 C.3    78  LYS78       0.0035
     67  CD       -34.9900  -24.7320  -25.5100 C.3    78  LYS78       0.0206
     68  CE       -34.5710  -26.0790  -26.0640 C.3    78  LYS78       0.1093
     69  NZ       -35.5440  -27.1500  -25.6800 N.3    78  LYS78      -0.1314
     70  N        -22.6400  -27.0530  -25.0560 N.3   104  PHE104     -0.1241
     71  CA       -23.4630  -28.1700  -25.4980 C.3   104  PHE104      0.1605
     72  C        -23.2050  -28.6070  -26.9320 C.2   104  PHE104      0.2264
     73  O        -23.7040  -29.6470  -27.3580 O.2   104  PHE104     -0.2867
     74  CB       -24.9400  -27.8220  -25.3400 C.3   104  PHE104      0.0534
     75  CG       -25.3400  -27.5130  -23.9370 C.ar  104  PHE104     -0.0203
     76  CD1      -25.4490  -28.5260  -23.0080 C.ar  104  PHE104     -0.0042
     77  CD2      -25.6100  -26.2160  -23.5460 C.ar  104  PHE104     -0.0042
     78  CE1      -25.8270  -28.2570  -21.7160 C.ar  104  PHE104     -0.0003
     79  CE2      -25.9850  -25.9370  -22.2560 C.ar  104  PHE104     -0.0003
     80  CZ       -26.0930  -26.9590  -21.3370 C.ar  104  PHE104     -0.0000
     81  N        -21.6050  -32.0950  -27.9010 N.3   107  PHE107     -0.1227
     82  CA       -22.5130  -33.2160  -28.0740 C.3   107  PHE107      0.1736
     83  C        -23.3810  -33.0700  -29.2750 C.2   107  PHE107      0.2595
     84  O        -23.1410  -33.6610  -30.3260 O.2   107  PHE107     -0.2718
     85  CB       -23.4300  -33.3160  -26.8850 C.3   107  PHE107      0.0547
     86  CG       -22.7030  -33.3430  -25.6380 C.ar  107  PHE107     -0.0202
     87  CD1      -22.1570  -34.5110  -25.1620 C.ar  107  PHE107     -0.0042
     88  CD2      -22.4690  -32.1580  -24.9810 C.ar  107  PHE107     -0.0042
     89  CE1      -21.4460  -34.4970  -24.0120 C.ar  107  PHE107     -0.0003
     90  CE2      -21.7430  -32.1360  -23.8610 C.ar  107  PHE107     -0.0003
     91  CZ       -21.2490  -33.2990  -23.3490 C.ar  107  PHE107     -0.0000
     92  N        -24.3470  -32.1740  -29.1430 N.am  108  ASN108     -0.1974
     93  CA       -25.2820  -32.0530  -30.2110 C.3   108  ASN108      0.1688
     94  C        -24.7220  -30.9300  -31.0280 C.2   108  ASN108      0.2292
     95  O        -25.0610  -29.7670  -30.8340 O.2   108  ASN108     -0.2864
     96  CB       -26.6520  -31.7220  -29.6270 C.3   108  ASN108      0.1181
     97  CG       -27.7370  -32.6330  -30.1370 C.2   108  ASN108      0.2629
     98  OD1      -28.0220  -32.6880  -31.3390 O.2   108  ASN108     -0.2716
     99  ND2      -28.3440  -33.3820  -29.2140 N.am  108  ASN108     -0.0877
    100  N        -27.3670  -29.3930  -33.4410 N.3   111  LEU111     -0.1245
    101  CA       -28.3440  -28.6370  -32.6700 C.3   111  LEU111      0.1561
    102  C        -27.8760  -27.2240  -32.3590 C.2   111  LEU111      0.2260
    103  O        -28.6630  -26.2800  -32.3990 O.2   111  LEU111     -0.2867
    104  CB       -28.6560  -29.3620  -31.3650 C.3   111  LEU111      0.0270
    105  CG       -29.6260  -28.6680  -30.4180 C.3   111  LEU111      0.0019
    106  CD1      -31.0260  -28.6480  -31.0010 C.3   111  LEU111      0.0001
    107  CD2      -29.6030  -29.3770  -29.0940 C.3   111  LEU111      0.0001
    108  N        -28.4570  -25.2080  -35.3790 N.3   114  GLU114     -0.1231
    109  CA       -29.8910  -24.9780  -35.5330 C.3   114  GLU114      0.1699
    110  C        -30.3620  -23.8740  -34.5820 C.2   114  GLU114      0.2592
    111  O        -31.1930  -23.0370  -34.9460 O.2   114  GLU114     -0.2718
    112  CB       -30.6690  -26.2670  -35.2550 C.3   114  GLU114      0.0402
    113  CG       -30.5470  -27.3370  -36.3230 C.3   114  GLU114      0.1161
    114  CD       -31.1740  -28.6640  -35.9000 C.2   114  GLU114      0.3649
    115  OE1      -32.3320  -28.6660  -35.4200 O.co2 114  GLU114     -0.2457
    116  OE2      -30.5000  -29.7100  -36.0460 O.co2 114  GLU114     -0.2457
    117  N        -29.8140  -23.8750  -33.3670 N.am  115  ILE115     -0.1980
    118  CA       -30.1470  -22.8740  -32.3590 C.3   115  ILE115      0.1595
    119  C        -29.5870  -21.5070  -32.7190 C.2   115  ILE115      0.2287
    120  O        -30.2690  -20.4940  -32.5710 O.2   115  ILE115     -0.2864
    121  CB       -29.6260  -23.2840  -30.9770 C.3   115  ILE115      0.0276
    122  CG1      -30.4010  -24.4980  -30.4750 C.3   115  ILE115      0.0022
    123  CG2      -29.7710  -22.1400  -29.9890 C.3   115  ILE115      0.0022
    124  CD1      -29.8680  -25.0770  -29.2060 C.3   115  ILE115      0.0001
    125  N        -31.6450  -19.3480  -35.1860 N.3   118  LEU118     -0.1245
    126  CA       -32.8690  -18.7220  -34.6980 C.3   118  LEU118      0.1561
    127  C        -32.7310  -17.1920  -34.6370 C.2   118  LEU118      0.2260
    128  O        -33.7260  -16.4490  -34.6060 O.2   118  LEU118     -0.2867
    129  CB       -33.2350  -19.2810  -33.3280 C.3   118  LEU118      0.0270
    130  CG       -33.5490  -20.7730  -33.2830 C.3   118  LEU118      0.0019
    131  CD1      -33.8650  -21.1600  -31.8740 C.3   118  LEU118      0.0001
    132  CD2      -34.7240  -21.0680  -34.1810 C.3   118  LEU118      0.0001
    133  N        -39.7360  -21.4460  -36.6170 N.3   127  ASN127     -0.1240
    134  CA       -39.2270  -22.8060  -36.5250 C.3   127  ASN127      0.1653
    135  C        -40.3690  -23.6690  -36.0030 C.2   127  ASN127      0.2266
    136  O        -40.9310  -23.3710  -34.9490 O.2   127  ASN127     -0.2867
    137  CB       -38.0050  -22.8430  -35.6020 C.3   127  ASN127      0.1155
    138  CG       -37.3000  -24.1830  -35.5860 C.2   127  ASN127      0.2627
    139  OD1      -37.8290  -25.1770  -35.0900 O.2   127  ASN127     -0.2716
    140  ND2      -36.0710  -24.2020  -36.0890 N.am  127  ASN127     -0.0877
    141  N        -40.5680  -26.5100  -34.6680 N.3   129  GLN129     -0.1231
    142  CA       -40.3360  -27.2080  -33.4130 C.3   129  GLN129      0.1698
    143  C        -40.6190  -26.2700  -32.2370 C.2   129  GLN129      0.2592
    144  O        -40.9990  -26.7140  -31.1550 O.2   129  GLN129     -0.2718
    145  CB       -38.9000  -27.7320  -33.3500 C.3   129  GLN129      0.0381
    146  CG       -38.5030  -28.5520  -34.5660 C.3   129  GLN129      0.0905
    147  CD       -37.3380  -29.4750  -34.2960 C.2   129  GLN129      0.2608
    148  OE1      -37.4370  -30.3850  -33.4740 O.2   129  GLN129     -0.2717
    149  NE2      -36.2150  -29.2310  -34.9680 N.am  129  GLN129     -0.0878
    150  N        -40.4070  -24.9750  -32.4500 N.am  130  LEU130     -0.1980
    151  CA       -40.6630  -23.9730  -31.4200 C.3   130  LEU130      0.1596
    152  C        -41.9950  -23.2680  -31.5950 C.2   130  LEU130      0.2287
    153  O        -42.3030  -22.3340  -30.8630 O.2   130  LEU130     -0.2864
    154  CB       -39.5390  -22.9380  -31.3940 C.3   130  LEU130      0.0297
    155  CG       -38.1390  -23.4960  -31.1490 C.3   130  LEU130      0.0022
    156  CD1      -37.1100  -22.3970  -31.2470 C.3   130  LEU130      0.0001
    157  CD2      -38.0710  -24.1620  -29.7870 C.3   130  LEU130      0.0001
    158  N        -40.7660  -29.9350  -16.3990 N.3   146  GLU146     -0.1245
    159  CA       -39.7290  -30.7610  -16.9970 C.3   146  GLU146      0.1567
    160  C        -38.5180  -30.8480  -16.0540 C.2   146  GLU146      0.2260
    161  O        -37.9630  -31.9300  -15.8260 O.2   146  GLU146     -0.2867
    162  CB       -39.3380  -30.1710  -18.3580 C.3   146  GLU146      0.0388
    163  CG       -38.2300  -30.8750  -19.1460 C.3   146  GLU146      0.1160
    164  CD       -38.6100  -32.2630  -19.6280 C.2   146  GLU146      0.3649
    165  OE1      -39.8110  -32.6090  -19.5820 O.co2 146  GLU146     -0.2457
    166  OE2      -37.7060  -32.9990  -20.0820 O.co2 146  GLU146     -0.2457
    167  N        -36.6320  -34.0100  -14.0230 N.3   150  LEU150     -0.1245
    168  CA       -35.1930  -34.1980  -14.1940 C.3   150  LEU150      0.1561
    169  C        -34.4130  -34.1400  -12.8810 C.2   150  LEU150      0.2260
    170  O        -33.4640  -34.8980  -12.6840 O.2   150  LEU150     -0.2867
    171  CB       -34.6250  -33.1590  -15.1550 C.3   150  LEU150      0.0270
    172  CG       -34.8370  -33.3760  -16.6400 C.3   150  LEU150      0.0019
    173  CD1      -34.4050  -32.1360  -17.3780 C.3   150  LEU150      0.0001
    174  CD2      -33.9850  -34.5560  -17.0690 C.3   150  LEU150      0.0001
@<TRIPOS>BOND
     1   133   134    1
     2   134   135    1
     3   134   137    1
     4   113   114    1
     5   113   112    1
     6   140   138   am
     7   116   114   ar
     8   135   136    2
     9   114   115   ar
    10   137   138    1
    11   138   139    2
    12   109   108    1
    13   109   112    1
    14   109   110    1
    15   125   126    1
    16   149   147   am
    17   111   110    2
    18   126   127    1
    19   126   129    1
    20   141   142    1
    21   127   128    2
    22   110   117   am
    23   146   147    1
    24   146   145    1
    25   147   148    2
    26   132   130    1
    27   100   101    1
    28   142   145    1
    29   142   143    1
    30   117   118    1
    31   129   130    1
    32   130   131    1
    33   119   120    2
    34   119   118    1
    35   101   102    1
    36   101   104    1
    37   150   143   am
    38   150   151    1
    39   103   102    2
    40   118   121    1
    41   143   144    2
    42   152   151    1
    43   152   153    2
    44   151   154    1
    45   154   155    1
    46   104   105    1
    47    98    97    2
    48   156   155    1
    49   155   157    1
    50    94    95    2
    51    94    93    1
    52   106   105    1
    53   121   122    1
    54   121   123    1
    55   122   124    1
    56   105   107    1
    57    84    83    2
    58    93    96    1
    59    93    92    1
    60    97    96    1
    61    97    99   am
    62    83    92   am
    63    83    82    1
    64    82    81    1
    65    82    85    1
    66    73    72    2
    67    72    71    1
    68    85    86    1
    69    51    49   ar
    70    51    50   ar
    71    68    69    1
    72    68    67    1
    73    49    47   ar
    74    86    87   ar
    75    86    88   ar
    76    66    67    1
    77    66    65    1
    78    71    74    1
    79    71    70    1
    80    74    75    1
    81    87    89   ar
    82    50    48   ar
    83    88    90   ar
    84    47    46   ar
    85    64    63    2
    86    65    62    1
    87    89    91   ar
    88    62    63    1
    89    62    61    1
    90    75    77   ar
    91    75    76   ar
    92    48    46   ar
    93    90    91   ar
    94    46    45    1
    95    77    79   ar
    96    11     9    1
    97    60    58   ar
    98    76    78   ar
    99    40    39    1
   100     9    10    1
   101     9     8    2
   102    79    80   ar
   103    45    42    1
   104    44    43    2
   105    58    59   ar
   106    58    57    1
   107     8     7    1
   108    39    38    1
   109    78    80   ar
   110    43    42    1
   111    43    52   am
   112    38    37    1
   113    30    31    1
   114    30    29    1
   115    42    41    1
   116     7     6    1
   117    55    54    2
   118    53    52    1
   119    53    54    1
   120    53    56    1
   121    57    56    1
   122    37    36    1
   123     6     5    1
   124   166   164   ar
   125    36    33    1
   126    29    28    1
   127    33    32    1
   128    33    34    1
   129    27    26    2
   130   164   165   ar
   131   164   163    1
   132    35    34    2
   133     5     2    1
   134    28    25    1
   135   163   162    1
   136    26    32   am
   137    26    25    1
   138     4     3    2
   139     2     3    1
   140     2     1    1
   141   162   159    1
   142    25    24    1
   143     3    12   am
   144   173   172    1
   145   174   172    1
   146   159   158    1
   147   159   160    1
   148    12    13    1
   149   172   171    1
   150    15    14    2
   151   160   161    2
   152    13    14    1
   153    13    16    1
   154    23    22    1
   155    22    21   ar
   156    22    20   ar
   157   171   168    1
   158    21    19   ar
   159    20    18   ar
   160    19    17   ar
   161    18    17   ar
   162    17    16    1
   163   168   167    1
   164   168   169    1
   165   169   170    2
