@<TRIPOS>MOLECULE
tmp/5c7eA00.pdb
 188 178 0 0 0
SMALL
GASTEIGER

@<TRIPOS>ATOM
      1  N        -59.6860   86.1870   51.0140 N.3    67  ARG67      -0.1231
      2  CA       -58.6760   85.9100   49.9960 C.3    67  ARG67       0.1694
      3  C        -57.3510   85.3800   50.5600 C.2    67  ARG67       0.2592
      4  O        -56.6580   84.6140   49.8940 O.2    67  ARG67      -0.2718
      5  CB       -58.4590   87.1670   49.1620 C.3    67  ARG67       0.0321
      6  CG       -59.5430   87.4540   48.1190 C.3    67  ARG67       0.0489
      7  CD       -59.3630   88.8750   47.6310 C.3    67  ARG67       0.2205
      8  NE       -58.1770   89.1100   46.8170 N.pl3  67  ARG67      -0.0865
      9  CZ       -57.6330   90.3160   46.6730 C.cat  67  ARG67       0.5346
     10  NH1      -58.1350   91.3480   47.3410 N.pl3  67  ARG67       0.1354
     11  NH2      -56.5590   90.4870   45.9150 N.pl3  67  ARG67       0.1354
     12  N        -57.0000   85.7690   51.7810 N.am   68  TYR68      -0.1976
     13  CA       -55.7900   85.2460   52.4120 C.3    68  TYR68       0.1639
     14  C        -55.9360   83.7620   52.6700 C.2    68  TYR68       0.2290
     15  O        -55.1050   82.9540   52.2550 O.2    68  TYR68      -0.2864
     16  CB       -55.4920   85.9410   53.7420 C.3    68  TYR68       0.0560
     17  CG       -55.1810   87.4090   53.6430 C.ar   68  TYR68      -0.0198
     18  CD1      -53.8840   87.8520   53.4330 C.ar   68  TYR68      -0.0009
     19  CD2      -56.1860   88.3550   53.7830 C.ar   68  TYR68      -0.0009
     20  CE1      -53.6010   89.1960   53.3430 C.ar   68  TYR68       0.0417
     21  CE2      -55.9140   89.6960   53.6960 C.ar   68  TYR68       0.0417
     22  CZ       -54.6220   90.1160   53.4770 C.ar   68  TYR68       0.1957
     23  OH       -54.3630   91.4640   53.3940 O.3    68  TYR68      -0.2866
     24  N        -57.9160   81.8480   51.4610 N.3    70  MET70      -0.1230
     25  CA       -58.1450   81.1810   50.1840 C.3    70  MET70       0.1702
     26  C        -56.8440   80.8330   49.4820 C.2    70  MET70       0.2592
     27  O        -56.7080   79.7490   48.9150 O.2    70  MET70      -0.2718
     28  CB       -59.0090   82.0460   49.2680 C.3    70  MET70       0.0401
     29  CG       -59.3630   81.3580   47.9680 C.3    70  MET70       0.0596
     30  SD       -60.3810   82.4170   46.9360 S.3    70  MET70      -0.1393
     31  CE       -61.6530   82.7920   48.1440 C.3    70  MET70       0.0692
     32  N        -55.8830   81.7430   49.5160 N.am   71  LYS71      -0.1980
     33  CA       -54.6060   81.4470   48.9060 C.3    71  LYS71       0.1596
     34  C        -53.8420   80.3970   49.7040 C.2    71  LYS71       0.2287
     35  O        -53.1400   79.5640   49.1300 O.2    71  LYS71      -0.2864
     36  CB       -53.7700   82.7030   48.7540 C.3    71  LYS71       0.0298
     37  CG       -52.5370   82.4280   47.9350 C.3    71  LYS71       0.0038
     38  CD       -52.0330   83.6630   47.2500 C.3    71  LYS71       0.0206
     39  CE       -50.5830   83.4950   46.8440 C.3    71  LYS71       0.1093
     40  NZ       -50.4120   82.5460   45.7190 N.3    71  LYS71      -0.1314
     41  N        -55.2190   77.0920   48.7150 N.3    74  PHE74      -0.1227
     42  CA       -54.8810   76.8360   47.3330 C.3    74  PHE74       0.1736
     43  C        -53.4360   76.4040   47.1950 C.2    74  PHE74       0.2595
     44  O        -53.1390   75.4550   46.4690 O.2    74  PHE74      -0.2718
     45  CB       -55.1350   78.0440   46.4530 C.3    74  PHE74       0.0547
     46  CG       -54.6300   77.8580   45.0580 C.ar   74  PHE74      -0.0202
     47  CD1      -55.3740   77.1490   44.1260 C.ar   74  PHE74      -0.0042
     48  CD2      -53.3980   78.3480   44.6830 C.ar   74  PHE74      -0.0042
     49  CE1      -54.9030   76.9540   42.8390 C.ar   74  PHE74      -0.0003
     50  CE2      -52.9310   78.1540   43.4030 C.ar   74  PHE74      -0.0003
     51  CZ       -53.6840   77.4550   42.4810 C.ar   74  PHE74      -0.0000
     52  N        -52.5370   77.1080   47.8740 N.am   75  GLU75      -0.1979
     53  CA       -51.1250   76.7730   47.7800 C.3    75  GLU75       0.1602
     54  C        -50.9010   75.3470   48.2530 C.2    75  GLU75       0.2287
     55  O        -50.2320   74.5670   47.5730 O.2    75  GLU75      -0.2864
     56  CB       -50.2630   77.7550   48.5880 C.3    75  GLU75       0.0415
     57  CG       -50.0820   79.1050   47.9000 C.3    75  GLU75       0.1163
     58  CD       -49.3210   78.9740   46.5810 C.2    75  GLU75       0.3649
     59  OE1      -48.2250   78.3700   46.5840 O.co2  75  GLU75      -0.2457
     60  OE2      -49.8260   79.4550   45.5380 O.co2  75  GLU75      -0.2457
     61  N        -52.4430   72.7640   45.8360 N.3    78  LYS78      -0.1245
     62  CA       -51.6120   72.7650   44.6410 C.3    78  LYS78       0.1561
     63  C        -50.3770   71.8990   44.8890 C.2    78  LYS78       0.2260
     64  O        -50.0450   71.0250   44.0790 O.2    78  LYS78      -0.2867
     65  CB       -51.1850   74.1800   44.2580 C.3    78  LYS78       0.0271
     66  CG       -50.3200   74.2310   43.0100 C.3    78  LYS78       0.0035
     67  CD       -49.3690   75.4060   43.0470 C.3    78  LYS78       0.0206
     68  CE       -50.0080   76.6610   42.5020 C.3    78  LYS78       0.1093
     69  NZ       -49.2130   77.8820   42.8440 N.3    78  LYS78      -0.1314
     70  N        -61.6020   75.9340   43.7340 N.3   104  PHE104     -0.1241
     71  CA       -60.9750   77.1690   43.2840 C.3   104  PHE104      0.1605
     72  C        -61.3640   77.5490   41.8660 C.2   104  PHE104      0.2264
     73  O        -61.0570   78.6490   41.4130 O.2   104  PHE104     -0.2867
     74  CB       -59.4550   77.0590   43.4160 C.3   104  PHE104      0.0534
     75  CG       -59.0100   76.8070   44.8160 C.ar  104  PHE104     -0.0203
     76  CD1      -59.0660   77.8230   45.7500 C.ar  104  PHE104     -0.0042
     77  CD2      -58.6030   75.5490   45.2230 C.ar  104  PHE104     -0.0042
     78  CE1      -58.6890   77.6060   47.0480 C.ar  104  PHE104     -0.0003
     79  CE2      -58.2330   75.3240   46.5350 C.ar  104  PHE104     -0.0003
     80  CZ       -58.2770   76.3550   47.4440 C.ar  104  PHE104     -0.0000
     81  N        -63.5710   80.6970   40.9520 N.3   107  PHE107     -0.1227
     82  CA       -62.8700   81.9740   40.8010 C.3   107  PHE107      0.1736
     83  C        -62.0980   82.1380   39.5040 C.2   107  PHE107      0.2595
     84  O        -62.3830   83.0210   38.6950 O.2   107  PHE107     -0.2718
     85  CB       -61.8780   82.0990   41.9180 C.3   107  PHE107      0.0547
     86  CG       -62.4880   81.9390   43.2440 C.ar  107  PHE107     -0.0202
     87  CD1      -63.1410   82.9940   43.8410 C.ar  107  PHE107     -0.0042
     88  CD2      -62.4400   80.7090   43.8930 C.ar  107  PHE107     -0.0042
     89  CE1      -63.7170   82.8410   45.0790 C.ar  107  PHE107     -0.0003
     90  CE2      -63.0210   80.5430   45.1450 C.ar  107  PHE107     -0.0003
     91  CZ       -63.6670   81.6100   45.7360 C.ar  107  PHE107     -0.0000
     92  N        -61.1130   81.2640   39.3170 N.am  108  ASN108     -0.1974
     93  CA       -60.3800   81.2020   38.0620 C.3   108  ASN108      0.1688
     94  C        -60.6690   79.8760   37.4050 C.2   108  ASN108      0.2292
     95  O        -60.0540   78.8530   37.7230 O.2   108  ASN108     -0.2864
     96  CB       -58.8650   81.3540   38.2690 C.3   108  ASN108      0.1181
     97  CG       -58.1880   82.1010   37.1230 C.2   108  ASN108      0.2629
     98  OD1      -58.6220   82.0160   35.9740 O.2   108  ASN108     -0.2716
     99  ND2      -57.0950   82.7950   37.4250 N.am  108  ASN108     -0.0877
    100  N        -57.7310   78.8380   35.1740 N.3   111  LEU111     -0.1245
    101  CA       -56.6190   78.3230   35.9590 C.3   111  LEU111      0.1561
    102  C        -56.8340   76.8700   36.2940 C.2   111  LEU111      0.2260
    103  O        -55.9100   76.0680   36.2220 O.2   111  LEU111     -0.2867
    104  CB       -56.4400   79.1030   37.2480 C.3   111  LEU111      0.0270
    105  CG       -55.3570   78.5040   38.1430 C.3   111  LEU111      0.0019
    106  CD1      -53.9590   78.6750   37.5870 C.3   111  LEU111      0.0001
    107  CD2      -55.4810   79.0710   39.5240 C.3   111  LEU111      0.0001
    108  N        -56.0130   74.9190   33.3440 N.3   114  GLU114     -0.1231
    109  CA       -54.5720   74.8260   33.1600 C.3   114  GLU114      0.1699
    110  C        -53.9320   73.8010   34.0880 C.2   114  GLU114      0.2592
    111  O        -53.0850   73.0120   33.6620 O.2   114  GLU114     -0.2718
    112  CB       -53.8860   76.1630   33.4100 C.3   114  GLU114      0.0402
    113  CG       -54.1150   77.2320   32.3750 C.3   114  GLU114      0.1161
    114  CD       -53.3610   78.5080   32.7250 C.2   114  GLU114      0.3649
    115  OE1      -52.1490   78.3980   33.0290 O.co2 114  GLU114     -0.2457
    116  OE2      -53.9500   79.6100   32.6800 O.co2 114  GLU114     -0.2457
    117  N        -54.3880   73.7830   35.3380 N.am  115  ILE115     -0.1980
    118  CA       -53.8580   72.8820   36.3520 C.3   115  ILE115      0.1595
    119  C        -54.2350   71.4540   35.9910 C.2   115  ILE115      0.2287
    120  O        -53.4310   70.5300   36.1420 O.2   115  ILE115     -0.2864
    121  CB       -54.4130   73.2300   37.7450 C.3   115  ILE115      0.0276
    122  CG1      -53.9940   74.6300   38.1540 C.3   115  ILE115      0.0022
    123  CG2      -53.9880   72.2140   38.8060 C.3   115  ILE115      0.0022
    124  CD1      -54.6760   75.0760   39.4010 C.3   115  ILE115      0.0001
    125  N        -51.9700   69.7460   33.3780 N.3   118  LEU118     -0.1245
    126  CA       -50.6500   69.3200   33.8140 C.3   118  LEU118      0.1561
    127  C        -50.5400   67.7950   33.8270 C.2   118  LEU118      0.2260
    128  O        -49.4380   67.2460   33.8400 O.2   118  LEU118     -0.2867
    129  CB       -50.3450   69.8770   35.2100 C.3   118  LEU118      0.0270
    130  CG       -50.2980   71.3950   35.4040 C.3   118  LEU118      0.0019
    131  CD1      -50.0180   71.7270   36.8620 C.3   118  LEU118      0.0001
    132  CD2      -49.2460   71.9960   34.5050 C.3   118  LEU118      0.0001
    133  N        -44.2350   73.1740   31.8970 N.3   127  ASN127     -0.1240
    134  CA       -45.0120   74.4080   32.0160 C.3   127  ASN127      0.1653
    135  C        -44.0780   75.5100   32.5100 C.2   127  ASN127      0.2266
    136  O        -43.3840   75.3140   33.5000 O.2   127  ASN127     -0.2867
    137  CB       -46.1820   74.1990   32.9880 C.3   127  ASN127      0.1155
    138  CG       -47.1190   75.3830   33.0580 C.2   127  ASN127      0.2627
    139  OD1      -46.7510   76.4530   33.5410 O.2   127  ASN127     -0.2716
    140  ND2      -48.3580   75.1830   32.6210 N.am  127  ASN127     -0.0877
    141  N        -44.5030   78.3270   33.9520 N.3   129  GLN129     -0.1231
    142  CA       -44.7820   78.9390   35.2440 C.3   129  GLN129      0.1698
    143  C        -44.2540   78.0660   36.3790 C.2   129  GLN129      0.2592
    144  O        -43.9430   78.5610   37.4520 O.2   129  GLN129     -0.2718
    145  CB       -46.2660   79.2180   35.4090 C.3   129  GLN129      0.0381
    146  CG       -46.8220   80.0480   34.2740 C.3   129  GLN129      0.0905
    147  CD       -48.0340   80.8270   34.7020 C.2   129  GLN129      0.2608
    148  OE1      -47.9420   81.6820   35.5870 O.2   129  GLN129     -0.2717
    149  NE2      -49.1820   80.5370   34.1000 N.am  129  GLN129     -0.0878
    150  N        -44.1840   76.7640   36.1380 N.am  130  LEU130     -0.1980
    151  CA       -43.6450   75.8020   37.0960 C.3   130  LEU130      0.1596
    152  C        -42.1820   75.4170   36.8160 C.2   130  LEU130      0.2287
    153  O        -41.6650   74.4650   37.3880 O.2   130  LEU130     -0.2864
    154  CB       -44.5350   74.5600   37.1510 C.3   130  LEU130      0.0297
    155  CG       -45.9790   74.8730   37.5490 C.3   130  LEU130      0.0022
    156  CD1      -46.8380   73.6280   37.5110 C.3   130  LEU130      0.0001
    157  CD2      -46.0050   75.4960   38.9240 C.3   130  LEU130      0.0001
    158  N        -44.0680   81.6730   52.2020 N.3   146  GLU146     -0.1245
    159  CA       -45.2350   82.3510   51.6500 C.3   146  GLU146      0.1567
    160  C        -46.4560   82.1550   52.5630 C.2   146  GLU146      0.2260
    161  O        -47.1940   83.1040   52.8570 O.2   146  GLU146     -0.2867
    162  CB       -45.4640   81.8330   50.2170 C.3   146  GLU146      0.0388
    163  CG       -46.7080   82.2980   49.4540 C.3   146  GLU146      0.1160
    164  CD       -46.7610   83.7880   49.1810 C.2   146  GLU146      0.3649
    165  OE1      -45.7400   84.4820   49.3860 O.co2 146  GLU146     -0.2457
    166  OE2      -47.8290   84.2480   48.7120 O.co2 146  GLU146     -0.2457
    167  N        -46.4560   84.3380   55.7510 N.3   149  LYS149     -0.1231
    168  CA       -46.8190   85.7280   55.4860 C.3   149  LYS149      0.1693
    169  C        -48.3210   85.8390   55.3310 C.2   149  LYS149      0.2591
    170  O        -48.9490   86.7330   55.8940 O.2   149  LYS149     -0.2718
    171  CB       -46.1350   86.2510   54.2230 C.3   149  LYS149      0.0285
    172  CG       -44.6250   86.3110   54.2870 C.3   149  LYS149      0.0035
    173  CD       -44.0560   86.7150   52.9320 C.3   149  LYS149      0.0206
    174  CE       -42.5310   86.6730   52.9150 C.3   149  LYS149      0.1093
    175  NZ       -41.9790   86.8960   51.5340 N.3   149  LYS149     -0.1314
    176  N        -48.8870   84.9160   54.5610 N.am  150  LEU150     -0.1980
    177  CA       -50.3220   84.8740   54.3320 C.3   150  LEU150      0.1596
    178  C        -51.0810   84.7300   55.6480 C.2   150  LEU150      0.2287
    179  O        -52.0910   85.3970   55.8770 O.2   150  LEU150     -0.2864
    180  CB       -50.6750   83.7170   53.3940 C.3   150  LEU150      0.0297
    181  CG       -50.3140   83.8410   51.9080 C.3   150  LEU150      0.0022
    182  CD1      -50.5760   82.5300   51.1810 C.3   150  LEU150      0.0001
    183  CD2      -51.0420   84.9770   51.2270 C.3   150  LEU150      0.0001
    184  N        -50.7770   87.9080   57.8770 N.3   153  ALA153     -0.1245
    185  CA       -51.6500   88.9710   57.3710 C.3   153  ALA153      0.1562
    186  C        -53.1600   88.6790   57.4470 C.2   153  ALA153      0.2260
    187  O        -53.9770   89.5980   57.3890 O.2   153  ALA153     -0.2867
    188  CB       -51.2680   89.2980   55.9570 C.3   153  ALA153      0.0290
@<TRIPOS>BOND
     1   133   134    1
     2   134   135    1
     3   134   137    1
     4   113   114    1
     5   113   112    1
     6   135   136    2
     7   140   138   am
     8   116   114   ar
     9   114   115   ar
    10   137   138    1
    11   138   139    2
    12   109   108    1
    13   109   112    1
    14   109   110    1
    15   125   126    1
    16   111   110    2
    17   126   127    1
    18   126   129    1
    19   127   128    2
    20   141   142    1
    21   110   117   am
    22   149   147   am
    23   146   147    1
    24   146   145    1
    25   132   130    1
    26   147   148    2
    27   100   101    1
    28   129   130    1
    29   142   145    1
    30   142   143    1
    31   117   118    1
    32   130   131    1
    33   101   102    1
    34   101   104    1
    35    98    97    2
    36   119   120    2
    37   119   118    1
    38   150   143   am
    39   150   151    1
    40   103   102    2
    41   118   121    1
    42   143   144    2
    43   152   151    1
    44   152   153    2
    45   151   154    1
    46    97    99   am
    47    97    96    1
    48   154   155    1
    49   104   105    1
    50    94    95    2
    51    94    93    1
    52   156   155    1
    53   155   157    1
    54   106   105    1
    55   121   122    1
    56   121   123    1
    57    93    96    1
    58    93    92    1
    59   105   107    1
    60   122   124    1
    61    84    83    2
    62    92    83   am
    63    83    82    1
    64    82    81    1
    65    82    85    1
    66    73    72    2
    67    72    71    1
    68    85    86    1
    69    51    49   ar
    70    51    50   ar
    71    68    69    1
    72    68    67    1
    73    49    47   ar
    74    66    67    1
    75    66    65    1
    76    86    87   ar
    77    86    88   ar
    78    71    74    1
    79    71    70    1
    80    50    48   ar
    81    74    75    1
    82    87    89   ar
    83    88    90   ar
    84    64    63    2
    85    47    46   ar
    86    65    62    1
    87    62    63    1
    88    62    61    1
    89    48    46   ar
    90    75    77   ar
    91    75    76   ar
    92    46    45    1
    93    89    91   ar
    94    90    91   ar
    95    77    79   ar
    96    60    58   ar
    97    40    39    1
    98    76    78   ar
    99    11     9    1
   100    45    42    1
   101    44    43    2
   102    79    80   ar
   103    58    59   ar
   104    58    57    1
   105     9     8    2
   106     9    10    1
   107     8     7    1
   108    39    38    1
   109    30    29    1
   110    30    31    1
   111    78    80   ar
   112    43    42    1
   113    43    52   am
   114    38    37    1
   115    42    41    1
   116    55    54    2
   117     7     6    1
   118    53    52    1
   119    53    54    1
   120    53    56    1
   121    57    56    1
   122    37    36    1
   123    29    28    1
   124     6     5    1
   125   166   164   ar
   126    36    33    1
   127    33    32    1
   128    33    34    1
   129    27    26    2
   130    35    34    2
   131     5     2    1
   132   164   165   ar
   133   164   163    1
   134    28    25    1
   135   163   162    1
   136    26    32   am
   137    26    25    1
   138     4     3    2
   139     2     3    1
   140     2     1    1
   141    25    24    1
   142   162   159    1
   143     3    12   am
   144   182   181    1
   145   183   181    1
   146   175   174    1
   147   159   158    1
   148   159   160    1
   149    12    13    1
   150   181   180    1
   151    15    14    2
   152    13    14    1
   153    13    16    1
   154   160   161    2
   155   174   173    1
   156   173   172    1
   157    20    18   ar
   158    20    22   ar
   159   180   177    1
   160    23    22    1
   161    18    17   ar
   162    22    21   ar
   163    17    16    1
   164    17    19   ar
   165    21    19   ar
   166   171   172    1
   167   171   168    1
   168   177   176    1
   169   177   178    1
   170   176   169   am
   171   169   168    1
   172   169   170    2
   173   168   167    1
   174   178   179    2
   175   188   185    1
   176   185   186    1
   177   185   184    1
   178   187   186    2
