@<TRIPOS>MOLECULE
tmp/5c7eF00.pdb
 188 178 0 0 0
SMALL
GASTEIGER

@<TRIPOS>ATOM
      1  N        -26.3810   11.9540    9.7170 N.3    67  ARG67      -0.1231
      2  CA       -25.4240   12.5960    8.8270 C.3    67  ARG67       0.1694
      3  C        -24.1930   11.7450    8.4820 C.2    67  ARG67       0.2592
      4  O        -23.6110   11.9150    7.4130 O.2    67  ARG67      -0.2718
      5  CB       -24.9680   13.9200    9.4220 C.3    67  ARG67       0.0321
      6  CG       -26.0440   14.9880    9.3800 C.3    67  ARG67       0.0489
      7  CD       -25.5310   16.2760    9.9730 C.3    67  ARG67       0.2205
      8  NE       -24.5550   16.8590    9.0550 N.pl3  67  ARG67      -0.0865
      9  CZ       -23.6720   17.7970    9.3750 C.cat  67  ARG67       0.5346
     10  NH1      -23.6240   18.2850   10.6090 N.pl3  67  ARG67       0.1354
     11  NH2      -22.8260   18.2430    8.4550 N.pl3  67  ARG67       0.1354
     12  N        -23.7760   10.8630    9.3840 N.am   68  TYR68      -0.1976
     13  CA       -22.6540    9.9680    9.0910 C.3    68  TYR68       0.1639
     14  C        -23.0200    9.0060    7.9810 C.2    68  TYR68       0.2290
     15  O        -22.3220    8.8950    6.9710 O.2    68  TYR68      -0.2864
     16  CB       -22.2200    9.1780   10.3280 C.3    68  TYR68       0.0560
     17  CG       -21.6300   10.0300   11.4200 C.ar   68  TYR68      -0.0198
     18  CD1      -22.4440   10.7020   12.3240 C.ar   68  TYR68      -0.0009
     19  CD2      -20.2520   10.1680   11.5440 C.ar   68  TYR68      -0.0009
     20  CE1      -21.9030   11.4880   13.3190 C.ar   68  TYR68       0.0417
     21  CE2      -19.7010   10.9510   12.5380 C.ar   68  TYR68       0.0417
     22  CZ       -20.5300   11.6080   13.4200 C.ar   68  TYR68       0.1957
     23  OH       -19.9800   12.3890   14.4080 O.3    68  TYR68      -0.2866
     24  N        -25.3130    9.2490    5.9530 N.3    70  MET70      -0.1230
     25  CA       -25.6940    9.9500    4.7360 C.3    70  MET70       0.1702
     26  C        -24.4500   10.2530    3.8850 C.2    70  MET70       0.2592
     27  O        -24.4700   10.1000    2.6640 O.2    70  MET70      -0.2718
     28  CB       -26.4550   11.2430    5.0560 C.3    70  MET70       0.0401
     29  CG       -27.4680   11.5820    3.9690 C.3    70  MET70       0.0596
     30  SD       -28.0900   13.2750    3.9390 S.3    70  MET70      -0.1393
     31  CE       -29.7290   13.0780    3.2310 C.3    70  MET70       0.0692
     32  N        -23.3600   10.6650    4.5260 N.am   71  LYS71      -0.1980
     33  CA       -22.1190   10.9200    3.7920 C.3    71  LYS71       0.1596
     34  C        -21.5190    9.6200    3.2470 C.2    71  LYS71       0.2287
     35  O        -20.9040    9.6140    2.1770 O.2    71  LYS71      -0.2864
     36  CB       -21.0930   11.6600    4.6620 C.3    71  LYS71       0.0298
     37  CG       -19.8370   12.0800    3.8970 C.3    71  LYS71       0.0038
     38  CD       -19.1840   13.2940    4.5130 C.3    71  LYS71       0.0206
     39  CE       -17.7170   13.4110    4.1210 C.3    71  LYS71       0.1093
     40  NZ       -17.4420   13.7960    2.7190 N.3    71  LYS71      -0.1314
     41  N        -23.2710    8.8810    0.1150 N.3    74  PHE74      -0.1227
     42  CA       -22.8930    9.8980   -0.8570 C.3    74  PHE74       0.1736
     43  C        -21.5380    9.6220   -1.4680 C.2    74  PHE74       0.2595
     44  O        -21.3800    9.6940   -2.6810 O.2    74  PHE74      -0.2718
     45  CB       -22.8650   11.2840   -0.2270 C.3    74  PHE74       0.0547
     46  CG       -22.2840   12.3410   -1.1280 C.ar   74  PHE74      -0.0202
     47  CD1      -23.0560   12.9340   -2.1060 C.ar   74  PHE74      -0.0042
     48  CD2      -20.9620   12.7410   -0.9940 C.ar   74  PHE74      -0.0042
     49  CE1      -22.5250   13.9050   -2.9260 C.ar   74  PHE74      -0.0003
     50  CE2      -20.4290   13.7110   -1.8160 C.ar   74  PHE74      -0.0003
     51  CZ       -21.2120   14.2920   -2.7820 C.ar   74  PHE74      -0.0000
     52  N        -20.5600    9.3210   -0.6240 N.am   75  GLU75      -0.1979
     53  CA       -19.2150    9.0630   -1.1080 C.3    75  GLU75       0.1602
     54  C        -19.2260    7.8540   -2.0360 C.2    75  GLU75       0.2287
     55  O        -18.5830    7.8770   -3.0840 O.2    75  GLU75      -0.2864
     56  CB       -18.2400    8.8660    0.0520 C.3    75  GLU75       0.0415
     57  CG       -17.8600   10.1650    0.7680 C.3    75  GLU75       0.1163
     58  CD       -17.0870   11.1360   -0.1170 C.2    75  GLU75       0.3649
     59  OE1      -16.0770   10.7200   -0.7250 O.co2  75  GLU75      -0.2457
     60  OE2      -17.4840   12.3210   -0.1960 O.co2  75  GLU75      -0.2457
     61  N        -20.9400    8.7840   -5.2980 N.3    78  LYS78      -0.1245
     62  CA       -20.0470    9.6930   -6.0190 C.3    78  LYS78       0.1561
     63  C        -18.9620    8.9370   -6.7980 C.2    78  LYS78       0.2260
     64  O        -18.7780    9.1670   -7.9940 O.2    78  LYS78      -0.2867
     65  CB       -19.3970   10.6980   -5.0640 C.3    78  LYS78       0.0271
     66  CG       -18.4340   11.6600   -5.7550 C.3    78  LYS78       0.0035
     67  CD       -17.3500   12.1780   -4.8030 C.3    78  LYS78       0.0206
     68  CE       -17.7990   13.4440   -4.0710 C.3    78  LYS78       0.1093
     69  NZ       -16.9230   13.8130   -2.9180 N.3    78  LYS78      -0.1314
     70  N        -29.9630   13.3620   -2.6330 N.3   104  PHE104     -0.1241
     71  CA       -29.2400   14.4390   -1.9710 C.3   104  PHE104      0.1605
     72  C        -29.6700   15.7520   -2.6210 C.2   104  PHE104      0.2264
     73  O        -29.2110   16.8250   -2.2260 O.2   104  PHE104     -0.2867
     74  CB       -27.7310   14.2700   -2.1080 C.3   104  PHE104      0.0534
     75  CG       -27.2320   12.9280   -1.6910 C.ar  104  PHE104     -0.0203
     76  CD1      -27.2770   11.8830   -2.5880 C.ar  104  PHE104     -0.0042
     77  CD2      -26.6930   12.7060   -0.4360 C.ar  104  PHE104     -0.0042
     78  CE1      -26.8210   10.6320   -2.2460 C.ar  104  PHE104     -0.0003
     79  CE2      -26.2290   11.4490   -0.0820 C.ar  104  PHE104     -0.0003
     80  CZ       -26.2930   10.4110   -0.9930 C.ar  104  PHE104     -0.0000
     81  N        -30.9800   18.7620   -0.0280 N.3   107  PHE107     -0.1227
     82  CA       -30.1520   19.4890    0.9270 C.3   107  PHE107      0.1736
     83  C        -29.0910   20.2850    0.2280 C.2   107  PHE107      0.2595
     84  O        -28.7440   21.3850    0.6590 O.2   107  PHE107     -0.2718
     85  CB       -29.5480   18.5540    1.9680 C.3   107  PHE107      0.0547
     86  CG       -30.5480   18.0620    2.9760 C.ar  107  PHE107     -0.0202
     87  CD1      -30.8590   18.8500    4.0750 C.ar  107  PHE107     -0.0042
     88  CD2      -31.2080   16.8540    2.8140 C.ar  107  PHE107     -0.0042
     89  CE1      -31.7810   18.4340    5.0090 C.ar  107  PHE107     -0.0003
     90  CE2      -32.1390   16.4310    3.7510 C.ar  107  PHE107     -0.0003
     91  CZ       -32.4250   17.2230    4.8470 C.ar  107  PHE107     -0.0000
     92  N        -28.5290   19.7260   -0.8270 N.am  108  ASN108     -0.1974
     93  CA       -27.6640   20.5640   -1.6130 C.3   108  ASN108      0.1688
     94  C        -28.2140   20.6750   -3.0400 C.2   108  ASN108      0.2292
     95  O        -27.9550   19.8060   -3.8730 O.2   108  ASN108     -0.2864
     96  CB       -26.2710   19.9660   -1.6020 C.3   108  ASN108      0.1181
     97  CG       -25.2140   20.9620   -1.1780 C.2   108  ASN108      0.2629
     98  OD1      -25.3300   22.1670   -1.4200 O.2   108  ASN108     -0.2716
     99  ND2      -24.1600   20.4540   -0.5400 N.am  108  ASN108     -0.0877
    100  N        -25.0310   21.6280   -5.0800 N.3   111  LEU111     -0.1245
    101  CA       -24.0400   20.5570   -5.2280 C.3   111  LEU111      0.1561
    102  C        -24.4620   19.5260   -6.2520 C.2   111  LEU111      0.2260
    103  O        -23.6360   19.0300   -7.0150 O.2   111  LEU111     -0.2867
    104  CB       -23.7820   19.8440   -3.9080 C.3   111  LEU111      0.0270
    105  CG       -22.8070   18.6620   -3.9630 C.3   111  LEU111      0.0019
    106  CD1      -21.3790   19.1190   -4.2070 C.3   111  LEU111      0.0001
    107  CD2      -22.9020   17.7880   -2.7260 C.3   111  LEU111      0.0001
    108  N        -23.7860   20.9090   -9.6380 N.3   114  GLU114     -0.1231
    109  CA       -22.3520   20.8720   -9.8900 C.3   114  GLU114      0.1699
    110  C        -21.8620   19.4680  -10.2440 C.2   114  GLU114      0.2592
    111  O        -20.9540   19.3100  -11.0640 O.2   114  GLU114     -0.2718
    112  CB       -21.6110   21.4680   -8.6900 C.3   114  GLU114      0.0402
    113  CG       -21.7370   23.0060   -8.6780 C.3   114  GLU114      0.1161
    114  CD       -21.2420   23.6820   -7.4110 C.2   114  GLU114      0.3649
    115  OE1      -20.1380   23.3440   -6.9260 O.co2 114  GLU114     -0.2457
    116  OE2      -21.9530   24.6010   -6.9380 O.co2 114  GLU114     -0.2457
    117  N        -22.4480   18.4530   -9.6210 N.am  115  ILE115     -0.1980
    118  CA       -22.1180   17.0670   -9.9440 C.3   115  ILE115      0.1595
    119  C        -22.6650   16.6920  -11.3300 C.2   115  ILE115      0.2287
    120  O        -22.0020   16.0160  -12.1280 O.2   115  ILE115     -0.2864
    121  CB       -22.6870   16.1090   -8.8910 C.3   115  ILE115      0.0276
    122  CG1      -22.0340   16.3830   -7.5380 C.3   115  ILE115      0.0022
    123  CG2      -22.5110   14.6580   -9.3220 C.3   115  ILE115      0.0022
    124  CD1      -22.6470   15.6250   -6.4100 C.3   115  ILE115      0.0001
    125  N        -20.5700   17.7660  -14.3960 N.3   118  LEU118     -0.1245
    126  CA       -19.3410   17.0310  -14.6660 C.3   118  LEU118      0.1561
    127  C        -19.4680   16.2020  -15.9360 C.2   118  LEU118      0.2260
    128  O        -18.4640   15.8300  -16.5450 O.2   118  LEU118     -0.2867
    129  CB       -18.9810   16.1260  -13.4900 C.3   118  LEU118      0.0270
    130  CG       -18.7010   16.7740  -12.1360 C.3   118  LEU118      0.0019
    131  CD1      -18.3880   15.6910  -11.1160 C.3   118  LEU118      0.0001
    132  CD2      -17.5700   17.7900  -12.2300 C.3   118  LEU118      0.0001
    133  N        -12.3760   19.9330  -12.9910 N.3   127  ASN127     -0.1240
    134  CA       -12.8680   20.5130  -11.7400 C.3   127  ASN127      0.1653
    135  C        -11.7470   20.4740  -10.6980 C.2   127  ASN127      0.2266
    136  O        -11.1210   19.4330  -10.5120 O.2   127  ASN127     -0.2867
    137  CB       -14.1110   19.7540  -11.2510 C.3   127  ASN127      0.1155
    138  CG       -14.7510   20.3870  -10.0220 C.2   127  ASN127      0.2627
    139  OD1      -14.1820   20.3660   -8.9280 O.2   127  ASN127     -0.2716
    140  ND2      -15.9490   20.9370  -10.1940 N.am  127  ASN127     -0.0877
    141  N        -11.5920   20.5770   -7.4580 N.3   129  GLN129     -0.1231
    142  CA       -11.7690   19.7580   -6.2730 C.3   129  GLN129      0.1698
    143  C        -11.5120   18.2940   -6.5790 C.2   129  GLN129      0.2592
    144  O        -11.0910   17.5310   -5.7080 O.2   129  GLN129     -0.2718
    145  CB       -13.1620   19.9600   -5.6940 C.3   129  GLN129      0.0381
    146  CG       -13.4560   21.4120   -5.3740 C.3   129  GLN129      0.0905
    147  CD       -14.5600   21.5570   -4.3500 C.2   129  GLN129      0.2608
    148  OE1      -14.4430   21.0650   -3.2230 O.2   129  GLN129     -0.2717
    149  NE2      -15.6240   22.2590   -4.7190 N.am  129  GLN129     -0.0878
    150  N        -11.7800   17.9070   -7.8190 N.am  130  LEU130     -0.1980
    151  CA       -11.5480   16.5400   -8.2540 C.3   130  LEU130      0.1596
    152  C        -10.2300   16.3960   -9.0170 C.2   130  LEU130      0.2287
    153  O         -9.9170   15.3190   -9.5280 O.2   130  LEU130     -0.2864
    154  CB       -12.7190   16.0560   -9.1100 C.3   130  LEU130      0.0297
    155  CG       -14.0960   16.1290   -8.4400 C.3   130  LEU130      0.0022
    156  CD1      -15.1800   15.6780   -9.3920 C.3   130  LEU130      0.0001
    157  CD2      -14.1360   15.3010   -7.1720 C.3   130  LEU130      0.0001
    158  N        -11.5950    7.0410    4.3480 N.3   146  GLU146     -0.1245
    159  CA       -12.6300    7.9650    4.7740 C.3   146  GLU146      0.1567
    160  C        -13.8460    7.2080    5.2970 C.2   146  GLU146      0.2260
    161  O        -14.4120    7.5560    6.3360 O.2   146  GLU146     -0.2867
    162  CB       -13.0120    8.8640    3.5980 C.3   146  GLU146      0.0388
    163  CG       -14.1280    9.8590    3.8410 C.3   146  GLU146      0.1160
    164  CD       -13.7640   10.9280    4.8390 C.2   146  GLU146      0.3649
    165  OE1      -12.5630   11.0680    5.1590 O.co2 146  GLU146     -0.2457
    166  OE2      -14.6840   11.6440    5.2880 O.co2 146  GLU146     -0.2457
    167  N        -13.4460    5.4840    8.8020 N.3   149  LYS149     -0.1231
    168  CA       -13.5870    6.4470    9.8740 C.3   149  LYS149      0.1693
    169  C        -15.0530    6.8200   10.0560 C.2   149  LYS149      0.2591
    170  O        -15.5490    6.8480   11.1840 O.2   149  LYS149     -0.2718
    171  CB       -12.7340    7.6840    9.6000 C.3   149  LYS149      0.0285
    172  CG       -11.2430    7.3820    9.5880 C.3   149  LYS149      0.0035
    173  CD       -10.4210    8.6070    9.2350 C.3   149  LYS149      0.0206
    174  CE        -8.9420    8.2650    9.1510 C.3   149  LYS149      0.1093
    175  NZ        -8.1240    9.4130    8.6640 N.3   149  LYS149     -0.1314
    176  N        -15.7450    7.0840    8.9500 N.am  150  LEU150     -0.1980
    177  CA       -17.1660    7.4290    9.0040 C.3   150  LEU150      0.1596
    178  C        -18.0100    6.3370    9.6650 C.2   150  LEU150      0.2287
    179  O        -18.9470    6.6280   10.4200 O.2   150  LEU150     -0.2864
    180  CB       -17.7100    7.7080    7.6040 C.3   150  LEU150      0.0297
    181  CG       -17.3040    9.0190    6.9320 C.3   150  LEU150      0.0022
    182  CD1      -17.8110    9.0290    5.5050 C.3   150  LEU150      0.0001
    183  CD2      -17.8040   10.2290    7.6950 C.3   150  LEU150      0.0001
    184  N        -17.2780    5.8960   13.5840 N.3   153  ALA153     -0.1245
    185  CA       -17.9220    6.9710   14.3360 C.3   153  ALA153      0.1562
    186  C        -19.4510    6.9230   14.3000 C.2   153  ALA153      0.2260
    187  O        -20.1130    7.5320   15.1340 O.2   153  ALA153     -0.2867
    188  CB       -17.4410    8.3130   13.8300 C.3   153  ALA153      0.0290
@<TRIPOS>BOND
     1   128   127    2
     2   127   126    1
     3   126   125    1
     4   126   129    1
     5   129   130    1
     6   133   134    1
     7   132   130    1
     8   130   131    1
     9   120   119    2
    10   134   137    1
    11   134   135    1
    12   119   118    1
    13   137   138    1
    14   111   110    2
    15   135   136    2
    16   110   109    1
    17   110   117   am
    18   140   138   am
    19   138   139    2
    20   118   117    1
    21   118   121    1
    22   109   108    1
    23   109   112    1
    24   153   152    2
    25   156   155    1
    26   123   121    1
    27   154   155    1
    28   154   151    1
    29   152   151    1
    30   121   122    1
    31   112   113    1
    32   113   114    1
    33   155   157    1
    34   151   150    1
    35    64    63    2
    36   150   143   am
    37   122   124    1
    38   141   142    1
    39   114   116   ar
    40   114   115   ar
    41   103   102    2
    42    63    62    1
    43   143   142    1
    44   143   144    2
    45   142   145    1
    46   102   101    1
    47    62    61    1
    48    62    65    1
    49    66    65    1
    50    66    67    1
    51   145   146    1
    52   146   147    1
    53   101   100    1
    54   101   104    1
    55    67    68    1
    56   149   147   am
    57   147   148    2
    58   106   105    1
    59    68    69    1
    60   105   104    1
    61   105   107    1
    62    95    94    2
    63    55    54    2
    64    94    93    1
    65    49    51   ar
    66    49    47   ar
    67    51    50   ar
    68    44    43    2
    69    70    71    1
    70    72    73    2
    71    72    71    1
    72    76    78   ar
    73    76    75   ar
    74    78    80   ar
    75    74    71    1
    76    74    75    1
    77    47    46   ar
    78    54    53    1
    79    50    48   ar
    80    75    77   ar
    81    93    96    1
    82    93    92    1
    83    96    97    1
    84    43    42    1
    85    43    52   am
    86    98    97    2
    87    97    99   am
    88    46    48   ar
    89    46    45    1
    90    53    52    1
    91    53    56    1
    92    80    79   ar
    93    42    45    1
    94    42    41    1
    95    92    83   am
    96    59    58   ar
    97    77    79   ar
    98    60    58   ar
    99    58    57    1
   100    81    82    1
   101    56    57    1
   102    83    84    2
   103    83    82    1
   104    82    85    1
   105    85    86    1
   106    35    34    2
   107    27    26    2
   108    40    39    1
   109    88    86   ar
   110    88    90   ar
   111    86    87   ar
   112    31    30    1
   113    34    33    1
   114   162   163    1
   115   162   159    1
   116    90    91   ar
   117    33    32    1
   118    33    36    1
   119   163   164    1
   120    26    32   am
   121    26    25    1
   122    37    38    1
   123    37    36    1
   124    30    29    1
   125    29    28    1
   126    87    89   ar
   127    39    38    1
   128   158   159    1
   129    25    28    1
   130    25    24    1
   131   159   160    1
   132   164   165   ar
   133   164   166   ar
   134    91    89   ar
   135   160   161    2
   136   182   181    1
   137   181   180    1
   138   181   183    1
   139    15    14    2
   140     4     3    2
   141   180   177    1
   142    14    13    1
   143    11     9    1
   144     3     2    1
   145     3    12   am
   146   175   174    1
   147   167   168    1
   148     2     5    1
   149     2     1    1
   150   176   177    1
   151   176   169   am
   152   177   178    1
   153     8     9    2
   154     8     7    1
   155    13    12    1
   156    13    16    1
   157   174   173    1
   158   173   172    1
   159     9    10    1
   160     6     5    1
   161     6     7    1
   162   172   171    1
   163   171   168    1
   164   178   179    2
   165   168   169    1
   166   169   170    2
   167    16    17    1
   168    17    19   ar
   169    17    18   ar
   170    19    21   ar
   171    18    20   ar
   172    21    22   ar
   173    20    22   ar
   174    22    23    1
   175   184   185    1
   176   188   185    1
   177   186   185    1
   178   186   187    2
