@<TRIPOS>MOLECULE
tmp/5c7eC00.pdb
 185 173 0 0 0
SMALL
GASTEIGER

@<TRIPOS>ATOM
      1  N        -57.3400   61.6760    6.5140 N.3    67  ARG67      -0.1231
      2  CA       -58.3670   62.1700    7.4280 C.3    67  ARG67       0.1694
      3  C        -59.3950   61.1330    7.8580 C.2    67  ARG67       0.2592
      4  O        -59.8900   61.1790    8.9870 O.2    67  ARG67      -0.2718
      5  CB       -59.1150   63.3390    6.8010 C.3    67  ARG67       0.0321
      6  CG       -58.3240   64.5980    6.7660 C.3    67  ARG67       0.0489
      7  CD       -59.0810   65.7030    6.0930 C.3    67  ARG67       0.2205
      8  NE       -58.6450   66.9510    6.6930 N.pl3  67  ARG67      -0.0865
      9  CZ       -59.3790   67.6770    7.5250 C.cat  67  ARG67       0.5346
     10  NH1      -60.6170   67.3040    7.8230 N.pl3  67  ARG67       0.1354
     11  NH2      -58.8780   68.7910    8.0370 N.pl3  67  ARG67       0.1354
     12  N        -59.7080   60.1990    6.9700 N.am   68  TYR68      -0.1976
     13  CA       -60.6510   59.1500    7.3030 C.3    68  TYR68       0.1639
     14  C        -60.0700   58.2890    8.3850 C.2    68  TYR68       0.2290
     15  O        -60.6590   58.1120    9.4490 O.2    68  TYR68      -0.2864
     16  CB       -60.9770   58.2840    6.0910 C.3    68  TYR68       0.0560
     17  CG       -61.6930   59.0050    4.9900 C.ar   68  TYR68      -0.0198
     18  CD1      -63.0740   59.1090    4.9900 C.ar   68  TYR68      -0.0009
     19  CD2      -60.9950   59.5740    3.9450 C.ar   68  TYR68      -0.0009
     20  CE1      -63.7370   59.7690    3.9850 C.ar   68  TYR68       0.0417
     21  CE2      -61.6460   60.2330    2.9340 C.ar   68  TYR68       0.0417
     22  CZ       -63.0190   60.3300    2.9520 C.ar   68  TYR68       0.1957
     23  OH       -63.6700   60.9940    1.9310 O.3    68  TYR68      -0.2866
     24  N        -57.7010   58.8800   10.3280 N.3    70  MET70      -0.1230
     25  CA       -57.3770   59.6050   11.5460 C.3    70  MET70       0.1702
     26  C        -58.6450   59.7370   12.4260 C.2    70  MET70       0.2592
     27  O        -58.5760   59.5780   13.6380 O.2    70  MET70      -0.2718
     28  CB       -56.7100   60.9510   11.2050 C.3    70  MET70       0.0401
     29  CG       -55.7890   61.4750   12.3170 C.3    70  MET70       0.0596
     30  SD       -54.9270   63.0450   12.0060 S.3    70  MET70      -0.1393
     31  CE       -53.7210   63.1240   13.3670 C.3    70  MET70       0.0692
     32  N        -59.8060   59.9810   11.8220 N.am   71  LYS71      -0.1980
     33  CA       -61.0600   60.0380   12.5830 C.3    71  LYS71       0.1596
     34  C        -61.4300   58.6610   13.1340 C.2    71  LYS71       0.2287
     35  O        -61.9860   58.5460   14.2310 O.2    71  LYS71      -0.2864
     36  CB       -62.2100   60.5740   11.7220 C.3    71  LYS71       0.0298
     37  CG       -63.4880   60.8200   12.5030 C.3    71  LYS71       0.0038
     38  CD       -64.3550   61.8780   11.8520 C.3    71  LYS71       0.0206
     39  CE       -65.8020   61.8010   12.3400 C.3    71  LYS71       0.1093
     40  NZ       -65.9770   62.2600   13.7520 N.3    71  LYS71      -0.1314
     41  N        -59.3520   58.1770   16.1500 N.3    74  PHE74      -0.1227
     42  CA       -59.7960   59.1220   17.1620 C.3    74  PHE74       0.1736
     43  C        -61.1050   58.6950   17.7790 C.2    74  PHE74       0.2595
     44  O        -61.2360   58.6950   19.0060 O.2    74  PHE74      -0.2718
     45  CB       -59.9430   60.5390   16.6400 C.3    74  PHE74       0.0547
     46  CG       -60.6150   61.4430   17.6250 C.ar   74  PHE74      -0.0202
     47  CD1      -59.9060   61.9580   18.7070 C.ar   74  PHE74      -0.0042
     48  CD2      -61.9490   61.7710   17.4900 C.ar   74  PHE74      -0.0042
     49  CE1      -60.5160   62.7850   19.6480 C.ar   74  PHE74      -0.0003
     50  CE2      -62.5610   62.6050   18.4160 C.ar   74  PHE74      -0.0003
     51  CZ       -61.8380   63.1110   19.5030 C.ar   74  PHE74      -0.0000
     52  N        -62.0700   58.3140   16.9510 N.am   75  GLU75      -0.1979
     53  CA       -63.3410   57.8910   17.5140 C.3    75  GLU75       0.1602
     54  C        -63.1450   56.6800   18.4420 C.2    75  GLU75       0.2287
     55  O        -63.7050   56.6520   19.5470 O.2    75  GLU75      -0.2864
     56  CB       -64.3730   57.5800   16.4310 C.3    75  GLU75       0.0415
     57  CG       -64.9900   58.8280   15.7800 C.3    75  GLU75       0.1163
     58  CD       -65.7140   59.7370   16.7950 C.2    75  GLU75       0.3649
     59  OE1      -66.5250   59.2240   17.6170 O.co2  75  GLU75      -0.2457
     60  OE2      -65.4860   60.9780   16.7310 O.co2  75  GLU75      -0.2457
     61  N        -61.3900   57.6920   21.7640 N.3    78  LYS78      -0.1245
     62  CA       -62.3190   58.4930   22.5430 C.3    78  LYS78       0.1561
     63  C        -63.2540   57.5910   23.3330 C.2    78  LYS78       0.2260
     64  O        -63.4200   57.7760   24.5380 O.2    78  LYS78      -0.2867
     65  CB       -63.1230   59.4200   21.6470 C.3    78  LYS78       0.0271
     66  CG       -64.0470   60.3050   22.4170 C.3    78  LYS78       0.0035
     67  CD       -65.2780   60.6600   21.6180 C.3    78  LYS78       0.0206
     68  CE       -65.1210   61.8830   20.7380 C.3    78  LYS78       0.1093
     69  NZ       -66.2870   61.9470   19.7970 N.3    78  LYS78      -0.1314
     70  N        -63.8820   57.2030   27.3380 N.3    82  LEU82      -0.1245
     71  CA       -65.1510   57.4410   28.0150 C.3    82  LEU82       0.1561
     72  C        -65.5460   56.2620   28.8930 C.2    82  LEU82       0.2260
     73  O        -65.9750   56.4510   30.0280 O.2    82  LEU82      -0.2867
     74  CB       -66.2570   57.7400   27.0070 C.3    82  LEU82       0.0270
     75  CG       -66.0230   59.0440   26.2540 C.3    82  LEU82       0.0019
     76  CD1      -67.1350   59.2940   25.2660 C.3    82  LEU82       0.0001
     77  CD2      -65.9090   60.1950   27.2340 C.3    82  LEU82       0.0001
     78  N        -53.3860   63.3020   18.9140 N.3   104  PHE104     -0.1241
     79  CA       -54.3210   64.2000   18.2610 C.3   104  PHE104      0.1605
     80  C        -54.2000   65.6300   18.7480 C.2   104  PHE104      0.2264
     81  O        -54.7760   66.5340   18.1450 O.2   104  PHE104     -0.2867
     82  CB       -55.7570   63.7110   18.4570 C.3   104  PHE104      0.0534
     83  CG       -55.9980   62.3240   17.9470 C.ar  104  PHE104     -0.0203
     84  CD1      -56.0610   62.0800   16.5890 C.ar  104  PHE104     -0.0042
     85  CD2      -56.1450   61.2610   18.8220 C.ar  104  PHE104     -0.0042
     86  CE1      -56.2750   60.8160   16.1010 C.ar  104  PHE104     -0.0003
     87  CE2      -56.3590   59.9830   18.3330 C.ar  104  PHE104     -0.0003
     88  CZ       -56.4260   59.7660   16.9660 C.ar  104  PHE104     -0.0000
     89  N        -55.2970   69.4530   17.0630 N.3   108  ASN108     -0.1240
     90  CA       -56.4000   70.0660   17.7680 C.3   108  ASN108      0.1653
     91  C        -55.9650   70.2810   19.2050 C.2   108  ASN108      0.2266
     92  O        -56.2200   69.4190   20.0380 O.2   108  ASN108     -0.2867
     93  CB       -57.6310   69.1460   17.6730 C.3   108  ASN108      0.1155
     94  CG       -57.5420   68.1430   16.4770 C.2   108  ASN108      0.2627
     95  OD1      -58.2760   68.2580   15.4920 O.2   108  ASN108     -0.2716
     96  ND2      -56.6440   67.1620   16.5820 N.am  108  ASN108     -0.0877
     97  N        -59.2880   70.7370   21.4400 N.3   111  LEU111     -0.1245
     98  CA       -60.0760   69.5380   21.6760 C.3   111  LEU111      0.1561
     99  C        -59.4400   68.6480   22.7320 C.2   111  LEU111      0.2260
    100  O        -60.1330   68.0960   23.5820 O.2   111  LEU111     -0.2867
    101  CB       -60.2620   68.7670   20.3760 C.3   111  LEU111      0.0270
    102  CG       -61.0050   67.4430   20.4780 C.3   111  LEU111      0.0019
    103  CD1      -62.4440   67.6830   20.8460 C.3   111  LEU111      0.0001
    104  CD2      -60.9080   66.7430   19.1540 C.3   111  LEU111      0.0001
    105  N        -60.2080   70.0330   26.0720 N.3   114  GLU114     -0.1231
    106  CA       -61.6080   69.7570   26.3800 C.3   114  GLU114      0.1699
    107  C        -61.8370   68.3230   26.8360 C.2   114  GLU114      0.2592
    108  O        -62.6200   68.0670   27.7640 O.2   114  GLU114     -0.2718
    109  CB       -62.4690   70.0420   25.1560 C.3   114  GLU114      0.0402
    110  CG       -62.6900   71.5090   24.8740 C.3   114  GLU114      0.1161
    111  CD       -63.3420   71.7350   23.5150 C.2   114  GLU114      0.3649
    112  OE1      -64.3290   71.0350   23.1870 O.co2 114  GLU114     -0.2457
    113  OE2      -62.8710   72.6320   22.7780 O.co2 114  GLU114     -0.2457
    114  N        -61.1440   67.3940   26.1860 N.am  115  ILE115     -0.1980
    115  CA       -61.2440   65.9820   26.5290 C.3   115  ILE115      0.1595
    116  C        -60.5700   65.7130   27.8810 C.2   115  ILE115      0.2287
    117  O        -61.1020   64.9680   28.7190 O.2   115  ILE115     -0.2864
    118  CB       -60.6180   65.1080   25.4420 C.3   115  ILE115      0.0276
    119  CG1      -61.4180   65.2310   24.1540 C.3   115  ILE115      0.0022
    120  CG2      -60.5740   63.6640   25.8750 C.3   115  ILE115      0.0022
    121  CD1      -60.7720   64.5560   22.9910 C.3   115  ILE115      0.0001
    122  N        -62.6900   66.4640   30.9660 N.3   118  LEU118     -0.1245
    123  CA       -63.7520   65.5320   31.3120 C.3   118  LEU118      0.1561
    124  C        -63.4460   64.7330   32.5910 C.2   118  LEU118      0.2260
    125  O        -64.3520   64.2010   33.2350 O.2   118  LEU118     -0.2867
    126  CB       -64.0120   64.5690   30.1600 C.3   118  LEU118      0.0270
    127  CG       -64.5150   65.1450   28.8420 C.3   118  LEU118      0.0019
    128  CD1      -64.7420   64.0170   27.8710 C.3   118  LEU118      0.0001
    129  CD2      -65.7930   65.9090   29.0660 C.3   118  LEU118      0.0001
    130  N        -71.2040   67.5560   30.1550 N.3   127  ASN127     -0.1240
    131  CA       -70.7390   68.2190   28.9430 C.3   127  ASN127      0.1653
    132  C        -71.8350   68.1750   27.8960 C.2   127  ASN127      0.2266
    133  O        -72.3950   67.1150   27.6290 O.2   127  ASN127     -0.2867
    134  CB       -69.4690   67.5480   28.4250 C.3   127  ASN127      0.1155
    135  CG       -68.8600   68.2820   27.2720 C.2   127  ASN127      0.2627
    136  OD1      -69.4190   68.3180   26.1800 O.2   127  ASN127     -0.2716
    137  ND2      -67.6990   68.8750   27.5030 N.am  127  ASN127     -0.0877
    138  N        -71.9720   68.4060   24.7290 N.3   129  GLN129     -0.1231
    139  CA       -71.7750   67.6280   23.5120 C.3   129  GLN129      0.1698
    140  C        -71.9760   66.1360   23.7680 C.2   129  GLN129      0.2592
    141  O        -72.3910   65.3960   22.8750 O.2   129  GLN129     -0.2718
    142  CB       -70.3890   67.8700   22.9140 C.3   129  GLN129      0.0381
    143  CG       -70.0560   69.3210   22.6370 C.3   129  GLN129      0.0905
    144  CD       -68.9870   69.4510   21.5670 C.2   129  GLN129      0.2608
    145  OE1      -69.1960   69.0310   20.4250 O.2   129  GLN129     -0.2717
    146  NE2      -67.8360   70.0160   21.9260 N.am  129  GLN129     -0.0878
    147  N        -71.6750   65.7080   24.9910 N.am  130  LEU130     -0.1980
    148  CA       -71.8060   64.3100   25.4050 C.3   130  LEU130      0.1596
    149  C        -73.0840   63.9770   26.1750 C.2   130  LEU130      0.2287
    150  O        -73.2460   62.8560   26.6650 O.2   130  LEU130     -0.2864
    151  CB       -70.5990   63.9120   26.2430 C.3   130  LEU130      0.0297
    152  CG       -69.2560   64.0820   25.5450 C.3   130  LEU130      0.0022
    153  CD1      -68.1330   63.7350   26.5130 C.3   130  LEU130      0.0001
    154  CD2      -69.2070   63.2070   24.3130 C.3   130  LEU130      0.0001
    155  N        -70.8330   54.9740   12.4590 N.3   146  GLU146     -0.1245
    156  CA       -69.9260   56.0060   11.9870 C.3   146  GLU146      0.1567
    157  C        -68.6510   55.3920   11.4080 C.2   146  GLU146      0.2260
    158  O        -68.1950   55.7810   10.3290 O.2   146  GLU146     -0.2867
    159  CB       -69.5850   56.9640   13.1320 C.3   146  GLU146      0.0388
    160  CG       -68.6400   58.0790   12.7570 C.3   146  GLU146      0.1160
    161  CD       -69.2610   59.0250   11.7500 C.2   146  GLU146      0.3649
    162  OE1      -70.5020   58.9660   11.5670 O.co2 146  GLU146     -0.2457
    163  OE2      -68.5100   59.8210   11.1370 O.co2 146  GLU146     -0.2457
    164  N        -68.9500   53.8410    7.8500 N.3   149  LYS149     -0.1231
    165  CA       -69.0050   54.8550    6.8150 C.3   149  LYS149      0.1693
    166  C        -67.6230   55.3900    6.5380 C.2   149  LYS149      0.2591
    167  O        -67.2220   55.5500    5.3800 O.2   149  LYS149     -0.2718
    168  CB       -69.9240   55.9890    7.2440 C.3   149  LYS149      0.0285
    169  CG       -71.3580   55.5560    7.4530 C.3   149  LYS149      0.0035
    170  CD       -72.1810   56.7040    7.9810 C.3   149  LYS149      0.0206
    171  CE       -73.5990   56.2670    8.2990 C.3   149  LYS149      0.1093
    172  NZ       -74.3480   57.3680    8.9900 N.3   149  LYS149     -0.1314
    173  N        -66.9010   55.6750    7.6170 N.am  150  LEU150     -0.1980
    174  CA       -65.5370   56.1700    7.5180 C.3   150  LEU150      0.1596
    175  C        -64.6330   55.2000    6.7640 C.2   150  LEU150      0.2287
    176  O        -63.8390   55.6070    5.9110 O.2   150  LEU150     -0.2864
    177  CB       -64.9710   56.4160    8.9120 C.3   150  LEU150      0.0297
    178  CG       -65.4550   57.6320    9.6910 C.3   150  LEU150      0.0022
    179  CD1      -64.9310   57.5140   11.0970 C.3   150  LEU150      0.0001
    180  CD2      -64.9600   58.9180    9.0510 C.3   150  LEU150      0.0001
    181  N        -65.6100   54.8770    2.9950 N.3   153  ALA153     -0.1245
    182  CA       -65.1210   56.0220    2.2250 C.3   153  ALA153      0.1562
    183  C        -63.5950   56.0930    2.1580 C.2   153  ALA153      0.2260
    184  O        -63.0410   56.7360    1.2710 O.2   153  ALA153     -0.2867
    185  CB       -65.6690   57.3040    2.7980 C.3   153  ALA153      0.0290
@<TRIPOS>BOND
     1   184   183    2
     2    23    22    1
     3   183   182    1
     4   182   185    1
     5   182   181    1
     6    21    22   ar
     7    21    19   ar
     8    22    20   ar
     9    19    17   ar
    10    20    18   ar
    11    18    17   ar
    12    17    16    1
    13   167   166    2
    14   176   175    2
    15    16    13    1
    16     7     8    1
    17     7     6    1
    18     1     2    1
    19   166   165    1
    20   166   173   am
    21     8     9    2
    22   175   174    1
    23     6     5    1
    24     5     2    1
    25   165   168    1
    26   165   164    1
    27    12    13    1
    28    12     3   am
    29   168   169    1
    30    13    14    1
    31     2     3    1
    32   169   170    1
    33   174   173    1
    34   174   177    1
    35     9    10    1
    36     9    11    1
    37     3     4    2
    38   170   171    1
    39   171   172    1
    40    14    15    2
    41   177   178    1
    42   180   178    1
    43   178   179    1
    44    24    25    1
    45   158   157    2
    46   163   161   ar
    47    28    25    1
    48    28    29    1
    49   157   156    1
    50    25    26    1
    51   162   161   ar
    52    36    37    1
    53    36    33    1
    54   161   160    1
    55    32    26   am
    56    32    33    1
    57    38    39    1
    58    38    37    1
    59   156   155    1
    60   156   159    1
    61    30    29    1
    62    30    31    1
    63    39    40    1
    64    26    27    2
    65    33    34    1
    66   160   159    1
    67    34    35    2
    68    95    94    2
    69    57    56    1
    70    57    58    1
    71    86    84   ar
    72    86    88   ar
    73    41    42    1
    74    56    53    1
    75    94    96   am
    76    94    93    1
    77    84    83   ar
    78    45    42    1
    79    45    46    1
    80    60    58   ar
    81    58    59   ar
    82    52    53    1
    83    52    43   am
    84    88    87   ar
    85    89    90    1
    86    42    43    1
    87    48    46   ar
    88    48    50   ar
    89    53    54    1
    90    46    47   ar
    91    93    90    1
    92    90    91    1
    93    43    44    2
    94    83    82    1
    95    83    85   ar
    96    81    80    2
    97    79    82    1
    98    79    80    1
    99    79    78    1
   100    87    85   ar
   101    50    51   ar
   102    54    55    2
   103    47    49   ar
   104   104   102    1
   105    91    92    2
   106    51    49   ar
   107    69    68    1
   108   101   102    1
   109   101    98    1
   110   145   144    2
   111   102   103    1
   112    68    67    1
   113    97    98    1
   114   144   146   am
   115   144   143    1
   116    67    66    1
   117    65    66    1
   118    65    62    1
   119    98    99    1
   120    61    62    1
   121    62    63    1
   122   143   142    1
   123    99   100    2
   124   113   111   ar
   125   141   140    2
   126   142   139    1
   127   121   119    1
   128   112   111   ar
   129    63    64    2
   130   139   140    1
   131   139   138    1
   132   111   110    1
   133   140   147   am
   134   119   118    1
   135   154   152    1
   136   110   109    1
   137   147   148    1
   138   109   106    1
   139    76    75    1
   140   148   149    1
   141   148   151    1
   142   118   120    1
   143   118   115    1
   144   152   151    1
   145   152   153    1
   146   105   106    1
   147   149   150    2
   148   136   135    2
   149   114   115    1
   150   114   107   am
   151    75    74    1
   152    75    77    1
   153   106   107    1
   154   115   116    1
   155   107   108    2
   156    74    71    1
   157   135   137   am
   158   135   134    1
   159    70    71    1
   160   133   132    2
   161   128   127    1
   162   116   117    2
   163   132   131    1
   164    71    72    1
   165   134   131    1
   166   127   129    1
   167   127   126    1
   168    72    73    2
   169   131   130    1
   170   126   123    1
   171   122   123    1
   172   123   124    1
   173   124   125    2
