@<TRIPOS>MOLECULE
tmp/5c7eD00.pdb
 163 153 0 0 0
SMALL
GASTEIGER

@<TRIPOS>ATOM
      1  N        -51.1280   13.3820   33.2230 N.3    67  ARG67      -0.1231
      2  CA       -50.1690   13.8570   34.2300 C.3    67  ARG67       0.1694
      3  C        -49.0260   14.6820   33.6550 C.2    67  ARG67       0.2592
      4  O        -48.4890   15.5610   34.3340 O.2    67  ARG67      -0.2718
      5  CB       -49.5580   12.6900   34.9970 C.3    67  ARG67       0.0321
      6  CG       -50.4570   12.0060   35.9950 C.3    67  ARG67       0.0489
      7  CD       -50.8350   10.6230   35.4930 C.3    67  ARG67       0.2205
      8  NE       -52.2470   10.5460   35.1310 N.pl3  67  ARG67      -0.0865
      9  CZ       -52.7060   10.1700   33.9400 C.cat  67  ARG67       0.5346
     10  NH1      -51.8670    9.8220   32.9710 N.pl3  67  ARG67       0.1354
     11  NH2      -54.0150   10.1380   33.7240 N.pl3  67  ARG67       0.1354
     12  N        -48.6410   14.3840   32.4160 N.am   68  TYR68      -0.1976
     13  CA       -47.5890   15.1470   31.7560 C.3    68  TYR68       0.1639
     14  C        -48.0560   16.5690   31.5450 C.2    68  TYR68       0.2290
     15  O        -47.4240   17.5260   32.0000 O.2    68  TYR68      -0.2864
     16  CB       -47.2140   14.5440   30.4020 C.3    68  TYR68       0.0560
     17  CG       -46.5950   13.1730   30.4490 C.ar   68  TYR68      -0.0198
     18  CD1      -47.3840   12.0330   30.4960 C.ar   68  TYR68      -0.0009
     19  CD2      -45.2160   13.0180   30.4170 C.ar   68  TYR68      -0.0009
     20  CE1      -46.8140   10.7770   30.5280 C.ar   68  TYR68       0.0417
     21  CE2      -44.6400   11.7700   30.4470 C.ar   68  TYR68       0.0417
     22  CZ       -45.4400   10.6540   30.5030 C.ar   68  TYR68       0.1957
     23  OH       -44.8530    9.4140   30.5340 O.3    68  TYR68      -0.2866
     24  N        -50.4510   17.9960   32.8400 N.3    70  MET70      -0.1230
     25  CA       -50.8280   18.6010   34.1000 C.3    70  MET70       0.1702
     26  C        -49.5910   19.1640   34.8180 C.2    70  MET70       0.2592
     27  O        -49.6490   20.2340   35.4240 O.2    70  MET70      -0.2718
     28  CB       -51.6300   17.6040   34.9370 C.3    70  MET70       0.0401
     29  CG       -52.4690   18.2790   35.9910 C.3    70  MET70       0.0596
     30  SD       -53.4650   17.1310   36.9450 S.3    70  MET70      -0.1393
     31  CE       -54.3670   18.2750   37.9970 C.3    70  MET70       0.0692
     32  N        -48.4670   18.4660   34.7270 N.am   71  LYS71      -0.1980
     33  CA       -47.2260   18.9970   35.2710 C.3    71  LYS71       0.1596
     34  C        -46.7660   20.2350   34.5110 C.2    71  LYS71       0.2287
     35  O        -46.2700   21.1870   35.1120 O.2    71  LYS71      -0.2864
     36  CB       -46.1320   17.9300   35.2160 C.3    71  LYS71       0.0298
     37  CG       -44.7770   18.3460   35.7810 C.3    71  LYS71       0.0038
     38  CD       -44.7210   18.4690   37.2840 C.3    71  LYS71       0.0206
     39  CE       -43.2800   18.6880   37.7160 C.3    71  LYS71       0.1093
     40  NZ       -42.4300   17.5280   37.3280 N.3    71  LYS71      -0.1314
     41  N        -48.8340   23.1660   35.5530 N.3    74  PHE74      -0.1227
     42  CA       -48.4920   23.4630   36.9310 C.3    74  PHE74       0.1736
     43  C        -47.1900   24.2230   37.0240 C.2    74  PHE74       0.2595
     44  O        -47.1100   25.2170   37.7390 O.2    74  PHE74      -0.2718
     45  CB       -48.3940   22.2040   37.7840 C.3    74  PHE74       0.0547
     46  CG       -47.8070   22.4670   39.1390 C.ar   74  PHE74      -0.0202
     47  CD1      -48.5840   22.9980   40.1500 C.ar   74  PHE74      -0.0042
     48  CD2      -46.4650   22.2060   39.3950 C.ar   74  PHE74      -0.0042
     49  CE1      -48.0340   23.2560   41.3930 C.ar   74  PHE74      -0.0003
     50  CE2      -45.9110   22.4650   40.6330 C.ar   74  PHE74      -0.0003
     51  CZ       -46.6940   22.9890   41.6330 C.ar   74  PHE74      -0.0000
     52  N        -46.1730   23.7640   36.3020 N.am   75  GLU75      -0.1979
     53  CA       -44.8830   24.4250   36.3720 C.3    75  GLU75       0.1602
     54  C        -45.0150   25.8660   35.9230 C.2    75  GLU75       0.2287
     55  O        -44.5670   26.7780   36.6230 O.2    75  GLU75      -0.2864
     56  CB       -43.8400   23.6940   35.5220 C.3    75  GLU75       0.0415
     57  CG       -43.3210   22.4070   36.1610 C.3    75  GLU75       0.1163
     58  CD       -42.5400   22.6540   37.4610 C.2    75  GLU75       0.3649
     59  OE1      -41.5990   23.4830   37.4460 O.co2  75  GLU75      -0.2457
     60  OE2      -42.8700   22.0230   38.4970 O.co2  75  GLU75      -0.2457
     61  N        -46.9120   28.0780   38.3580 N.3    78  LYS78      -0.1245
     62  CA       -46.0280   28.2570   39.5040 C.3    78  LYS78       0.1561
     63  C        -45.0650   29.4180   39.2790 C.2    78  LYS78       0.2260
     64  O        -44.9730   30.3250   40.1130 O.2    78  LYS78      -0.2867
     65  CB       -45.2420   26.9660   39.7850 C.3    78  LYS78       0.0271
     66  CG       -44.2440   27.0720   40.9310 C.3    78  LYS78       0.0035
     67  CD       -43.0930   26.0840   40.7630 C.3    78  LYS78       0.0206
     68  CE       -43.4300   24.7460   41.4060 C.3    78  LYS78       0.1093
     69  NZ       -42.4960   23.6450   41.0210 N.3    78  LYS78      -0.1314
     70  N        -55.0610   22.6660   40.8450 N.3   104  PHE104     -0.1241
     71  CA       -54.1370   21.6280   41.2900 C.3   104  PHE104      0.1605
     72  C        -54.3520   21.1780   42.7400 C.2   104  PHE104      0.2264
     73  O        -53.7900   20.1680   43.1700 O.2   104  PHE104     -0.2867
     74  CB       -52.7020   22.1170   41.0950 C.3   104  PHE104      0.0534
     75  CG       -52.3840   22.4510   39.6760 C.ar  104  PHE104     -0.0203
     76  CD1      -52.3430   21.4560   38.7140 C.ar  104  PHE104     -0.0042
     77  CD2      -52.2140   23.7670   39.2820 C.ar  104  PHE104     -0.0042
     78  CE1      -52.0720   21.7600   37.3930 C.ar  104  PHE104     -0.0003
     79  CE2      -51.9560   24.0810   37.9620 C.ar  104  PHE104     -0.0003
     80  CZ       -51.8850   23.0750   37.0160 C.ar  104  PHE104     -0.0000
     81  N        -53.6670   17.5960   44.9380 N.3   108  ASN108     -0.1240
     82  CA       -52.7600   17.9440   46.0380 C.3   108  ASN108      0.1653
     83  C        -53.2280   19.0280   47.0350 C.2   108  ASN108      0.2266
     84  O        -53.0190   20.2130   46.7820 O.2   108  ASN108     -0.2867
     85  CB       -51.4570   18.3930   45.3920 C.3   108  ASN108      0.1155
     86  CG       -50.2400   17.9760   46.1610 C.2   108  ASN108      0.2627
     87  OD1      -50.2280   17.9840   47.4020 O.2   108  ASN108     -0.2716
     88  ND2      -49.2100   17.5540   45.4320 N.am  108  ASN108     -0.0877
     89  N        -50.0400   20.8140   49.2580 N.3   111  LEU111     -0.1245
     90  CA       -49.1170   21.5890   48.4320 C.3   111  LEU111      0.1561
     91  C        -49.6820   22.9630   48.0800 C.2   111  LEU111      0.2260
     92  O        -48.9680   23.9600   48.1250 O.2   111  LEU111     -0.2867
     93  CB       -48.7630   20.8430   47.1570 C.3   111  LEU111      0.0270
     94  CG       -47.7900   21.6590   46.3160 C.3   111  LEU111      0.0019
     95  CD1      -46.4550   21.7450   47.0470 C.3   111  LEU111      0.0001
     96  CD2      -47.6190   21.0240   44.9580 C.3   111  LEU111      0.0001
     97  N        -49.2320   25.0790   51.0580 N.3   114  GLU114     -0.1231
     98  CA       -47.8210   25.4530   51.1730 C.3   114  GLU114      0.1699
     99  C        -47.4560   26.5820   50.2130 C.2   114  GLU114      0.2592
    100  O        -46.6870   27.4850   50.5540 O.2   114  GLU114     -0.2718
    101  CB       -46.9190   24.2460   50.8980 C.3   114  GLU114      0.0402
    102  CG       -46.8770   23.2020   51.9990 C.3   114  GLU114      0.1161
    103  CD       -46.1320   21.9490   51.5740 C.2   114  GLU114      0.3649
    104  OE1      -45.0130   22.0730   51.0300 O.co2 114  GLU114     -0.2457
    105  OE2      -46.6740   20.8390   51.7780 O.co2 114  GLU114     -0.2457
    106  N        -48.0150   26.5180   49.0090 N.am  115  ILE115     -0.1980
    107  CA       -47.7720   27.5350   47.9950 C.3   115  ILE115      0.1595
    108  C        -48.4560   28.8300   48.3970 C.2   115  ILE115      0.2287
    109  O        -47.8830   29.9150   48.2650 O.2   115  ILE115     -0.2864
    110  CB       -48.2790   27.0950   46.6120 C.3   115  ILE115      0.0276
    111  CG1      -47.4920   25.8790   46.1230 C.3   115  ILE115      0.0022
    112  CG2      -48.1840   28.2460   45.6160 C.3   115  ILE115      0.0022
    113  CD1      -48.0380   25.2770   44.8550 C.3   115  ILE115      0.0001
    114  N        -46.5210   31.0690   50.8700 N.3   118  LEU118     -0.1245
    115  CA       -45.3680   31.8210   50.3740 C.3   118  LEU118      0.1561
    116  C        -45.6420   33.3290   50.3280 C.2   118  LEU118      0.2260
    117  O        -44.7170   34.1440   50.3180 O.2   118  LEU118     -0.2867
    118  CB       -44.9650   31.3220   48.9890 C.3   118  LEU118      0.0270
    119  CG       -44.5120   29.8690   48.9030 C.3   118  LEU118      0.0019
    120  CD1      -44.1740   29.5250   47.4740 C.3   118  LEU118      0.0001
    121  CD2      -43.3130   29.6430   49.7910 C.3   118  LEU118      0.0001
    122  N        -38.1170   29.7350   51.8840 N.3   127  ASN127     -0.1240
    123  CA       -38.4630   28.3240   51.7590 C.3   127  ASN127      0.1653
    124  C        -37.2460   27.5870   51.2060 C.2   127  ASN127      0.2266
    125  O        -36.6370   28.0260   50.2340 O.2   127  ASN127     -0.2867
    126  CB       -39.6900   28.1210   50.8610 C.3   127  ASN127      0.1155
    127  CG       -40.1620   26.6710   50.8230 C.2   127  ASN127      0.2627
    128  OD1      -39.4930   25.7960   50.2690 O.2   127  ASN127     -0.2716
    129  ND2      -41.3240   26.4130   51.4170 N.am  127  ASN127     -0.0877
    130  N        -36.8380   24.7640   49.7010 N.3   129  GLN129     -0.1231
    131  CA       -36.9900   24.1380   48.3900 C.3   129  GLN129      0.1698
    132  C        -36.7920   25.1760   47.2850 C.2   129  GLN129      0.2592
    133  O        -36.2980   24.8670   46.2010 O.2   129  GLN129     -0.2718
    134  CB       -38.3730   23.4980   48.2940 C.3   129  GLN129      0.0381
    135  CG       -38.6500   22.5110   49.4170 C.3   129  GLN129      0.0905
    136  CD       -39.9270   21.7260   49.2130 C.2   129  GLN129      0.2608
    137  OE1      -40.0870   20.9970   48.2320 O.2   129  GLN129     -0.2717
    138  NE2      -40.8540   21.8730   50.1570 N.am  129  GLN129     -0.0878
    139  N        -37.1670   26.4140   47.5940 N.am  130  LEU130     -0.1980
    140  CA       -37.0520   27.5410   46.6730 C.3   130  LEU130      0.1596
    141  C        -35.8150   28.4100   46.9030 C.2   130  LEU130      0.2287
    142  O        -35.6710   29.4590   46.2790 O.2   130  LEU130     -0.2864
    143  CB       -38.3040   28.4150   46.7510 C.3   130  LEU130      0.0297
    144  CG       -39.6220   27.6920   46.4730 C.3   130  LEU130      0.0022
    145  CD1      -40.7910   28.6470   46.6240 C.3   130  LEU130      0.0001
    146  CD2      -39.6230   27.0310   45.1030 C.3   130  LEU130      0.0001
    147  N        -36.9580   21.5460   31.5720 N.3   146  GLU146     -0.1245
    148  CA       -37.8930   20.5670   32.1030 C.3   146  GLU146      0.1567
    149  C        -39.1350   20.4370   31.2320 C.2   146  GLU146      0.2260
    150  O        -39.5160   19.3290   30.8450 O.2   146  GLU146     -0.2867
    151  CB       -38.2980   20.9670   33.5130 C.3   146  GLU146      0.0388
    152  CG       -39.3020   20.0550   34.1650 C.3   146  GLU146      0.1160
    153  CD       -38.8400   19.6450   35.5400 C.2   146  GLU146      0.3649
    154  OE1      -37.7190   19.0970   35.6350 O.co2 146  GLU146     -0.2457
    155  OE2      -39.5770   19.8920   36.5190 O.co2 146  GLU146     -0.2457
    156  N        -41.0070   17.2820   29.2920 N.3   150  LEU150     -0.1245
    157  CA       -42.4070   16.9500   29.5360 C.3   150  LEU150      0.1561
    158  C        -43.2300   16.9270   28.2550 C.2   150  LEU150      0.2260
    159  O        -44.1010   16.0770   28.0810 O.2   150  LEU150     -0.2867
    160  CB       -43.0150   17.9390   30.5240 C.3   150  LEU150      0.0270
    161  CG       -42.6550   17.7890   32.0000 C.3   150  LEU150      0.0019
    162  CD1      -43.1520   18.9880   32.7600 C.3   150  LEU150      0.0001
    163  CD2      -43.2910   16.5290   32.5530 C.3   150  LEU150      0.0001
@<TRIPOS>BOND
     1   159   158    2
     2   158   157    1
     3   156   157    1
     4   157   160    1
     5    16    17    1
     6    16    13    1
     7    19    21   ar
     8    19    17   ar
     9    21    22   ar
    10    17    18   ar
    11    18    20   ar
    12    22    20   ar
    13    22    23    1
    14   160   161    1
    15   150   149    2
    16   149   148    1
    17    14    13    1
    18    14    15    2
    19   147   148    1
    20    13    12    1
    21   161   163    1
    22   161   162    1
    23   148   151    1
    24    12     3   am
    25    24    25    1
    26    10     9    1
    27     1     2    1
    28   151   152    1
    29     3     2    1
    30     3     4    2
    31    11     9    1
    32     9     8    2
    33    25    26    1
    34    25    28    1
    35   152   153    1
    36     2     5    1
    37    34    35    2
    38    34    33    1
    39    32    26   am
    40    32    33    1
    41    26    27    2
    42    28    29    1
    43     5     6    1
    44     8     7    1
    45    36    33    1
    46    36    37    1
    47     7     6    1
    48    56    57    1
    49    56    53    1
    50   153   154   ar
    51   153   155   ar
    52    41    42    1
    53    37    38    1
    54    54    53    1
    55    54    55    2
    56    29    30    1
    57    57    58    1
    58    52    53    1
    59    52    43   am
    60    42    43    1
    61    42    45    1
    62    30    31    1
    63    80    78   ar
    64    80    79   ar
    65    43    44    2
    66    38    39    1
    67    40    39    1
    68    78    76   ar
    69    59    58   ar
    70    58    60   ar
    71    45    46    1
    72    79    77   ar
    73    61    62    1
    74    76    75   ar
    75    46    48   ar
    76    46    47   ar
    77    63    62    1
    78    63    64    2
    79    77    75   ar
    80    48    50   ar
    81    62    65    1
    82    75    74    1
    83    65    66    1
    84    47    49   ar
    85    50    51   ar
    86    67    66    1
    87    67    68    1
    88    70    71    1
    89    69    68    1
    90    74    71    1
    91    71    72    1
    92    49    51   ar
    93    72    73    2
    94   113   111    1
    95    81    82    1
    96    96    94    1
    97   146   144    1
    98    85    82    1
    99    85    86    1
   100    88    86   am
   101   112   110    1
   102    82    83    1
   103   111   110    1
   104    86    87    2
   105   133   132    2
   106   142   141    2
   107    94    95    1
   108    94    93    1
   109   144   145    1
   110   144   143    1
   111   110   107    1
   112   140   143    1
   113   140   141    1
   114   140   139    1
   115    84    83    2
   116    93    90    1
   117   132   139   am
   118   132   131    1
   119   120   119    1
   120   107   108    1
   121   107   106    1
   122    91    92    2
   123    91    90    1
   124   137   136    2
   125   109   108    2
   126   134   131    1
   127   134   135    1
   128   131   130    1
   129    90    89    1
   130   119   118    1
   131   119   121    1
   132   118   115    1
   133   106    99   am
   134   136   135    1
   135   136   138   am
   136    99   100    2
   137    99    98    1
   138   125   124    2
   139   128   127    2
   140   117   116    2
   141   116   115    1
   142   115   114    1
   143   127   126    1
   144   127   129   am
   145   126   123    1
   146   101    98    1
   147   101   102    1
   148   104   103   ar
   149    97    98    1
   150   124   123    1
   151   103   105   ar
   152   103   102    1
   153   123   122    1
