@<TRIPOS>MOLECULE
tmp/5c7fC00.pdb
 222 209 0 0 0
SMALL
GASTEIGER

@<TRIPOS>ATOM
      1  N          7.5230  -82.2020  -14.5420 N.3    67  ARG67      -0.1231
      2  CA         8.8770  -81.6430  -14.5110 C.3    67  ARG67       0.1694
      3  C          9.1460  -80.5840  -15.5930 C.2    67  ARG67       0.2592
      4  O          9.9270  -79.6640  -15.3630 O.2    67  ARG67      -0.2718
      5  CB         9.9170  -82.7570  -14.6200 C.3    67  ARG67       0.0321
      6  CG         9.5780  -83.7440  -15.6940 C.3    67  ARG67       0.0489
      7  CD        10.6990  -84.7060  -15.9670 C.3    67  ARG67       0.2205
      8  NE        10.4620  -85.3640  -17.2490 N.pl3  67  ARG67      -0.0865
      9  CZ        11.3980  -85.5910  -18.1600 C.cat  67  ARG67       0.5346
     10  NH1       12.6320  -85.1520  -17.9630 N.pl3  67  ARG67       0.1354
     11  NH2       11.0910  -86.2060  -19.2910 N.pl3  67  ARG67       0.1354
     12  N          8.5360  -80.7120  -16.7650 N.am   68  TYR68      -0.1976
     13  CA         8.6400  -79.6670  -17.7930 C.3    68  TYR68       0.1639
     14  C          8.0240  -78.3720  -17.3300 C.2    68  TYR68       0.2290
     15  O          8.6570  -77.3180  -17.3290 O.2    68  TYR68      -0.2864
     16  CB         7.9530  -80.0880  -19.0950 C.3    68  TYR68       0.0560
     17  CG         8.6090  -81.2570  -19.7400 C.ar   68  TYR68      -0.0198
     18  CD1        9.6810  -81.0810  -20.5950 C.ar   68  TYR68      -0.0009
     19  CD2        8.1660  -82.5420  -19.4930 C.ar   68  TYR68      -0.0009
     20  CE1       10.3030  -82.1550  -21.1860 C.ar   68  TYR68       0.0417
     21  CE2        8.7740  -83.6280  -20.0840 C.ar   68  TYR68       0.0417
     22  CZ         9.8440  -83.4270  -20.9300 C.ar   68  TYR68       0.1957
     23  OH        10.4560  -84.5100  -21.5150 O.3    68  TYR68      -0.2866
     24  N          7.3180  -77.5360  -14.4660 N.3    70  MET70      -0.1230
     25  CA         7.9880  -77.0160  -13.2720 C.3    70  MET70       0.1702
     26  C          9.2220  -76.1770  -13.6280 C.2    70  MET70       0.2592
     27  O          9.4380  -75.1160  -13.0420 O.2    70  MET70      -0.2718
     28  CB         8.4190  -78.1370  -12.3270 C.3    70  MET70       0.0401
     29  CG         7.9670  -77.8540  -10.9080 C.3    70  MET70       0.0596
     30  SD         8.7630  -78.7650   -9.5700 S.3    70  MET70      -0.1393
     31  CE         8.0800  -77.8660   -8.1760 C.3    70  MET70       0.0692
     32  N         10.0220  -76.6440  -14.5840 N.am   71  LYS71      -0.1980
     33  CA        11.1970  -75.8820  -14.9980 C.3    71  LYS71       0.1596
     34  C         10.7800  -74.5890  -15.6680 C.2    71  LYS71       0.2287
     35  O         11.4650  -73.5720  -15.5230 O.2    71  LYS71      -0.2864
     36  CB        12.0850  -76.6990  -15.9400 C.3    71  LYS71       0.0298
     37  CG        13.4670  -76.1070  -16.2300 C.3    71  LYS71       0.0038
     38  CD        14.3700  -77.2060  -16.7900 C.3    71  LYS71       0.0206
     39  CE        15.4700  -76.7100  -17.7090 C.3    71  LYS71       0.1093
     40  NZ        16.3540  -75.8110  -16.9780 N.3    71  LYS71      -0.1314
     41  N          9.9370  -72.1840  -12.9550 N.3    74  PHE74      -0.1227
     42  CA        11.1630  -71.8730  -12.2490 C.3    74  PHE74       0.1736
     43  C         12.0090  -70.8950  -13.0340 C.2    74  PHE74       0.2595
     44  O         12.4870  -69.9070  -12.4800 O.2    74  PHE74      -0.2718
     45  CB        11.9790  -73.1290  -11.9500 C.3    74  PHE74       0.0547
     46  CG        13.3580  -72.8300  -11.4490 C.ar   74  PHE74      -0.0202
     47  CD1       13.5630  -72.4660  -10.1300 C.ar   74  PHE74      -0.0042
     48  CD2       14.4470  -72.8820  -12.3040 C.ar   74  PHE74      -0.0042
     49  CE1       14.8240  -72.1660   -9.6720 C.ar   74  PHE74      -0.0003
     50  CE2       15.7190  -72.5840  -11.8410 C.ar   74  PHE74      -0.0003
     51  CZ        15.9060  -72.2320  -10.5280 C.ar   74  PHE74      -0.0000
     52  N         12.1920  -71.1520  -14.3250 N.am   75  GLU75      -0.1979
     53  CA        13.0210  -70.2600  -15.1220 C.3    75  GLU75       0.1602
     54  C         12.4180  -68.8540  -15.1260 C.2    75  GLU75       0.2287
     55  O         13.1470  -67.8830  -14.9430 O.2    75  GLU75      -0.2864
     56  CB        13.2090  -70.7940  -16.5300 C.3    75  GLU75       0.0415
     57  CG        14.0520  -72.0630  -16.5950 C.3    75  GLU75       0.1163
     58  CD        15.5210  -71.8460  -16.2120 C.2    75  GLU75       0.3649
     59  OE1       16.1470  -70.8860  -16.7070 O.co2  75  GLU75      -0.2457
     60  OE2       16.0680  -72.6510  -15.4270 O.co2  75  GLU75      -0.2457
     61  N         12.8300  -67.2520  -11.6300 N.3    78  LYS78      -0.1231
     62  CA        14.2380  -66.9930  -11.4300 C.3    78  LYS78       0.1693
     63  C         14.6600  -65.6940  -12.1110 C.2    78  LYS78       0.2591
     64  O         15.3230  -64.8490  -11.4940 O.2    78  LYS78      -0.2718
     65  CB        15.0880  -68.1470  -11.9610 C.3    78  LYS78       0.0285
     66  CG        16.5650  -67.8760  -11.8580 C.3    78  LYS78       0.0035
     67  CD        17.3260  -68.4470  -13.0310 C.3    78  LYS78       0.0206
     68  CE        17.7340  -69.8660  -12.7960 C.3    78  LYS78       0.1093
     69  NZ        18.0960  -70.5530  -14.0700 N.3    78  LYS78      -0.1314
     70  N         14.2800  -65.5300  -13.3730 N.am   79  GLN79      -0.1979
     71  CA        14.6710  -64.3420  -14.1340 C.3    79  GLN79       0.1601
     72  C         14.0590  -63.0870  -13.5580 C.2    79  GLN79       0.2287
     73  O         14.6880  -62.0340  -13.5240 O.2    79  GLN79      -0.2864
     74  CB        14.2580  -64.4810  -15.6090 C.3    79  GLN79       0.0394
     75  CG        14.6510  -63.2860  -16.4520 C.3    79  GLN79       0.0908
     76  CD        16.1430  -63.1930  -16.6560 C.2    79  GLN79       0.2608
     77  OE1       16.8640  -64.1740  -16.5080 O.2    79  GLN79      -0.2717
     78  NE2       16.6180  -61.9980  -16.9790 N.am   79  GLN79      -0.0878
     79  N         16.1880  -62.1150  -10.6420 N.3    82  LEU82      -0.1245
     80  CA        17.4590  -61.5030  -11.0040 C.3    82  LEU82       0.1561
     81  C         17.2710  -60.0820  -11.4890 C.2    82  LEU82       0.2260
     82  O         18.0980  -59.2200  -11.2430 O.2    82  LEU82      -0.2867
     83  CB        18.1880  -62.3280  -12.0580 C.3    82  LEU82       0.0270
     84  CG        18.6450  -63.6990  -11.5640 C.3    82  LEU82       0.0019
     85  CD1       19.3850  -64.4430  -12.6510 C.3    82  LEU82       0.0001
     86  CD2       19.5120  -63.5520  -10.3330 C.3    82  LEU82       0.0001
     87  N          9.8280  -74.2330   -4.8700 N.3   104  PHE104     -0.1241
     88  CA        10.8560  -75.0770   -5.4680 C.3   104  PHE104      0.1605
     89  C         11.8780  -75.5750   -4.4320 C.2   104  PHE104      0.2264
     90  O         12.6720  -76.4720   -4.7140 O.2   104  PHE104     -0.2867
     91  CB        11.5670  -74.3140   -6.5870 C.3   104  PHE104      0.0534
     92  CG        10.6560  -73.8790   -7.6940 C.ar  104  PHE104     -0.0203
     93  CD1       10.1630  -74.7930   -8.6090 C.ar  104  PHE104     -0.0042
     94  CD2       10.2670  -72.5550   -7.8110 C.ar  104  PHE104     -0.0042
     95  CE1        9.3170  -74.3920   -9.6300 C.ar  104  PHE104     -0.0003
     96  CE2        9.4140  -72.1460   -8.8340 C.ar  104  PHE104     -0.0003
     97  CZ         8.9400  -73.0690   -9.7430 C.ar  104  PHE104     -0.0000
     98  N         14.3660  -78.9060   -4.2160 N.3   108  ASN108     -0.1240
     99  CA        15.7900  -78.6370   -4.2440 C.3   108  ASN108      0.1653
    100  C         16.1710  -77.6730   -3.1140 C.2   108  ASN108      0.2266
    101  O         16.2390  -76.4640   -3.3440 O.2   108  ASN108     -0.2867
    102  CB        16.1570  -78.0760   -5.6140 C.3   108  ASN108      0.1155
    103  CG        17.4790  -78.6020   -6.1240 C.2   108  ASN108      0.2627
    104  OD1       18.4570  -78.7290   -5.3750 O.2   108  ASN108     -0.2716
    105  ND2       17.5150  -78.9190   -7.4220 N.am  108  ASN108     -0.0877
    106  N         19.5910  -75.6040   -3.9300 N.3   111  LEU111     -0.1245
    107  CA        19.5220  -74.5880   -4.9730 C.3   111  LEU111      0.1561
    108  C         18.8340  -73.3190   -4.4750 C.2   111  LEU111      0.2260
    109  O         19.2530  -72.2090   -4.7880 O.2   111  LEU111     -0.2867
    110  CB        18.8070  -75.1410   -6.2020 C.3   111  LEU111      0.0270
    111  CG        18.6040  -74.1410   -7.3360 C.3   111  LEU111      0.0019
    112  CD1       19.9440  -73.7950   -7.8820 C.3   111  LEU111      0.0001
    113  CD2       17.7410  -74.7360   -8.4300 C.3   111  LEU111      0.0001
    114  N         21.4000  -71.4430   -2.5560 N.3   114  GLU114     -0.1231
    115  CA        22.3380  -70.8180   -3.4890 C.3   114  GLU114      0.1699
    116  C         21.7250  -69.5880   -4.1560 C.2   114  GLU114      0.2592
    117  O         22.4160  -68.6000   -4.4120 O.2   114  GLU114     -0.2718
    118  CB        22.7760  -71.8370   -4.5360 C.3   114  GLU114      0.0402
    119  CG        23.7620  -72.8700   -4.0300 C.3   114  GLU114      0.1161
    120  CD        23.8360  -74.0960   -4.9290 C.2   114  GLU114      0.3649
    121  OE1       23.9940  -73.9490   -6.1650 O.co2 114  GLU114     -0.2457
    122  OE2       23.7740  -75.2210   -4.3790 O.co2 114  GLU114     -0.2457
    123  N         20.4210  -69.6450   -4.4190 N.am  115  ILE115     -0.1980
    124  CA        19.7200  -68.5240   -5.0300 C.3   115  ILE115      0.1595
    125  C         19.5510  -67.3820   -4.0500 C.2   115  ILE115      0.2287
    126  O         19.7410  -66.2070   -4.3970 O.2   115  ILE115     -0.2864
    127  CB        18.3130  -68.9320   -5.5470 C.3   115  ILE115      0.0276
    128  CG1       18.4280  -69.8180   -6.7770 C.3   115  ILE115      0.0022
    129  CG2       17.4730  -67.7120   -5.9010 C.3   115  ILE115      0.0022
    130  CD1       17.1200  -70.3830   -7.2310 C.3   115  ILE115      0.0001
    131  N         22.4830  -64.9520   -3.3970 N.3   118  LEU118     -0.1245
    132  CA        22.8360  -63.9400   -4.3910 C.3   118  LEU118      0.1561
    133  C         22.4870  -62.5480   -3.8990 C.2   118  LEU118      0.2260
    134  O         22.9890  -61.5640   -4.4310 O.2   118  LEU118     -0.2867
    135  CB        22.1490  -64.1960   -5.7120 C.3   118  LEU118      0.0270
    136  CG        22.3690  -65.5330   -6.4120 C.3   118  LEU118      0.0019
    137  CD1       21.4540  -65.5680   -7.6320 C.3   118  LEU118      0.0001
    138  CD2       23.8290  -65.7500   -6.7920 C.3   118  LEU118      0.0001
    139  N         28.9860  -64.9140   -8.8800 N.3   127  ASN127     -0.1240
    140  CA        28.7110  -66.3470   -8.8960 C.3   127  ASN127      0.1653
    141  C         29.1040  -66.9040  -10.2620 C.2   127  ASN127      0.2266
    142  O         28.7350  -66.3290  -11.2860 O.2   127  ASN127     -0.2867
    143  CB        27.2290  -66.6070   -8.6070 C.3   127  ASN127      0.1155
    144  CG        26.8960  -68.0860   -8.4860 C.2   127  ASN127      0.2627
    145  OD1       26.9830  -68.8440   -9.4540 O.2   127  ASN127     -0.2716
    146  ND2       26.4810  -68.4960   -7.2910 N.am  127  ASN127     -0.0877
    147  N         28.2470  -69.5380  -11.9530 N.3   129  GLN129     -0.1231
    148  CA        27.1780  -70.0530  -12.7870 C.3   129  GLN129      0.1698
    149  C         26.4390  -68.9300  -13.5260 C.2   129  GLN129      0.2592
    150  O         25.9270  -69.1280  -14.6290 O.2   129  GLN129     -0.2718
    151  CB        26.2150  -70.8680  -11.9380 C.3   129  GLN129      0.0381
    152  CG        26.8640  -72.0710  -11.2860 C.3   129  GLN129      0.0905
    153  CD        25.8480  -73.0960  -10.8620 C.2   129  GLN129      0.2608
    154  OE1       25.1300  -73.6630  -11.6930 O.2   129  GLN129     -0.2717
    155  NE2       25.7520  -73.3230   -9.5610 N.am  129  GLN129     -0.0878
    156  N         26.3880  -67.7580  -12.9040 N.am  130  LEU130     -0.1980
    157  CA        25.7820  -66.5630  -13.4900 C.3   130  LEU130      0.1596
    158  C         26.8190  -65.6540  -14.1320 C.2   130  LEU130      0.2287
    159  O         26.5240  -64.5160  -14.4920 O.2   130  LEU130     -0.2864
    160  CB        24.9820  -65.7960  -12.4430 C.3   130  LEU130      0.0297
    161  CG        23.8220  -66.6170  -11.9040 C.3   130  LEU130      0.0022
    162  CD1       23.0840  -65.9010  -10.7900 C.3   130  LEU130      0.0001
    163  CD2       22.9090  -66.8480  -13.0700 C.3   130  LEU130      0.0001
    164  N         28.3590  -65.4440  -16.9490 N.3   132  LYS132     -0.1231
    165  CA        28.3240  -65.0460  -18.3550 C.3   132  LYS132      0.1693
    166  C         27.1000  -64.2020  -18.6460 C.2   132  LYS132      0.2592
    167  O         26.8680  -63.7810  -19.7770 O.2   132  LYS132     -0.2718
    168  CB        28.3840  -66.2850  -19.2250 C.3   132  LYS132      0.0285
    169  CG        29.7020  -66.9920  -19.0090 C.3   132  LYS132      0.0035
    170  CD        29.7560  -68.3370  -19.6790 C.3   132  LYS132      0.0206
    171  CE        31.1330  -68.9420  -19.5030 C.3   132  LYS132      0.1093
    172  NZ        31.1530  -70.3510  -19.9600 N.3   132  LYS132     -0.1314
    173  N         26.3470  -63.9400  -17.5840 N.am  133  TYR133     -0.1976
    174  CA        25.0540  -63.2930  -17.6620 C.3   133  TYR133      0.1639
    175  C         25.2370  -61.7890  -17.8320 C.2   133  TYR133      0.2290
    176  O         25.8410  -61.1240  -16.9970 O.2   133  TYR133     -0.2864
    177  CB        24.2630  -63.5920  -16.3950 C.3   133  TYR133      0.0560
    178  CG        22.8810  -63.0150  -16.3240 C.ar  133  TYR133     -0.0198
    179  CD1       22.6650  -61.6540  -16.3560 C.ar  133  TYR133     -0.0009
    180  CD2       21.7920  -63.8370  -16.0880 C.ar  133  TYR133     -0.0009
    181  CE1       21.4130  -61.1290  -16.2660 C.ar  133  TYR133      0.0417
    182  CE2       20.5270  -63.3170  -15.9750 C.ar  133  TYR133      0.0417
    183  CZ        20.3470  -61.9590  -16.0610 C.ar  133  TYR133      0.1957
    184  OH        19.0910  -61.4240  -15.9560 O.3   133  TYR133     -0.2866
    185  N         19.4520  -61.8920  -21.5670 N.3   139  ALA139     -0.1245
    186  CA        19.1220  -62.9760  -20.6490 C.3   139  ALA139      0.1562
    187  C         17.7250  -63.5180  -20.9330 C.2   139  ALA139      0.2260
    188  O         17.5110  -64.7300  -21.0020 O.2   139  ALA139     -0.2867
    189  CB        19.2210  -62.5000  -19.2230 C.3   139  ALA139      0.0290
    190  N         17.8200  -65.7250  -24.0310 N.3   142  ILE142     -0.1231
    191  CA        18.4360  -67.0170  -23.7740 C.3   142  ILE142      0.1692
    192  C         17.4300  -67.9440  -23.1250 C.2   142  ILE142      0.2591
    193  O         17.2320  -69.0900  -23.5380 O.2   142  ILE142     -0.2718
    194  CB        19.6570  -66.8980  -22.8350 C.3   142  ILE142      0.0266
    195  CG1       20.7970  -66.1070  -23.4790 C.3   142  ILE142      0.0019
    196  CG2       20.1330  -68.2860  -22.4180 C.3   142  ILE142      0.0020
    197  CD1       21.4250  -66.8080  -24.6570 C.3   142  ILE142      0.0001
    198  N         16.8030  -67.4250  -22.0830 N.am  143  MET143     -0.1979
    199  CA        15.8110  -68.1600  -21.3260 C.3   143  MET143      0.1605
    200  C         14.5720  -68.5030  -22.1750 C.2   143  MET143      0.2287
    201  O         13.9560  -69.5670  -22.0260 O.2   143  MET143     -0.2864
    202  CB        15.4270  -67.3320  -20.1190 C.3   143  MET143      0.0413
    203  CG        14.1430  -67.7350  -19.5260 C.3   143  MET143      0.0598
    204  SD        13.0220  -66.3610  -19.3830 S.3   143  MET143     -0.1393
    205  CE        12.4730  -66.7920  -17.7710 C.3   143  MET143      0.0692
    206  N         14.8890  -71.6000  -24.3000 N.3   146  GLU146     -0.1245
    207  CA        14.7400  -72.8100  -23.4990 C.3   146  GLU146      0.1567
    208  C         13.2850  -73.0920  -23.1770 C.2   146  GLU146      0.2260
    209  O         12.8450  -74.2420  -23.2600 O.2   146  GLU146     -0.2867
    210  CB        15.5380  -72.6980  -22.2000 C.3   146  GLU146      0.0388
    211  CG        15.4910  -73.9650  -21.3520 C.3   146  GLU146      0.1160
    212  CD        16.0300  -75.2010  -22.0830 C.2   146  GLU146      0.3649
    213  OE1       16.7950  -75.0510  -23.0650 O.co2 146  GLU146     -0.2457
    214  OE2       15.6730  -76.3270  -21.6770 O.co2 146  GLU146     -0.2457
    215  N         10.9630  -76.3680  -23.7150 N.3   150  LEU150     -0.1245
    216  CA        10.2460  -76.9460  -22.5830 C.3   150  LEU150      0.1561
    217  C          8.7620  -77.0390  -22.8510 C.2   150  LEU150      0.2260
    218  O          8.1200  -78.0140  -22.4750 O.2   150  LEU150     -0.2867
    219  CB        10.4650  -76.1180  -21.3200 C.3   150  LEU150      0.0270
    220  CG        11.8230  -76.0900  -20.6810 C.3   150  LEU150      0.0019
    221  CD1       11.7870  -75.0190  -19.6180 C.3   150  LEU150      0.0001
    222  CD2       12.1590  -77.4550  -20.0820 C.3   150  LEU150      0.0001
@<TRIPOS>BOND
     1   197   195    1
     2   206   207    1
     3   190   191    1
     4   191   192    1
     5   191   194    1
     6   215   216    1
     7   193   192    2
     8   207   208    1
     9   207   210    1
    10   195   194    1
    11   209   208    2
    12   192   198   am
    13   213   212   ar
    14   217   216    1
    15   217   218    2
    16   194   196    1
    17   216   219    1
    18   210   211    1
    19   200   201    2
    20   200   199    1
    21   212   214   ar
    22   212   211    1
    23   198   199    1
    24   185   186    1
    25    23    22    1
    26   199   202    1
    27   219   220    1
    28    20    22   ar
    29    20    18   ar
    30   188   187    2
    31   187   186    1
    32    22    21   ar
    33   220   222    1
    34   220   221    1
    35   186   189    1
    36    18    17   ar
    37   202   203    1
    38    21    19   ar
    39   172   171    1
    40   167   166    2
    41    17    19   ar
    42    17    16    1
    43   170   171    1
    44   170   169    1
    45   203   204    1
    46   204   205    1
    47    11     9    1
    48   168   169    1
    49   168   165    1
    50    16    13    1
    51   166   165    1
    52   166   173   am
    53   165   164    1
    54     9    10    1
    55     9     8    2
    56   175   174    1
    57   175   176    2
    58    13    14    1
    59    13    12    1
    60    39    40    1
    61    39    38    1
    62   174   173    1
    63   174   177    1
    64    14    15    2
    65     8     7    1
    66    78    76   am
    67    38    37    1
    68    12     3   am
    69    59    58   ar
    70    76    77    2
    71    76    75    1
    72    57    56    1
    73    57    58    1
    74    56    53    1
    75    75    74    1
    76   177   178    1
    77   179   178   ar
    78   179   181   ar
    79   178   180   ar
    80   181   183   ar
    81    37    36    1
    82    58    60   ar
    83   180   182   ar
    84   183   182   ar
    85   183   184    1
    86     7     6    1
    87    36    33    1
    88     6     5    1
    89    34    35    2
    90    34    33    1
    91    74    71    1
    92     3     4    2
    93     3     2    1
    94    54    53    1
    95    54    55    2
    96    53    52    1
    97    33    32    1
    98   150   149    2
    99     5     2    1
   100    32    26   am
   101     1     2    1
   102   159   158    2
   103    24    25    1
   104    52    43   am
   105    71    72    1
   106    71    70    1
   107   158   157    1
   108    69    68    1
   109    26    25    1
   110    26    27    2
   111    72    73    2
   112   149   156   am
   113   149   148    1
   114   157   156    1
   115   157   160    1
   116    70    63   am
   117    25    28    1
   118   163   161    1
   119    43    44    2
   120    43    42    1
   121    67    68    1
   122    67    66    1
   123    41    42    1
   124   148   147    1
   125   148   151    1
   126    85    84    1
   127   160   161    1
   128    28    29    1
   129    48    50   ar
   130    48    46   ar
   131    42    45    1
   132    63    64    2
   133    63    62    1
   134    83    84    1
   135    83    80    1
   136    65    66    1
   137    65    62    1
   138    45    46    1
   139   151   152    1
   140   161   162    1
   141    50    51   ar
   142   154   153    2
   143    61    62    1
   144    84    86    1
   145    81    82    2
   146    81    80    1
   147    46    47   ar
   148   152   153    1
   149   142   141    2
   150    80    79    1
   151    29    30    1
   152   153   155   am
   153    51    49   ar
   154   141   140    1
   155    47    49   ar
   156    97    95   ar
   157    97    96   ar
   158    95    93   ar
   159    30    31    1
   160   145   144    2
   161   140   139    1
   162   140   143    1
   163    96    94   ar
   164    93    92   ar
   165   143   144    1
   166   144   146   am
   167   113   111    1
   168   112   111    1
   169    94    92   ar
   170    92    91    1
   171   137   136    1
   172   105   103   am
   173   111   110    1
   174   130   128    1
   175   138   136    1
   176   128   127    1
   177    91    88    1
   178   136   135    1
   179   110   107    1
   180   121   120   ar
   181   103   102    1
   182   103   104    2
   183   129   127    1
   184   135   132    1
   185   102    99    1
   186   127   124    1
   187    88    87    1
   188    88    89    1
   189   124   123    1
   190   124   125    1
   191   107   108    1
   192   107   106    1
   193   120   122   ar
   194   120   119    1
   195   109   108    2
   196    90    89    2
   197   118   119    1
   198   118   115    1
   199   134   133    2
   200   123   116   am
   201   117   116    2
   202   126   125    2
   203   132   133    1
   204   132   131    1
   205    99    98    1
   206    99   100    1
   207   116   115    1
   208   115   114    1
   209   101   100    2
