@<TRIPOS>MOLECULE
tmp/5c7fB00.pdb
 219 208 0 0 0
SMALL
GASTEIGER

@<TRIPOS>ATOM
      1  N         13.4080  -14.4570   15.4430 N.3    67  ARG67      -0.1231
      2  CA        13.2750  -14.5220   13.9980 C.3    67  ARG67       0.1694
      3  C         14.5580  -14.9620   13.2840 C.2    67  ARG67       0.2592
      4  O         14.4960  -15.7060   12.3040 O.2    67  ARG67      -0.2718
      5  CB        12.8330  -13.1630   13.4710 C.3    67  ARG67       0.0321
      6  CG        12.6420  -13.2070   11.9450 C.3    67  ARG67       0.0489
      7  CD        12.2850  -11.8850   11.3630 C.3    67  ARG67       0.2205
      8  NE        13.2440  -10.8190   11.7130 N.pl3  67  ARG67      -0.0865
      9  CZ        14.3630  -10.6030   11.0090 C.cat  67  ARG67       0.5346
     10  NH1       14.6400  -11.3830    9.9740 N.pl3  67  ARG67       0.1354
     11  NH2       15.1900   -9.6380   11.3550 N.pl3  67  ARG67       0.1354
     12  N         15.7130  -14.5570   13.8070 N.am   68  TYR68      -0.1976
     13  CA        16.9980  -14.9960   13.2620 C.3    68  TYR68       0.1639
     14  C         17.1250  -16.5060   13.3680 C.2    68  TYR68       0.2290
     15  O         17.3900  -17.1870   12.3760 O.2    68  TYR68      -0.2864
     16  CB        18.1650  -14.3400   13.9960 C.3    68  TYR68       0.0560
     17  CG        18.2440  -12.8480   13.8360 C.ar   68  TYR68      -0.0198
     18  CD1       18.9460  -12.2790   12.7880 C.ar   68  TYR68      -0.0009
     19  CD2       17.5910  -12.0050   14.7260 C.ar   68  TYR68      -0.0009
     20  CE1       19.0160  -10.9060   12.6420 C.ar   68  TYR68       0.0417
     21  CE2       17.6440  -10.6370   14.5840 C.ar   68  TYR68       0.0417
     22  CZ        18.3600  -10.0920   13.5410 C.ar   68  TYR68       0.1957
     23  OH        18.4240   -8.7280   13.3930 O.3    68  TYR68      -0.2866
     24  N         14.9180  -18.5920   13.7790 N.3    70  MET70      -0.1230
     25  CA        13.8580  -19.2570   13.0260 C.3    70  MET70       0.1702
     26  C         14.2120  -19.3980   11.5640 C.2    70  MET70       0.2592
     27  O         13.9830  -20.4430   10.9750 O.2    70  MET70      -0.2718
     28  CB        12.5290  -18.5200   13.1530 C.3    70  MET70       0.0401
     29  CG        11.4230  -19.4960   13.4310 C.3    70  MET70       0.0596
     30  SD         9.7620  -18.8500   13.5760 S.3    70  MET70      -0.1393
     31  CE         8.9050  -20.4090   13.4400 C.3    70  MET70       0.0692
     32  N         14.7760  -18.3480   10.9820 N.am   71  LYS71      -0.1980
     33  CA        15.1950  -18.4130    9.5920 C.3    71  LYS71       0.1596
     34  C         16.3340  -19.4130    9.4240 C.2    71  LYS71       0.2287
     35  O         16.4170  -20.0880    8.3970 O.2    71  LYS71      -0.2864
     36  CB        15.6210  -17.0360    9.0780 C.3    71  LYS71       0.0298
     37  CG        15.8580  -16.9650    7.5660 C.3    71  LYS71       0.0038
     38  CD        15.8780  -15.5240    7.0780 C.3    71  LYS71       0.0206
     39  CE        16.7780  -15.3340    5.8560 C.3    71  LYS71       0.1093
     40  NZ        16.3900  -16.0920    4.6480 N.3    71  LYS71      -0.1314
     41  N         14.8250  -22.8570    9.3670 N.3    74  PHE74      -0.1227
     42  CA        14.0430  -22.9380    8.1520 C.3    74  PHE74       0.1736
     43  C         14.9410  -23.1870    6.9500 C.2    74  PHE74       0.2595
     44  O         14.6290  -24.0290    6.1070 O.2    74  PHE74      -0.2718
     45  CB        13.2170  -21.6770    7.9220 C.3    74  PHE74       0.0547
     46  CG        12.6020  -21.6180    6.5530 C.ar   74  PHE74      -0.0202
     47  CD1       11.4420  -22.3260    6.2730 C.ar   74  PHE74      -0.0042
     48  CD2       13.1980  -20.8870    5.5370 C.ar   74  PHE74      -0.0042
     49  CE1       10.8790  -22.2910    5.0090 C.ar   74  PHE74      -0.0003
     50  CE2       12.6440  -20.8480    4.2760 C.ar   74  PHE74      -0.0003
     51  CZ        11.4810  -21.5510    4.0110 C.ar   74  PHE74      -0.0000
     52  N         16.0360  -22.4440    6.8480 N.am   75  GLU75      -0.1979
     53  CA        16.9260  -22.6400    5.7200 C.3    75  GLU75       0.1602
     54  C         17.4650  -24.0690    5.7340 C.2    75  GLU75       0.2287
     55  O         17.4360  -24.7430    4.7090 O.2    75  GLU75      -0.2864
     56  CB        18.0690  -21.6220    5.7350 C.3    75  GLU75       0.0415
     57  CG        17.6180  -20.2040    5.4200 C.3    75  GLU75       0.1163
     58  CD        17.2010  -20.0250    3.9630 C.2    75  GLU75       0.3649
     59  OE1       17.9720  -20.4320    3.0670 O.co2  75  GLU75      -0.2457
     60  OE2       16.0960  -19.4950    3.7120 O.co2  75  GLU75      -0.2457
     61  N         14.7210  -26.5860    4.7540 N.3    78  LYS78      -0.1231
     62  CA        14.3750  -26.4250    3.3550 C.3    78  LYS78       0.1693
     63  C         15.3800  -27.1500    2.4640 C.2    78  LYS78       0.2591
     64  O         14.9930  -27.9180    1.5820 O.2    78  LYS78      -0.2718
     65  CB        14.3030  -24.9490    2.9720 C.3    78  LYS78       0.0285
     66  CG        14.0030  -24.7130    1.4990 C.3    78  LYS78       0.0035
     67  CD        14.6890  -23.4730    0.9940 C.3    78  LYS78       0.0206
     68  CE        13.8380  -22.2630    1.2470 C.3    78  LYS78       0.1093
     69  NZ        14.6470  -21.0190    1.1970 N.3    78  LYS78      -0.1314
     70  N         16.6710  -26.9290    2.6990 N.am   79  GLN79      -0.1979
     71  CA        17.7060  -27.5450    1.8660 C.3    79  GLN79       0.1601
     72  C         17.6800  -29.0550    2.0200 C.2    79  GLN79       0.2287
     73  O         17.9230  -29.7910    1.0590 O.2    79  GLN79      -0.2864
     74  CB        19.0910  -27.0190    2.2370 C.3    79  GLN79       0.0394
     75  CG        20.2170  -27.5690    1.3750 C.3    79  GLN79       0.0908
     76  CD        20.2370  -27.0000   -0.0230 C.2    79  GLN79       0.2608
     77  OE1       20.9440  -27.5110   -0.8890 O.2    79  GLN79      -0.2717
     78  NE2       19.4920  -25.9140   -0.2450 N.am   79  GLN79      -0.0878
     79  N         14.9250  -30.1500   -0.2540 N.3    82  LEU82      -0.1245
     80  CA        15.2530  -29.9980   -1.6670 C.3    82  LEU82       0.1561
     81  C         16.1920  -31.1010   -2.1370 C.2    82  LEU82       0.2260
     82  O         16.0360  -31.6430   -3.2330 O.2    82  LEU82      -0.2867
     83  CB        15.8830  -28.6330   -1.9240 C.3    82  LEU82       0.0270
     84  CG        14.9720  -27.4230   -1.7040 C.3    82  LEU82       0.0019
     85  CD1       15.7420  -26.1470   -1.9810 C.3    82  LEU82       0.0001
     86  CD2       13.7370  -27.5080   -2.5840 C.3    82  LEU82       0.0001
     87  N          6.7220  -24.4770   10.5270 N.3   104  PHE104     -0.1241
     88  CA         6.8220  -23.1560    9.9100 C.3   104  PHE104      0.1605
     89  C          5.5250  -22.7110    9.2420 C.2   104  PHE104      0.2264
     90  O          5.3870  -21.5520    8.8470 O.2   104  PHE104     -0.2867
     91  CB         7.9650  -23.1280    8.8910 C.3   104  PHE104      0.0534
     92  CG         9.3160  -23.3780    9.4930 C.ar  104  PHE104     -0.0203
     93  CD1        9.9250  -22.4050   10.2640 C.ar  104  PHE104     -0.0042
     94  CD2        9.9730  -24.5830    9.3020 C.ar  104  PHE104     -0.0042
     95  CE1       11.1680  -22.6210   10.8310 C.ar  104  PHE104     -0.0003
     96  CE2       11.2170  -24.8090    9.8670 C.ar  104  PHE104     -0.0003
     97  CZ        11.8160  -23.8260   10.6350 C.ar  104  PHE104     -0.0000
     98  N          3.3540  -19.9510   10.9780 N.3   107  PHE107     -0.1227
     99  CA         3.8710  -18.6090   10.8400 C.3   107  PHE107      0.1736
    100  C          3.7730  -18.1220    9.3920 C.2   107  PHE107      0.2595
    101  O          3.6410  -16.9210    9.1500 O.2   107  PHE107     -0.2718
    102  CB         5.3230  -18.6090   11.3130 C.3   107  PHE107      0.0547
    103  CG         5.5000  -19.1480   12.7150 C.ar  107  PHE107     -0.0202
    104  CD1        5.5780  -20.5220   12.9250 C.ar  107  PHE107     -0.0042
    105  CD2        5.5670  -18.3070   13.8130 C.ar  107  PHE107     -0.0042
    106  CE1        5.7250  -21.0470   14.2000 C.ar  107  PHE107     -0.0003
    107  CE2        5.7190  -18.8290   15.0950 C.ar  107  PHE107     -0.0003
    108  CZ         5.8010  -20.2010   15.2860 C.ar  107  PHE107     -0.0000
    109  N          3.8820  -19.0380    8.4270 N.am  108  ASN108     -0.1974
    110  CA         3.4880  -18.7550    7.0440 C.3   108  ASN108      0.1688
    111  C          2.7150  -19.8990    6.3670 C.2   108  ASN108      0.2292
    112  O          3.3320  -20.8580    5.8960 O.2   108  ASN108     -0.2864
    113  CB         4.7340  -18.4070    6.2210 C.3   108  ASN108      0.1181
    114  CG         4.4450  -17.4170    5.1080 C.2   108  ASN108      0.2629
    115  OD1        3.4350  -17.5340    4.4100 O.2   108  ASN108     -0.2716
    116  ND2        5.3320  -16.4390    4.9310 N.am  108  ASN108     -0.0877
    117  N          3.5250  -20.0430    2.2580 N.3   111  LEU111     -0.1245
    118  CA         4.8550  -20.4810    1.8410 C.3   111  LEU111      0.1561
    119  C          4.9730  -21.9960    1.9540 C.2   111  LEU111      0.2260
    120  O          5.5130  -22.6520    1.0600 O.2   111  LEU111     -0.2867
    121  CB         5.9360  -19.8160    2.6820 C.3   111  LEU111      0.0270
    122  CG         7.3770  -20.2040    2.3350 C.3   111  LEU111      0.0019
    123  CD1        7.8060  -19.5920    1.0000 C.3   111  LEU111      0.0001
    124  CD2        8.3370  -19.8380    3.4480 C.3   111  LEU111      0.0001
    125  N          3.2860  -23.4780   -0.9830 N.3   114  GLU114     -0.1231
    126  CA         4.1140  -23.3280   -2.1840 C.3   114  GLU114      0.1699
    127  C          5.2840  -24.3100   -2.1950 C.2   114  GLU114      0.2592
    128  O          5.6630  -24.8260   -3.2460 O.2   114  GLU114     -0.2718
    129  CB         4.6400  -21.8960   -2.3100 C.3   114  GLU114      0.0402
    130  CG         3.5880  -20.8690   -2.6900 C.3   114  GLU114      0.1161
    131  CD         4.0790  -19.4380   -2.5310 C.2   114  GLU114      0.3649
    132  OE1        5.1370  -19.1020   -3.1080 O.co2 114  GLU114     -0.2457
    133  OE2        3.4040  -18.6550   -1.8250 O.co2 114  GLU114     -0.2457
    134  N          5.8390  -24.5760   -1.0170 N.am  115  ILE115     -0.1980
    135  CA         6.9540  -25.5100   -0.8810 C.3   115  ILE115      0.1595
    136  C          6.4810  -26.9420   -1.0740 C.2   115  ILE115      0.2287
    137  O          7.1570  -27.7490   -1.7180 O.2   115  ILE115     -0.2864
    138  CB         7.6590  -25.3550    0.5000 C.3   115  ILE115      0.0276
    139  CG1        8.4840  -24.0700    0.5110 C.3   115  ILE115      0.0022
    140  CG2        8.5940  -26.5170    0.7880 C.3   115  ILE115      0.0022
    141  CD1        9.0720  -23.7140    1.8520 C.3   115  ILE115      0.0001
    142  N          6.1190  -28.2520   -4.5870 N.3   118  LEU118     -0.1245
    143  CA         7.3300  -28.6420   -5.3230 C.3   118  LEU118      0.1561
    144  C          7.4260  -30.1560   -5.4970 C.2   118  LEU118      0.2260
    145  O          8.1650  -30.6480   -6.3580 O.2   118  LEU118     -0.2867
    146  CB         8.5850  -28.1210   -4.6330 C.3   118  LEU118      0.0270
    147  CG         8.7070  -26.6100   -4.4350 C.3   118  LEU118      0.0019
    148  CD1        9.9330  -26.3210   -3.5860 C.3   118  LEU118      0.0001
    149  CD2        8.7810  -25.8800   -5.7850 C.3   118  LEU118      0.0001
    150  N         10.1360  -23.8830  -10.8290 N.3   127  ASN127     -0.1240
    151  CA         9.7510  -22.7140  -10.0440 C.3   127  ASN127      0.1653
    152  C         10.8230  -21.6390  -10.2530 C.2   127  ASN127      0.2266
    153  O         12.0140  -21.9400  -10.1490 O.2   127  ASN127     -0.2867
    154  CB         9.6230  -23.0890   -8.5680 C.3   127  ASN127      0.1155
    155  CG         9.0890  -21.9630   -7.7180 C.2   127  ASN127      0.2627
    156  OD1        9.7300  -20.9240   -7.5680 O.2   127  ASN127     -0.2716
    157  ND2        7.9340  -22.1870   -7.1020 N.am  127  ASN127     -0.0877
    158  N         11.6930  -19.0890   -8.5710 N.3   129  GLN129     -0.1231
    159  CA        12.4290  -18.7100   -7.3730 C.3   129  GLN129      0.1698
    160  C         13.5660  -19.6950   -7.0890 C.2   129  GLN129      0.2592
    161  O         14.5680  -19.3290   -6.4850 O.2   129  GLN129     -0.2718
    162  CB        11.5030  -18.6090   -6.1620 C.3   129  GLN129      0.0381
    163  CG        10.4270  -17.5520   -6.2780 C.3   129  GLN129      0.0905
    164  CD         9.9110  -17.1180   -4.9220 C.2   129  GLN129      0.2608
    165  OE1       10.6190  -16.4410   -4.1690 O.2   129  GLN129     -0.2717
    166  NE2        8.6840  -17.5110   -4.5930 N.am  129  GLN129     -0.0878
    167  N         13.3730  -20.9460   -7.4900 N.am  130  LEU130     -0.1980
    168  CA        14.3980  -21.9750   -7.3730 C.3   130  LEU130      0.1596
    169  C         15.1710  -22.2390   -8.6700 C.2   130  LEU130      0.2287
    170  O         15.9760  -23.1590   -8.7290 O.2   130  LEU130     -0.2864
    171  CB        13.7710  -23.2710   -6.8740 C.3   130  LEU130      0.0297
    172  CG        13.1170  -23.1180   -5.5040 C.3   130  LEU130      0.0022
    173  CD1       12.4250  -24.3920   -5.0850 C.3   130  LEU130      0.0001
    174  CD2       14.1490  -22.7120   -4.4650 C.3   130  LEU130      0.0001
    175  N         19.1680  -22.9640   -8.6370 N.3   133  TYR133     -0.1241
    176  CA        19.8010  -23.8430   -7.6720 C.3   133  TYR133      0.1605
    177  C         20.4970  -24.9980   -8.3870 C.2   133  TYR133      0.2264
    178  O         19.9050  -26.0360   -8.6360 O.2   133  TYR133     -0.2867
    179  CB        18.6740  -24.2720   -6.7100 C.3   133  TYR133      0.0534
    180  CG        18.9180  -25.3890   -5.7290 C.ar  133  TYR133     -0.0201
    181  CD1       18.8530  -26.7080   -6.1220 C.ar  133  TYR133     -0.0009
    182  CD2       19.2200  -25.1220   -4.4120 C.ar  133  TYR133     -0.0009
    183  CE1       19.0630  -27.7320   -5.2470 C.ar  133  TYR133      0.0417
    184  CE2       19.4230  -26.1500   -3.5190 C.ar  133  TYR133      0.0417
    185  CZ        19.3610  -27.4480   -3.9390 C.ar  133  TYR133      0.1957
    186  OH        19.5680  -28.4790   -3.0630 O.3   133  TYR133     -0.2866
    187  N         26.0090  -21.5290   -0.6620 N.3   142  ILE142     -0.1231
    188  CA        25.2080  -20.3120   -0.7350 C.3   142  ILE142      0.1692
    189  C         24.4570  -20.1290    0.5600 C.2   142  ILE142      0.2591
    190  O         24.4610  -19.0650    1.1740 O.2   142  ILE142     -0.2718
    191  CB        24.1810  -20.3560   -1.8980 C.3   142  ILE142      0.0266
    192  CG1       24.8850  -20.2990   -3.2600 C.3   142  ILE142      0.0019
    193  CG2       23.1890  -19.2090   -1.7890 C.3   142  ILE142      0.0020
    194  CD1       25.5890  -18.9770   -3.5450 C.3   142  ILE142      0.0001
    195  N         23.8120  -21.2080    0.9630 N.am  143  MET143     -0.1979
    196  CA        23.0220  -21.2410    2.1660 C.3   143  MET143      0.1605
    197  C         23.8640  -21.0280    3.4250 C.2   143  MET143      0.2287
    198  O         23.4050  -20.4370    4.4110 O.2   143  MET143     -0.2864
    199  CB        22.2990  -22.5670    2.2310 C.3   143  MET143      0.0413
    200  CG        21.7170  -22.8290    3.5500 C.3   143  MET143      0.0598
    201  SD        22.0660  -24.4930    4.0560 S.3   143  MET143     -0.1393
    202  CE        20.4800  -24.7630    4.7450 C.3   143  MET143      0.0692
    203  N         24.5750  -17.4540    4.2900 N.3   146  GLU146     -0.1245
    204  CA        23.4220  -16.8290    4.9040 C.3   146  GLU146      0.1567
    205  C         23.3060  -17.2050    6.3780 C.2   146  GLU146      0.2260
    206  O         23.0430  -16.3490    7.2230 O.2   146  GLU146     -0.2867
    207  CB        22.1470  -17.2240    4.1460 C.3   146  GLU146      0.0388
    208  CG        20.8770  -16.5410    4.6320 C.3   146  GLU146      0.1160
    209  CD        20.9470  -15.0240    4.5430 C.2   146  GLU146      0.3649
    210  OE1       21.7810  -14.4970    3.7690 O.co2 146  GLU146     -0.2457
    211  OE2       20.1660  -14.3570    5.2530 O.co2 146  GLU146     -0.2457
    212  N         23.2290  -14.9070    9.7370 N.3   150  LEU150     -0.1245
    213  CA        22.1120  -15.0330   10.6620 C.3   150  LEU150      0.1561
    214  C         22.5940  -15.3320   12.0720 C.2   150  LEU150      0.2260
    215  O         22.0300  -14.8320   13.0370 O.2   150  LEU150     -0.2867
    216  CB        21.1510  -16.1270   10.2010 C.3   150  LEU150      0.0270
    217  CG        20.3510  -15.8550    8.9370 C.3   150  LEU150      0.0019
    218  CD1       19.6470  -17.1250    8.4920 C.3   150  LEU150      0.0001
    219  CD2       19.3550  -14.7360    9.1770 C.3   150  LEU150      0.0001
@<TRIPOS>BOND
     1   150   151    1
     2   152   153    2
     3   152   151    1
     4   151   154    1
     5   170   169    2
     6   169   168    1
     7   175   176    1
     8   178   177    2
     9   158   159    1
    10   154   155    1
    11   177   176    1
    12   155   156    2
    13   155   157   am
    14   176   179    1
    15   167   168    1
    16   167   160   am
    17   159   160    1
    18   159   162    1
    19   168   171    1
    20   160   161    2
    21   171   172    1
    22   179   180    1
    23   145   144    2
    24   163   162    1
    25   163   164    1
    26   181   180   ar
    27   181   183   ar
    28   149   147    1
    29   180   182   ar
    30   172   173    1
    31   172   174    1
    32   144   143    1
    33   143   146    1
    34   143   142    1
    35   183   185   ar
    36   164   166   am
    37   164   165    2
    38   146   147    1
    39   147   148    1
    40   182   184   ar
    41   185   184   ar
    42   185   186    1
    43   194   192    1
    44   192   191    1
    45   128   127    2
    46    82    81    2
    47   132   131   ar
    48   130   131    1
    49   130   129    1
    50    86    84    1
    51   131   133   ar
    52   129   126    1
    53   127   126    1
    54   127   134   am
    55   126   125    1
    56    81    80    1
    57    85    84    1
    58    83    84    1
    59    83    80    1
    60   191   193    1
    61   191   188    1
    62   137   136    2
    63    80    79    1
    64   136   135    1
    65   134   135    1
    66    77    76    2
    67   135   138    1
    68   188   187    1
    69   188   189    1
    70    78    76   am
    71    76    75    1
    72   138   139    1
    73   138   140    1
    74   139   141    1
    75   189   195   am
    76   189   190    2
    77   195   196    1
    78    67    68    1
    79    67    66    1
    80   123   122    1
    81    73    72    2
    82   120   119    2
    83    69    68    1
    84    75    74    1
    85    66    65    1
    86    64    63    2
    87   118   119    1
    88   118   117    1
    89   118   121    1
    90    71    72    1
    91    71    74    1
    92    71    70    1
    93   196   199    1
    94   196   197    1
    95   199   200    1
    96   122   121    1
    97   122   124    1
    98    63    70   am
    99    63    62    1
   100    65    62    1
   101    59    58   ar
   102    62    61    1
   103   197   198    2
   104   200   201    1
   105    60    58   ar
   106   210   209   ar
   107    58    57    1
   108    51    50   ar
   109    51    49   ar
   110   201   202    1
   111   207   208    1
   112   207   204    1
   113    50    48   ar
   114   203   204    1
   115   115   114    2
   116   209   208    1
   117   209   211   ar
   118    40    39    1
   119    55    54    2
   120   204   205    1
   121   116   114   am
   122    49    47   ar
   123   114   113    1
   124    57    56    1
   125    48    46   ar
   126    53    54    1
   127    53    56    1
   128    53    52    1
   129    39    38    1
   130   112   111    2
   131    44    43    2
   132   113   110    1
   133    47    46   ar
   134   111   110    1
   135   205   206    2
   136    46    45    1
   137    52    43   am
   138    43    42    1
   139   110   109    1
   140    38    37    1
   141    37    36    1
   142    45    42    1
   143    42    41    1
   144    35    34    2
   145   109   100   am
   146   218   217    1
   147    90    89    2
   148    91    92    1
   149    91    88    1
   150   217   219    1
   151   217   216    1
   152    36    33    1
   153   101   100    2
   154    89    88    1
   155    94    92   ar
   156    94    96   ar
   157   100    99    1
   158    34    33    1
   159    92    93   ar
   160    33    32    1
   161   212   213    1
   162    96    97   ar
   163    88    87    1
   164    10     9    1
   165   216   213    1
   166    93    95   ar
   167    97    95   ar
   168   213   214    1
   169    99    98    1
   170    99   102    1
   171    27    26    2
   172    32    26   am
   173     9    11    1
   174     9     8    2
   175   102   103    1
   176     7     8    1
   177     7     6    1
   178    26    25    1
   179     6     5    1
   180   214   215    2
   181     4     3    2
   182    15    14    2
   183    20    18   ar
   184    20    22   ar
   185   103   104   ar
   186   103   105   ar
   187    18    17   ar
   188   104   106   ar
   189    25    28    1
   190    25    24    1
   191    28    29    1
   192    13    14    1
   193    13    12    1
   194    13    16    1
   195     3    12   am
   196     3     2    1
   197    23    22    1
   198    29    30    1
   199    31    30    1
   200     5     2    1
   201    22    21   ar
   202   105   107   ar
   203    17    16    1
   204    17    19   ar
   205     2     1    1
   206   106   108   ar
   207    21    19   ar
   208   107   108   ar
