@<TRIPOS>MOLECULE
tmp/5c7nA00.pdb
 122 121 0 0 0
SMALL
GASTEIGER

@<TRIPOS>ATOM
      1  N         19.8740   10.0820   -4.8420 N.3    24  ASN24      -0.1225
      2  CA        20.3870    9.0700   -3.9240 C.3    24  ASN24       0.1785
      3  C         19.5600    7.7870   -3.9520 C.2    24  ASN24       0.2597
      4  O         19.3620    7.1470   -2.9200 O.2    24  ASN24      -0.2718
      5  CB        20.4430    9.6040   -2.4900 C.3    24  ASN24       0.1169
      6  CG        21.7200   10.3610   -2.1930 C.2    24  ASN24       0.2627
      7  OD1       22.4870   10.6930   -3.0950 O.2    24  ASN24      -0.2716
      8  ND2       21.9580   10.6340   -0.9160 N.am   24  ASN24      -0.0877
      9  N         19.0730    7.4110   -5.1280 N.am   25  ILE25      -0.1966
     10  CA        18.2050    6.2490   -5.1990 C.3    25  ILE25       0.1727
     11  C         19.0310    5.0000   -5.4210 C.2    25  ILE25       0.2616
     12  O         18.5300    3.8820   -5.2830 O.2    25  ILE25      -0.2715
     13  CB        17.1380    6.3910   -6.2980 C.3    25  ILE25       0.0290
     14  CG1       17.7480    6.2580   -7.6820 C.3    25  ILE25       0.0022
     15  CG2       16.3820    7.7180   -6.1470 C.3    25  ILE25       0.0023
     16  CD1       16.7110    6.1810   -8.7610 C.3    25  ILE25       0.0001
     17  N         20.3080    5.1920   -5.7370 N.am   26  PHE26      -0.1974
     18  CA        21.2030    4.0530   -5.9700 C.3    26  PHE26       0.1639
     19  C         22.2770    3.9270   -4.8900 C.2    26  PHE26       0.2290
     20  O         23.2280    3.1750   -5.0430 O.2    26  PHE26      -0.2864
     21  CB        21.8740    4.1730   -7.3340 C.3    26  PHE26       0.0560
     22  CG        20.9130    4.2700   -8.4710 C.ar   26  PHE26      -0.0200
     23  CD1       20.0750    3.2150   -8.7840 C.ar   26  PHE26      -0.0042
     24  CD2       20.8340    5.4310   -9.2220 C.ar   26  PHE26      -0.0042
     25  CE1       19.1930    3.3060   -9.8300 C.ar   26  PHE26      -0.0003
     26  CE2       19.9510    5.5300  -10.2640 C.ar   26  PHE26      -0.0003
     27  CZ        19.1380    4.4580  -10.5830 C.ar   26  PHE26      -0.0000
     28  N         21.9680    2.8720   -1.7340 N.3    28  GLU28      -0.1231
     29  CA        21.7740    1.7310   -0.8420 C.3    28  GLU28       0.1684
     30  C         21.0410    0.6260   -1.5870 C.2    28  GLU28       0.2434
     31  O         20.4140    0.8930   -2.6090 O.2    28  GLU28      -0.2733
     32  CB        20.9800    2.1470    0.4000 C.3    28  GLU28       0.0402
     33  CG        21.6340    3.2300    1.2170 C.3    28  GLU28       0.1161
     34  CD        20.8060    3.6010    2.4280 C.2    28  GLU28       0.3649
     35  OE1       19.5910    3.3050    2.4250 O.co2  28  GLU28      -0.2457
     36  OE2       21.3680    4.1810    3.3810 O.co2  28  GLU28      -0.2457
     37  N         21.1200   -0.6230   -1.0850 N.am   29  PRO29      -0.2718
     38  CA        20.3860   -1.7020   -1.7510 C.3    29  PRO29       0.1535
     39  C         18.8910   -1.4240   -1.8000 C.2    29  PRO29       0.2598
     40  O         18.3600   -0.7590   -0.9020 O.2    29  PRO29      -0.2715
     41  CB        20.6800   -2.9330   -0.8740 C.3    29  PRO29       0.0310
     42  CG        21.9430   -2.6110   -0.1610 C.3    29  PRO29       0.0237
     43  CD        21.9460   -1.1160    0.0320 C.3    29  PRO29       0.0939
     44  N         18.2280   -1.9110   -2.8430 N.am   30  VAL30      -0.1964
     45  CA        16.7780   -1.8230   -2.9210 C.3    30  VAL30       0.1712
     46  C         16.1600   -2.5630   -1.7450 C.2    30  VAL30       0.2458
     47  O         16.3480   -3.7700   -1.6180 O.2    30  VAL30      -0.2730
     48  CB        16.2430   -2.4200   -4.2260 C.3    30  VAL30       0.0289
     49  CG1       14.7250   -2.3580   -4.2530 C.3    30  VAL30       0.0023
     50  CG2       16.8490   -1.7030   -5.4370 C.3    30  VAL30       0.0023
     51  N         15.4330   -1.8400   -0.8740 N.am   31  PRO31      -0.2727
     52  CA        14.8160   -2.4310    0.3200 C.3    31  PRO31       0.1402
     53  C         13.8180   -3.5150   -0.0410 C.2    31  PRO31       0.2269
     54  O         12.7040   -3.2000   -0.4650 O.2    31  PRO31      -0.2865
     55  CB        14.1010   -1.2460    0.9820 C.3    31  PRO31       0.0296
     56  CG        14.7500   -0.0400    0.4330 C.3    31  PRO31       0.0237
     57  CD        15.1650   -0.3970   -0.9660 C.3    31  PRO31       0.0939
     58  N         10.3950   -3.0610    1.1390 N.3    34  GLU34      -0.1231
     59  CA         9.5450   -2.1160    0.4140 C.3    34  GLU34       0.1699
     60  C          9.1930   -2.6390   -0.9740 C.2    34  GLU34       0.2592
     61  O          8.1350   -2.3280   -1.5200 O.2    34  GLU34      -0.2718
     62  CB        10.2310   -0.7490    0.2910 C.3    34  GLU34       0.0402
     63  CG         9.8880    0.2410    1.3940 C.3    34  GLU34       0.1161
     64  CD        10.3950   -0.1930    2.7560 C.2    34  GLU34       0.3649
     65  OE1       11.4190   -0.9060    2.8150 O.co2  34  GLU34      -0.2457
     66  OE2        9.7700    0.1770    3.7690 O.co2  34  GLU34      -0.2457
     67  N         10.0980   -3.4280   -1.5430 N.am   35  VAL35      -0.1980
     68  CA         9.9130   -3.9840   -2.8780 C.3    35  VAL35       0.1595
     69  C         10.0860   -5.5080   -2.8200 C.2    35  VAL35       0.2287
     70  O         11.1250   -6.0360   -3.2140 O.2    35  VAL35      -0.2864
     71  CB        10.9110   -3.3570   -3.8820 C.3    35  VAL35       0.0276
     72  CG1       10.5750   -3.7590   -5.3010 C.3    35  VAL35       0.0022
     73  CG2       10.9110   -1.8360   -3.7540 C.3    35  VAL35       0.0022
     74  N         11.2780   -7.9290   -5.7490 N.3    38  TYR38      -0.1241
     75  CA        12.4700   -7.4510   -6.4470 C.3    38  TYR38       0.1605
     76  C         13.4060   -8.5610   -6.9210 C.2    38  TYR38       0.2264
     77  O         13.8930   -8.5250   -8.0490 O.2    38  TYR38      -0.2867
     78  CB        13.2560   -6.4870   -5.5590 C.3    38  TYR38       0.0534
     79  CG        14.3680   -5.7780   -6.3080 C.ar   38  TYR38      -0.0201
     80  CD1       14.0790   -4.7800   -7.2310 C.ar   38  TYR38      -0.0009
     81  CD2       15.7010   -6.1190   -6.1080 C.ar   38  TYR38      -0.0009
     82  CE1       15.0830   -4.1370   -7.9270 C.ar   38  TYR38       0.0417
     83  CE2       16.7220   -5.4750   -6.8020 C.ar   38  TYR38       0.0417
     84  CZ        16.4030   -4.4810   -7.7080 C.ar   38  TYR38       0.1957
     85  OH        17.4120   -3.8370   -8.4040 O.3    38  TYR38      -0.2866
     86  N         17.9090   -1.5700  -12.7360 N.3    77  CYS77      -0.1235
     87  CA        16.8730   -0.5550  -12.6200 C.3    77  CYS77       0.1677
     88  C         16.0310   -0.4710  -13.8990 C.2    77  CYS77       0.2270
     89  O         14.8080   -0.3750  -13.8480 O.2    77  CYS77      -0.2867
     90  CB        17.5100    0.8010  -12.2980 C.3    77  CYS77       0.0956
     91  SG        16.3180    2.0760  -11.8620 S.3    77  CYS77      -0.0801
     92  N         13.7960   -3.7030  -13.9050 N.3    80  TYR80      -0.1227
     93  CA        12.6960   -3.8410  -12.9500 C.3    80  TYR80       0.1736
     94  C         11.5510   -2.8660  -13.1950 C.2    80  TYR80       0.2595
     95  O         10.3810   -3.2120  -13.0030 O.2    80  TYR80      -0.2718
     96  CB        13.1950   -3.6810  -11.5080 C.3    80  TYR80       0.0548
     97  CG        12.1150   -3.9790  -10.5040 C.ar   80  TYR80      -0.0200
     98  CD1       11.7340   -5.2910  -10.2250 C.ar   80  TYR80      -0.0009
     99  CD2       11.4450   -2.9530   -9.8580 C.ar   80  TYR80      -0.0009
    100  CE1       10.7280   -5.5600   -9.3220 C.ar   80  TYR80       0.0417
    101  CE2       10.4370   -3.2160   -8.9570 C.ar   80  TYR80       0.0417
    102  CZ        10.0820   -4.5140   -8.6910 C.ar   80  TYR80       0.1957
    103  OH         9.0730   -4.7600   -7.7880 O.3    80  TYR80      -0.2866
    104  N         11.8790   -1.6510  -13.6230 N.am   81  ASN81      -0.1974
    105  CA        10.8850   -0.5780  -13.6490 C.3    81  ASN81       0.1688
    106  C         10.3540   -0.2860  -15.0410 C.2    81  ASN81       0.2292
    107  O         11.0860   -0.3870  -16.0160 O.2    81  ASN81      -0.2864
    108  CB        11.4790    0.6950  -13.0420 C.3    81  ASN81       0.1181
    109  CG        11.9210    0.4890  -11.6120 C.2    81  ASN81       0.2629
    110  OD1       11.1060    0.5260  -10.6920 O.2    81  ASN81      -0.2716
    111  ND2       13.2080    0.2330  -11.4200 N.am   81  ASN81      -0.0877
    112  N         12.2030    6.1210  -11.7370 N.3    87  PHE87      -0.1241
    113  CA        13.3100    5.1880  -11.5630 C.3    87  PHE87       0.1605
    114  C         13.9690    4.8590  -12.8910 C.2    87  PHE87       0.2264
    115  O         15.1910    4.9400  -13.0130 O.2    87  PHE87      -0.2867
    116  CB        12.8490    3.8940  -10.8920 C.3    87  PHE87       0.0534
    117  CG        12.6180    4.0220   -9.4180 C.ar   87  PHE87      -0.0203
    118  CD1       13.6670    4.3130   -8.5600 C.ar   87  PHE87      -0.0042
    119  CD2       11.3490    3.8400   -8.8870 C.ar   87  PHE87      -0.0042
    120  CE1       13.4530    4.4340   -7.1990 C.ar   87  PHE87      -0.0003
    121  CE2       11.1270    3.9600   -7.5260 C.ar   87  PHE87      -0.0003
    122  CZ        12.1820    4.2590   -6.6810 C.ar   87  PHE87      -0.0000
@<TRIPOS>BOND
     1   107   106    2
     2   106   105    1
     3    92    93    1
     4    88    89    2
     5    88    87    1
     6   105   104    1
     7   105   108    1
     8   104    94   am
     9    94    95    2
    10    94    93    1
    11   108   109    1
    12   115   114    2
    13    93    96    1
    14   114   113    1
    15    86    87    1
    16    87    90    1
    17    90    91    1
    18   112   113    1
    19   109   111   am
    20   109   110    2
    21   113   116    1
    22    96    97    1
    23   116   117    1
    24    27    26   ar
    25    27    25   ar
    26    97    98   ar
    27    97    99   ar
    28    26    24   ar
    29    98   100   ar
    30    99   101   ar
    31    25    23   ar
    32   117   119   ar
    33   117   118   ar
    34   100   102   ar
    35    24    22   ar
    36   101   102   ar
    37   119   121   ar
    38    23    22   ar
    39    16    14    1
    40   102   103    1
    41   118   120   ar
    42    22    21    1
    43    85    84    1
    44    77    76    2
    45    82    84   ar
    46    82    80   ar
    47    84    83   ar
    48    14    13    1
    49   121   122   ar
    50    21    18    1
    51    80    79   ar
    52   120   122   ar
    53    76    75    1
    54    83    81   ar
    55    75    74    1
    56    75    78    1
    57    79    81   ar
    58    79    78    1
    59    13    15    1
    60    13    10    1
    61    18    17    1
    62    18    19    1
    63    17    11   am
    64    50    48    1
    65    11    12    2
    66    11    10    1
    67    72    71    1
    68    10     9    1
    69     9     3   am
    70    20    19    2
    71     1     2    1
    72    49    48    1
    73    48    45    1
    74     3     2    1
    75     3     4    2
    76     2     5    1
    77    71    73    1
    78    71    68    1
    79    70    69    2
    80     7     6    2
    81    45    44    1
    82    45    46    1
    83    68    69    1
    84    68    67    1
    85    44    39   am
    86    31    30    2
    87     5     6    1
    88     6     8   am
    89    39    38    1
    90    39    40    2
    91    38    37    1
    92    38    41    1
    93    46    47    2
    94    46    51   am
    95    28    29    1
    96    30    37   am
    97    30    29    1
    98    67    60   am
    99    61    60    2
   100    37    43    1
   101    60    59    1
   102    57    51    1
   103    57    56    1
   104    51    52    1
   105    41    42    1
   106    29    32    1
   107    54    53    2
   108    42    43    1
   109    53    52    1
   110    62    59    1
   111    62    63    1
   112    52    55    1
   113    32    33    1
   114    59    58    1
   115    56    55    1
   116    33    34    1
   117    63    64    1
   118    35    34   ar
   119    34    36   ar
   120    64    65   ar
   121    64    66   ar
