@<TRIPOS>MOLECULE
tmp/5c7rB00.pdb
 235 229 0 0 0
SMALL
GASTEIGER

@<TRIPOS>ATOM
      1  N        -23.6930  -19.7660   64.2910 N.3    12  ASN12      -0.1240
      2  CA       -24.0200  -20.9760   65.0330 C.3    12  ASN12       0.1653
      3  C        -25.0460  -20.7260   66.1300 C.2    12  ASN12       0.2266
      4  O        -25.0610  -19.6650   66.7830 O.2    12  ASN12      -0.2867
      5  CB       -22.7690  -21.6100   65.6290 C.3    12  ASN12       0.1155
      6  CG       -22.9720  -23.0920   65.9640 C.2    12  ASN12       0.2627
      7  OD1      -23.5060  -23.8530   65.1620 O.2    12  ASN12      -0.2716
      8  ND2      -22.5790  -23.4840   67.1490 N.am   12  ASN12      -0.0877
      9  N        -25.3720  -21.5980   69.0910 N.3    14  ASP14      -0.1225
     10  CA       -24.9880  -21.3050   70.4770 C.3    14  ASP14       0.1805
     11  C        -24.5730  -19.8300   70.6460 C.2    14  ASP14       0.2597
     12  O        -24.2310  -19.4090   71.7590 O.2    14  ASP14      -0.2718
     13  CB       -23.8550  -22.2260   70.9990 C.3    14  ASP14       0.1424
     14  CG       -22.6220  -22.2850   70.0820 C.2    14  ASP14       0.3668
     15  OD1      -22.5710  -21.5760   69.0610 O.co2  14  ASP14      -0.2456
     16  OD2      -21.6810  -23.0570   70.3920 O.co2  14  ASP14      -0.2456
     17  N        -24.6330  -19.0440   69.5720 N.am   15  LYS15      -0.1979
     18  CA       -24.2000  -17.6320   69.6460 C.3    15  LYS15       0.1596
     19  C        -25.4180  -16.7100   69.7000 C.2    15  LYS15       0.2287
     20  O        -26.5330  -17.1520   69.4450 O.2    15  LYS15      -0.2864
     21  CB       -23.2990  -17.2800   68.4570 C.3    15  LYS15       0.0298
     22  CG       -21.9500  -18.0940   68.3490 C.3    15  LYS15       0.0038
     23  CD       -21.2960  -18.3010   69.6980 C.3    15  LYS15       0.0206
     24  CE       -19.8990  -18.9170   69.6010 C.3    15  LYS15       0.1093
     25  NZ       -19.8920  -20.2640   68.9700 N.3    15  LYS15      -0.1314
     26  N        -25.2040  -27.7720   61.6060 N.3    42  LYS42      -0.1245
     27  CA       -23.9850  -28.1780   60.9090 C.3    42  LYS42       0.1561
     28  C        -23.5280  -27.1640   59.8580 C.2    42  LYS42       0.2260
     29  O        -23.1480  -27.5380   58.7290 O.2    42  LYS42      -0.2867
     30  CB       -24.2200  -29.5520   60.2620 C.3    42  LYS42       0.0271
     31  CG       -24.5640  -30.6400   61.2640 C.3    42  LYS42       0.0035
     32  CD       -23.3350  -31.0980   62.0700 C.3    42  LYS42       0.0206
     33  CE       -23.2120  -32.6380   62.1260 C.3    42  LYS42       0.1093
     34  NZ       -22.0500  -33.0830   62.9670 N.3    42  LYS42      -0.1314
     35  N        -21.0110  -25.2660   59.4380 N.3    44  GLU44      -0.1231
     36  CA       -19.6120  -25.2260   59.0380 C.3    44  GLU44       0.1699
     37  C        -19.3190  -26.3490   58.0450 C.2    44  GLU44       0.2592
     38  O        -18.3880  -26.2440   57.2300 O.2    44  GLU44      -0.2718
     39  CB       -18.6990  -25.3110   60.2710 C.3    44  GLU44       0.0402
     40  CG       -18.4420  -26.7070   60.8310 C.3    44  GLU44       0.1161
     41  CD       -19.6680  -27.3300   61.5020 C.2    44  GLU44       0.3649
     42  OE1      -20.7570  -26.7080   61.4830 O.co2  44  GLU44      -0.2457
     43  OE2      -19.5240  -28.4500   62.0510 O.co2  44  GLU44      -0.2457
     44  N        -20.1040  -27.4220   58.1300 N.am   45  GLU45      -0.1979
     45  CA       -20.0720  -28.4780   57.1180 C.3    45  GLU45       0.1602
     46  C        -20.8960  -28.0420   55.9170 C.2    45  GLU45       0.2287
     47  O        -20.4880  -28.2190   54.7720 O.2    45  GLU45      -0.2864
     48  CB       -20.6000  -29.8030   57.6900 C.3    45  GLU45       0.0415
     49  CG       -19.5290  -30.6730   58.3520 C.3    45  GLU45       0.1163
     50  CD       -20.1100  -31.8670   59.1320 C.2    45  GLU45       0.3649
     51  OE1      -21.1970  -32.3450   58.7350 O.co2  45  GLU45      -0.2457
     52  OE2      -19.4850  -32.3220   60.1370 O.co2  45  GLU45      -0.2457
     53  N        -17.9670  -18.2580   62.0100 N.3    62  TRP62      -0.1227
     54  CA       -17.4510  -19.4320   62.7280 C.3    62  TRP62       0.1737
     55  C        -16.1280  -19.0670   63.3170 C.2    62  TRP62       0.2595
     56  O        -15.5660  -18.0380   62.9470 O.2    62  TRP62      -0.2718
     57  CB       -17.3080  -20.6210   61.7830 C.3    62  TRP62       0.0564
     58  CG       -17.1130  -21.9610   62.4720 C.ar   62  TRP62       0.0003
     59  CD1      -15.9270  -22.6070   62.7160 C.ar   62  TRP62       0.0946
     60  CD2      -18.1490  -22.8040   62.9950 C.ar   62  TRP62       0.0152
     61  NE1      -16.1700  -23.8090   63.3760 N.ar   62  TRP62      -0.2442
     62  CE2      -17.5230  -23.9520   63.5510 C.ar   62  TRP62       0.0810
     63  CE3      -19.5430  -22.7100   63.0350 C.ar   62  TRP62       0.0012
     64  CZ2      -18.2490  -24.9920   64.1270 C.ar   62  TRP62       0.0191
     65  CZ3      -20.2630  -23.7340   63.6170 C.ar   62  TRP62       0.0001
     66  CH2      -19.6120  -24.8650   64.1650 C.ar   62  TRP62       0.0015
     67  N        -15.6240  -19.8790   64.2400 N.am   63  ALA63      -0.1980
     68  CA       -14.2610  -19.7030   64.7080 C.3    63  ALA63       0.1597
     69  C        -13.3390  -19.7650   63.5110 C.2    63  ALA63       0.2287
     70  O        -13.6560  -20.4290   62.5070 O.2    63  ALA63      -0.2864
     71  CB       -13.8930  -20.7730   65.7450 C.3    63  ALA63       0.0319
     72  N        -10.6550  -21.3070   62.7640 N.3    65  ASP65      -0.1225
     73  CA        -9.9130  -22.5230   62.3940 C.3    65  ASP65       0.1805
     74  C        -10.4670  -23.1440   61.1290 C.2    65  ASP65       0.2597
     75  O         -9.7530  -23.8250   60.4110 O.2    65  ASP65      -0.2718
     76  CB        -9.9040  -23.5630   63.5450 C.3    65  ASP65       0.1424
     77  CG       -11.2850  -24.0790   63.9180 C.2    65  ASP65       0.3668
     78  OD1      -12.1150  -23.2810   64.4080 O.co2  65  ASP65      -0.2456
     79  OD2      -11.5170  -25.3090   63.7950 O.co2  65  ASP65      -0.2456
     80  N        -11.7360  -22.8930   60.8430 N.am   66  ARG66      -0.1979
     81  CA       -12.3630  -23.4480   59.6630 C.3    66  ARG66       0.1597
     82  C        -12.0520  -22.6120   58.4020 C.2    66  ARG66       0.2287
     83  O        -12.1930  -23.1040   57.2850 O.2    66  ARG66      -0.2864
     84  CB       -13.8830  -23.5490   59.8720 C.3    66  ARG66       0.0334
     85  CG       -14.3790  -24.9020   60.3400 C.3    66  ARG66       0.0492
     86  CD       -14.3660  -25.8440   59.1620 C.3    66  ARG66       0.2205
     87  NE       -15.1170  -27.0820   59.3660 N.pl3  66  ARG66      -0.0865
     88  CZ       -15.2950  -27.9800   58.4030 C.cat  66  ARG66       0.5346
     89  NH1      -14.7820  -27.7440   57.2030 N.pl3  66  ARG66       0.1354
     90  NH2      -15.9800  -29.1050   58.6240 N.pl3  66  ARG66       0.1354
     91  N        -12.4500  -16.4840   72.0260 N.3   111  GLU111     -0.1245
     92  CA       -13.1050  -17.4770   72.8660 C.3   111  GLU111      0.1567
     93  C        -12.0760  -18.4610   73.3960 C.2   111  GLU111      0.2260
     94  O        -11.2720  -19.0180   72.6410 O.2   111  GLU111     -0.2867
     95  CB       -14.1660  -18.2610   72.0960 C.3   111  GLU111      0.0388
     96  CG       -15.1460  -17.4480   71.3020 C.3   111  GLU111      0.1160
     97  CD       -15.9830  -18.3140   70.3530 C.2   111  GLU111      0.3649
     98  OE1      -15.6250  -19.4920   70.1270 O.co2 111  GLU111     -0.2457
     99  OE2      -17.0030  -17.8200   69.8270 O.co2 111  GLU111     -0.2457
    100  N        -18.9970  -31.4860   78.1790 N.3   150  ASN150     -0.1240
    101  CA       -19.2720  -32.1730   76.9160 C.3   150  ASN150      0.1653
    102  C        -18.0930  -33.0480   76.5150 C.2   150  ASN150      0.2266
    103  O        -17.0180  -32.5510   76.2410 O.2   150  ASN150     -0.2867
    104  CB       -19.6080  -31.1470   75.8300 C.3   150  ASN150      0.1155
    105  CG       -19.8860  -31.7660   74.4750 C.2   150  ASN150      0.2627
    106  OD1      -19.9990  -32.9810   74.3390 O.2   150  ASN150     -0.2716
    107  ND2      -20.0250  -30.9090   73.4520 N.am  150  ASN150     -0.0877
    108  N        -17.3790  -33.5710   71.9400 N.3   153  GLU153     -0.1231
    109  CA       -16.6600  -32.6560   71.0580 C.3   153  GLU153      0.1684
    110  C        -15.2180  -32.5030   71.5490 C.2   153  GLU153      0.2434
    111  O        -14.9940  -32.1610   72.7070 O.2   153  GLU153     -0.2733
    112  CB       -17.3690  -31.2940   71.0180 C.3   153  GLU153      0.0402
    113  CG       -18.5160  -31.2080   70.0150 C.3   153  GLU153      0.1161
    114  CD       -18.0660  -31.3670   68.5570 C.2   153  GLU153      0.3649
    115  OE1      -16.9120  -31.0140   68.2390 O.co2 153  GLU153     -0.2457
    116  OE2      -18.8690  -31.8380   67.7240 O.co2 153  GLU153     -0.2457
    117  N        -14.2300  -32.7360   70.6700 N.am  154  PRO154     -0.2718
    118  CA       -12.8390  -32.6930   71.1500 C.3   154  PRO154      0.1535
    119  C        -12.3580  -31.3140   71.6230 C.2   154  PRO154      0.2599
    120  O        -11.3920  -31.2530   72.3880 O.2   154  PRO154     -0.2715
    121  CB       -12.0280  -33.1430   69.9360 C.3   154  PRO154      0.0310
    122  CG       -12.9270  -32.8920   68.7360 C.3   154  PRO154      0.0237
    123  CD       -14.3260  -33.0270   69.2260 C.3   154  PRO154      0.0939
    124  N        -12.9980  -30.2390   71.1640 N.am  155  TYR155     -0.1960
    125  CA       -12.7180  -28.8770   71.6760 C.3   155  TYR155      0.1771
    126  C        -12.5870  -28.8320   73.2020 C.2   155  TYR155      0.2619
    127  O        -11.7010  -28.1880   73.7450 O.2   155  TYR155     -0.2715
    128  CB       -13.8490  -27.9500   71.2410 C.3   155  TYR155      0.0574
    129  CG       -13.7090  -26.4940   71.6070 C.ar  155  TYR155     -0.0198
    130  CD1      -12.6740  -25.7190   71.1050 C.ar  155  TYR155     -0.0009
    131  CD2      -14.6860  -25.8640   72.3860 C.ar  155  TYR155     -0.0009
    132  CE1      -12.5840  -24.3200   71.4450 C.ar  155  TYR155      0.0417
    133  CE2      -14.6140  -24.4910   72.7100 C.ar  155  TYR155      0.0417
    134  CZ       -13.5720  -23.7380   72.2350 C.ar  155  TYR155      0.1957
    135  OH       -13.5270  -22.3910   72.5770 O.3   155  TYR155     -0.2866
    136  N        -13.5030  -29.5350   73.8690 N.am  156  PHE156     -0.1974
    137  CA       -13.6320  -29.5340   75.3340 C.3   156  PHE156      0.1639
    138  C        -12.6390  -30.4450   76.0660 C.2   156  PHE156      0.2290
    139  O        -12.3760  -30.2340   77.2490 O.2   156  PHE156     -0.2864
    140  CB       -15.0500  -29.9480   75.7350 C.3   156  PHE156      0.0560
    141  CG       -16.1040  -29.0120   75.2640 C.ar  156  PHE156     -0.0200
    142  CD1      -16.5870  -29.0940   73.9670 C.ar  156  PHE156     -0.0042
    143  CD2      -16.6100  -28.0320   76.1060 C.ar  156  PHE156     -0.0042
    144  CE1      -17.5550  -28.2280   73.5210 C.ar  156  PHE156     -0.0003
    145  CE2      -17.5760  -27.1710   75.6670 C.ar  156  PHE156     -0.0003
    146  CZ       -18.0500  -27.2760   74.3580 C.ar  156  PHE156     -0.0000
    147  N        -23.2950  -31.7960   75.5180 N.3   210  TYR210     -0.1241
    148  CA       -23.3650  -30.3920   75.8840 C.3   210  TYR210      0.1605
    149  C        -24.6030  -30.0780   76.7210 C.2   210  TYR210      0.2264
    150  O        -24.5140  -29.4010   77.7530 O.2   210  TYR210     -0.2867
    151  CB       -23.3650  -29.5280   74.6410 C.3   210  TYR210      0.0534
    152  CG       -23.2240  -28.0400   74.9460 C.ar  210  TYR210     -0.0201
    153  CD1      -24.3110  -27.2980   75.4000 C.ar  210  TYR210     -0.0009
    154  CD2      -22.0120  -27.3860   74.7800 C.ar  210  TYR210     -0.0009
    155  CE1      -24.2000  -25.9370   75.6950 C.ar  210  TYR210      0.0417
    156  CE2      -21.8850  -26.0070   75.0770 C.ar  210  TYR210      0.0417
    157  CZ       -23.0020  -25.2960   75.5290 C.ar  210  TYR210      0.1957
    158  OH       -22.9370  -23.9450   75.8220 O.3   210  TYR210     -0.2866
    159  N        -20.2230  -18.0250   75.7110 N.3   230  TRP230     -0.1241
    160  CA       -21.5870  -18.1350   75.1940 C.3   230  TRP230      0.1605
    161  C        -22.4990  -18.8600   76.1830 C.2   230  TRP230      0.2264
    162  O        -23.7250  -18.7580   76.0800 O.2   230  TRP230     -0.2867
    163  CB       -21.6120  -18.8680   73.8520 C.3   230  TRP230      0.0550
    164  CG       -20.9360  -20.1980   73.9330 C.ar  230  TRP230      0.0003
    165  CD1      -21.4980  -21.3670   74.2880 C.ar  230  TRP230      0.0946
    166  CD2      -19.5550  -20.4720   73.6720 C.ar  230  TRP230      0.0152
    167  NE1      -20.5580  -22.3760   74.2720 N.ar  230  TRP230     -0.2442
    168  CE2      -19.3550  -21.8470   73.8910 C.ar  230  TRP230      0.0810
    169  CE3      -18.4790  -19.6960   73.2590 C.ar  230  TRP230      0.0012
    170  CZ2      -18.1210  -22.4540   73.7160 C.ar  230  TRP230      0.0191
    171  CZ3      -17.2550  -20.3000   73.0840 C.ar  230  TRP230      0.0001
    172  CH2      -17.0820  -21.6650   73.3210 C.ar  230  TRP230      0.0015
    173  N        -10.3280  -19.9950   69.9550 N.3   260  GLY260     -0.1225
    174  CA       -10.9960  -19.6650   68.7200 C.3   260  GLY260      0.1811
    175  C        -11.2650  -18.1740   68.6400 C.2   260  GLY260      0.2280
    176  O        -11.4740  -17.5130   69.6560 O.2   260  GLY260     -0.2866
    177  N        -13.9780  -16.0660   66.8740 N.3   262  LEU262     -0.1245
    178  CA       -15.2060  -15.9530   66.1090 C.3   262  LEU262      0.1561
    179  C        -14.9850  -14.8970   65.0310 C.2   262  LEU262      0.2260
    180  O        -14.5780  -13.7900   65.3570 O.2   262  LEU262     -0.2867
    181  CB       -16.3580  -15.5580   67.0030 C.3   262  LEU262      0.0270
    182  CG       -17.7030  -15.3590   66.3110 C.3   262  LEU262      0.0019
    183  CD1      -18.2610  -16.7110   65.7530 C.3   262  LEU262      0.0001
    184  CD2      -18.6650  -14.7220   67.3050 C.3   262  LEU262      0.0001
    185  N         -5.7860  -21.3050   67.6320 N.3   330  MET330     -0.1245
    186  CA        -5.8800  -22.3860   66.6560 C.3   330  MET330      0.1570
    187  C         -5.2060  -21.9860   65.3730 C.2   330  MET330      0.2261
    188  O         -5.3280  -20.8300   64.9450 O.2   330  MET330     -0.2867
    189  CB        -7.3300  -22.7500   66.3640 C.3   330  MET330      0.0387
    190  CG        -8.0150  -23.3000   67.5610 C.3   330  MET330      0.0595
    191  SD        -9.5670  -24.0690   67.1990 S.3   330  MET330     -0.1393
    192  CE       -10.6500  -22.6960   67.2690 C.3   330  MET330      0.0692
    193  N         -9.6870  -29.3030   60.0900 N.3   337  SER337     -0.1217
    194  CA       -10.8830  -30.1230   60.2950 C.3   337  SER337      0.1889
    195  C        -10.5380  -31.6380   60.3160 C.2   337  SER337      0.2288
    196  O        -11.0850  -32.3630   61.1190 O.2   337  SER337     -0.2866
    197  CB       -11.9480  -29.8540   59.2490 C.3   337  SER337      0.2089
    198  OG       -11.3860  -29.8060   57.9810 O.3   337  SER337     -0.2183
    199  N         -9.4390  -32.3350   63.7850 N.3   340  TRP340     -0.1227
    200  CA       -10.4900  -32.3650   64.7930 C.3   340  TRP340      0.1737
    201  C        -11.3110  -33.6660   64.6920 C.2   340  TRP340      0.2595
    202  O        -11.6910  -34.2470   65.7080 O.2   340  TRP340     -0.2718
    203  CB       -11.4390  -31.1690   64.6600 C.3   340  TRP340      0.0564
    204  CG       -10.9670  -29.8210   65.2910 C.ar  340  TRP340      0.0003
    205  CD1      -10.8870  -28.5840   64.6540 C.ar  340  TRP340      0.0946
    206  CD2      -10.6090  -29.5810   66.6630 C.ar  340  TRP340      0.0152
    207  NE1      -10.4710  -27.6330   65.5530 N.ar  340  TRP340     -0.2442
    208  CE2      -10.3030  -28.2080   66.7820 C.ar  340  TRP340      0.0810
    209  CE3      -10.5040  -30.3970   67.8020 C.ar  340  TRP340      0.0012
    210  CZ2       -9.8970  -27.6420   67.9840 C.ar  340  TRP340      0.0191
    211  CZ3      -10.0880  -29.8170   69.0050 C.ar  340  TRP340      0.0001
    212  CH2       -9.7920  -28.4680   69.0830 C.ar  340  TRP340      0.0015
    213  N        -11.6090  -34.0740   63.4700 N.am  341  TYR341     -0.1976
    214  CA       -12.3570  -35.3030   63.2570 C.3   341  TYR341      0.1639
    215  C        -11.5500  -36.4800   63.8570 C.2   341  TYR341      0.2290
    216  O        -12.1190  -37.3330   64.5000 O.2   341  TYR341     -0.2864
    217  CB       -12.6150  -35.5740   61.7620 C.3   341  TYR341      0.0560
    218  CG       -13.7520  -34.7860   61.1080 C.ar  341  TYR341     -0.0198
    219  CD1      -15.0550  -34.8280   61.6090 C.ar  341  TYR341     -0.0009
    220  CD2      -13.5270  -34.0370   59.9460 C.ar  341  TYR341     -0.0009
    221  CE1      -16.1000  -34.1020   60.9820 C.ar  341  TYR341      0.0417
    222  CE2      -14.5630  -33.3410   59.3050 C.ar  341  TYR341      0.0417
    223  CZ       -15.8300  -33.3610   59.8240 C.ar  341  TYR341      0.1957
    224  OH       -16.7970  -32.6280   59.1510 O.3   341  TYR341     -0.2866
    225  N        -11.8040  -36.2830   67.5680 N.3   344  ARG344     -0.1245
    226  CA       -13.1440  -36.5800   68.0660 C.3   344  ARG344      0.1563
    227  C        -13.3170  -38.1010   68.1820 C.2   344  ARG344      0.2260
    228  O        -13.7510  -38.6000   69.2130 O.2   344  ARG344     -0.2867
    229  CB       -14.2380  -35.9850   67.1680 C.3   344  ARG344      0.0307
    230  CG       -15.6420  -36.2630   67.6930 C.3   344  ARG344      0.0489
    231  CD       -16.7400  -35.8010   66.7490 C.3   344  ARG344      0.2205
    232  NE       -18.0150  -35.6720   67.4580 N.pl3 344  ARG344     -0.0865
    233  CZ       -18.9260  -36.6380   67.5480 C.cat 344  ARG344      0.5346
    234  NH1      -18.7270  -37.8160   66.9490 N.pl3 344  ARG344      0.1354
    235  NH2      -20.0440  -36.4170   68.2280 N.pl3 344  ARG344      0.1354
@<TRIPOS>BOND
     1    47    46    2
     2    46    45    1
     3    45    48    1
     4    45    44    1
     5    89    88    1
     6    38    37    2
     7    83    82    2
     8    48    49    1
     9   198   197    1
    10    37    44   am
    11    37    36    1
    12    49    50    1
    13    82    81    1
    14    88    90    1
    15    88    87    2
    16    29    28    2
    17    51    50   ar
    18    36    35    1
    19    36    39    1
    20    50    52   ar
    21   224   223    1
    22    86    87    1
    23    86    85    1
    24   197   194    1
    25   222   223   ar
    26   222   220   ar
    27    81    84    1
    28    81    80    1
    29   223   221   ar
    30    28    27    1
    31    84    85    1
    32   220   218   ar
    33   193   194    1
    34    30    27    1
    35    30    31    1
    36    39    40    1
    37   194   195    1
    38   195   196    2
    39    75    74    2
    40    40    41    1
    41    80    74   am
    42    27    26    1
    43   221   219   ar
    44   218   219   ar
    45   218   217    1
    46    74    73    1
    47    31    32    1
    48    42    41   ar
    49    41    43   ar
    50   217   214    1
    51    57    58    1
    52    57    54    1
    53    53    54    1
    54    32    33    1
    55    33    34    1
    56    73    72    1
    57    73    76    1
    58    58    59   ar
    59    58    60   ar
    60    70    69    2
    61    59    61   ar
    62    54    55    1
    63    56    55    2
    64    60    63   ar
    65    60    62   ar
    66    63    65   ar
    67   214   213    1
    68   214   215    1
    69    55    67   am
    70    61    62   ar
    71   213   201   am
    72    69    68    1
    73    76    77    1
    74    62    64   ar
    75    65    66   ar
    76   199   200    1
    77    79    77   ar
    78   215   216    2
    79    77    78   ar
    80    64    66   ar
    81    67    68    1
    82     1     2    1
    83   205   204   ar
    84   205   207   ar
    85   203   200    1
    86   203   204    1
    87   201   200    1
    88   201   202    2
    89    68    71    1
    90   188   187    2
    91   179   180    2
    92   179   178    1
    93     2     5    1
    94     2     3    1
    95     7     6    2
    96   204   206   ar
    97   187   186    1
    98   207   208   ar
    99     5     6    1
   100   183   182    1
   101     6     8   am
   102   178   177    1
   103   178   181    1
   104     3     4    2
   105   182   181    1
   106   182   184    1
   107   189   186    1
   108   189   190    1
   109   186   185    1
   110   206   208   ar
   111   206   209   ar
   112   231   232    1
   113   231   230    1
   114   208   210   ar
   115   234   233    1
   116   229   230    1
   117   229   226    1
   118   191   192    1
   119   191   190    1
   120   232   233    2
   121   233   235    1
   122   225   226    1
   123   116   114   ar
   124   209   211   ar
   125   210   212   ar
   126   226   227    1
   127   227   228    2
   128   115   114   ar
   129    22    21    1
   130    22    23    1
   131    21    18    1
   132   114   113    1
   133   175   174    1
   134   175   176    2
   135   174   173    1
   136   122   123    1
   137   122   121    1
   138    25    24    1
   139   211   212   ar
   140    15    14   ar
   141     9    10    1
   142   123   117    1
   143    20    19    2
   144    17    18    1
   145    17    11   am
   146    24    23    1
   147    18    19    1
   148    99    97   ar
   149   121   118    1
   150   113   112    1
   151    14    16   ar
   152    14    13    1
   153    98    97   ar
   154    97    96    1
   155    10    11    1
   156    10    13    1
   157    11    12    2
   158   117   118    1
   159   117   110   am
   160   112   109    1
   161   109   110    1
   162   109   108    1
   163   130   132   ar
   164   130   129   ar
   165   118   119    1
   166   124   119   am
   167   124   125    1
   168   128   129    1
   169   128   125    1
   170    96    95    1
   171   132   134   ar
   172   110   111    2
   173   129   131   ar
   174   119   120    2
   175   125   126    1
   176    91    92    1
   177    95    92    1
   178   134   135    1
   179   134   133   ar
   180   131   133   ar
   181    94    93    2
   182    92    93    1
   183   171   169   ar
   184   171   172   ar
   185   126   127    2
   186   126   136   am
   187   169   166   ar
   188   172   170   ar
   189   107   105   am
   190   144   142   ar
   191   144   146   ar
   192   166   168   ar
   193   166   164   ar
   194   170   168   ar
   195   163   164    1
   196   163   160    1
   197   136   137    1
   198   168   167   ar
   199   164   165   ar
   200   142   141   ar
   201   167   165   ar
   202   106   105    2
   203   146   145   ar
   204   105   104    1
   205   151   152    1
   206   151   148    1
   207   154   152   ar
   208   154   156   ar
   209   152   153   ar
   210   156   157   ar
   211   160   159    1
   212   160   161    1
   213   141   140    1
   214   141   143   ar
   215   137   140    1
   216   137   138    1
   217   153   155   ar
   218   147   148    1
   219   157   155   ar
   220   157   158    1
   221   145   143   ar
   222   104   101    1
   223   148   149    1
   224   138   139    2
   225   162   161    2
   226   103   102    2
   227   102   101    1
   228   149   150    2
   229   101   100    1
