@<TRIPOS>MOLECULE
tmp/5c7tA00.pdb
 167 155 0 0 0
SMALL
GASTEIGER

@<TRIPOS>ATOM
      1  N         13.8900  100.2410   27.3090 N.3    19  TYR19      -0.1227
      2  CA        13.5180   99.5150   26.1210 C.3    19  TYR19       0.1736
      3  C         13.1710   98.0920   26.3560 C.2    19  TYR19       0.2595
      4  O         12.3410   97.5890   25.6370 O.2    19  TYR19      -0.2718
      5  CB        14.6540   99.5350   25.0570 C.3    19  TYR19       0.0548
      6  CG        14.7980  100.8830   24.4970 C.ar   19  TYR19      -0.0200
      7  CD1       13.9630  101.3240   23.4640 C.ar   19  TYR19      -0.0009
      8  CD2       15.6800  101.7940   25.0630 C.ar   19  TYR19      -0.0009
      9  CE1       14.0550  102.6390   22.9720 C.ar   19  TYR19       0.0417
     10  CE2       15.7720  103.1010   24.5880 C.ar   19  TYR19       0.0417
     11  CZ        14.9670  103.5200   23.5410 C.ar   19  TYR19       0.1957
     12  OH        15.0930  104.8130   23.0930 O.3    19  TYR19      -0.2866
     13  N         13.8830   97.4050   27.2470 N.am   20  LEU20      -0.1980
     14  CA        13.7420   95.9650   27.3840 C.3    20  LEU20       0.1596
     15  C         12.7720   95.6300   28.4930 C.2    20  LEU20       0.2287
     16  O         12.8680   96.1460   29.5940 O.2    20  LEU20      -0.2864
     17  CB        15.0730   95.2670   27.6680 C.3    20  LEU20       0.0297
     18  CG        16.1270   95.5100   26.6000 C.3    20  LEU20       0.0022
     19  CD1       17.3700   94.7550   26.9730 C.3    20  LEU20       0.0001
     20  CD2       15.6160   95.0660   25.2130 C.3    20  LEU20       0.0001
     21  N          9.1870   90.6570   23.2270 N.3    42  HIS42      -0.1241
     22  CA         9.5560   91.3870   22.0290 C.3    42  HIS42       0.1621
     23  C          8.3360   91.2590   21.1300 C.2    42  HIS42       0.2264
     24  O          7.7720   90.1650   21.0360 O.2    42  HIS42      -0.2867
     25  CB        10.7810   90.7030   21.3520 C.3    42  HIS42       0.0745
     26  CG        11.4020   91.5220   20.2690 C.ar   42  HIS42       0.0817
     27  ND1       10.8430   91.6290   19.0090 N.ar   42  HIS42      -0.2268
     28  CD2       12.5280   92.2810   20.2460 C.ar   42  HIS42       0.1154
     29  CE1       11.5750   92.4430   18.2670 C.ar   42  HIS42       0.1986
     30  NE2       12.6080   92.8440   18.9880 N.ar   42  HIS42      -0.2212
     31  N          9.3280   91.1480   14.4790 N.3    45  ALA45      -0.1245
     32  CA         9.9620   92.0570   13.5150 C.3    45  ALA45       0.1562
     33  C          9.7920   91.5850   12.0670 C.2    45  ALA45       0.2260
     34  O          9.3890   90.4530   11.8030 O.2    45  ALA45      -0.2867
     35  CB        11.4520   92.1950   13.8780 C.3    45  ALA45       0.0290
     36  N         24.9510   99.9720    9.6360 N.3    62  GLN62      -0.1245
     37  CA        24.3420  100.5240   10.8610 C.3    62  GLN62       0.1566
     38  C         25.2060  100.1430   12.0670 C.2    62  GLN62       0.2260
     39  O         25.5500   98.9790   12.2150 O.2    62  GLN62      -0.2867
     40  CB        22.9370   99.9640   11.0190 C.3    62  GLN62       0.0367
     41  CG        22.1880  100.4960   12.2320 C.3    62  GLN62       0.0905
     42  CD        20.7120  100.1440   12.2180 C.2    62  GLN62       0.2608
     43  OE1       19.9020  100.8880   12.7130 O.2    62  GLN62      -0.2717
     44  NE2       20.3650   99.0070   11.6750 N.am   62  GLN62      -0.0878
     45  N         25.9310   99.1820   15.9120 N.3    64  ARG64      -0.1245
     46  CA        25.1000   98.3910   16.8920 C.3    64  ARG64       0.1563
     47  C         25.8830   98.4020   18.2000 C.2    64  ARG64       0.2260
     48  O         26.9230   97.7240   18.3430 O.2    64  ARG64      -0.2867
     49  CB        24.7870   96.9600   16.4170 C.3    64  ARG64       0.0307
     50  CG        23.9200   96.8880   15.1540 C.3    64  ARG64       0.0489
     51  CD        22.5130   97.4780   15.4410 C.3    64  ARG64       0.2205
     52  NE        21.5770   97.0570   14.4690 N.pl3  64  ARG64      -0.0865
     53  CZ        20.2640   97.0300   14.6130 C.cat  64  ARG64       0.5346
     54  NH1       19.6510   97.4800   15.6900 N.pl3  64  ARG64       0.1354
     55  NH2       19.5420   96.5750   13.6110 N.pl3  64  ARG64       0.1354
     56  N         25.3360   97.3730   21.0700 N.3    66  ALA66      -0.1245
     57  CA        25.3800   96.1610   21.8990 C.3    66  ALA66       0.1562
     58  C         26.6810   95.3920   21.6470 C.2    66  ALA66       0.2260
     59  O         27.2190   94.7440   22.5690 O.2    66  ALA66      -0.2867
     60  CB        24.1820   95.2820   21.5990 C.3    66  ALA66       0.0290
     61  N         15.3290   96.2260    8.3310 N.3    76  ALA76      -0.1231
     62  CA        14.4670   95.5460    9.2920 C.3    76  ALA76       0.1694
     63  C         13.8500   96.5110   10.3210 C.2    76  ALA76       0.2593
     64  O         14.3370   97.5970   10.5360 O.2    76  ALA76      -0.2718
     65  CB        15.2750   94.5000   10.0270 C.3    76  ALA76       0.0304
     66  N         12.7610   96.1020   10.9550 N.am   77  GLY77      -0.1942
     67  CA        12.2700   96.8420   12.1410 C.3    77  GLY77       0.2014
     68  C         11.2330   96.0350   12.9260 C.2    77  GLY77       0.2638
     69  O         10.7660   95.0010   12.4720 O.2    77  GLY77      -0.2714
     70  N         10.8230   96.5730   14.0660 N.am   78  LYS78      -0.1977
     71  CA         9.8780   95.9370   14.9630 C.3    78  LYS78       0.1596
     72  C          8.4740   96.0600   14.4420 C.2    78  LYS78       0.2287
     73  O          8.1260   97.0560   13.8220 O.2    78  LYS78      -0.2864
     74  CB         9.9630   96.5890   16.3450 C.3    78  LYS78       0.0298
     75  CG        11.3710   96.4410   16.9020 C.3    78  LYS78       0.0038
     76  CD        11.5100   96.5280   18.4270 C.3    78  LYS78       0.0206
     77  CE        11.8890   97.9200   18.9170 C.3    78  LYS78       0.1093
     78  NZ        12.9480   97.8610   19.9730 N.3    78  LYS78      -0.1314
     79  N          9.4320   99.8050    6.6910 N.3    92  GLU92      -0.1245
     80  CA        10.8650   99.9210    7.0050 C.3    92  GLU92       0.1567
     81  C         11.7460  100.0380    5.7680 C.2    92  GLU92       0.2260
     82  O         12.7900  100.7210    5.7780 O.2    92  GLU92      -0.2867
     83  CB        11.3230   98.7470    7.8900 C.3    92  GLU92       0.0388
     84  CG        10.7480   98.8290    9.2890 C.3    92  GLU92       0.1160
     85  CD        11.4050   99.8990   10.1530 C.2    92  GLU92       0.3649
     86  OE1       12.4150  100.5110    9.7300 O.co2  92  GLU92      -0.2457
     87  OE2       10.9390  100.1270   11.2880 O.co2  92  GLU92      -0.2457
     88  N         14.0240  103.1990    5.8820 N.3    96  GLU96      -0.1245
     89  CA        15.4730  103.0060    6.0750 C.3    96  GLU96       0.1567
     90  C         16.2320  103.1790    4.7700 C.2    96  GLU96       0.2260
     91  O         17.3800  103.5700    4.7980 O.2    96  GLU96      -0.2867
     92  CB        15.8060  101.6450    6.6980 C.3    96  GLU96       0.0388
     93  CG        15.3120  101.4250    8.1270 C.3    96  GLU96       0.1160
     94  CD        15.8790  100.1430    8.7620 C.2    96  GLU96       0.3649
     95  OE1       16.1990   99.1500    8.0680 O.co2  96  GLU96      -0.2457
     96  OE2       15.9920  100.1140    9.9870 O.co2  96  GLU96      -0.2457
     97  N         15.6350   84.4520   16.6600 N.2   112  PRO112     -0.2584
     98  CA        17.0700   84.7030   16.8590 C.3   112  PRO112      0.1895
     99  C         17.6430   84.4060   18.1960 C.2   112  PRO112      0.2359
    100  O         18.8480   84.3800   18.3050 O.2   112  PRO112     -0.2858
    101  CB        17.2500   86.2200   16.6040 C.2   112  PRO112      0.0071
    102  CG        15.9080   86.8010   16.4380 C.2   112  PRO112      0.0180
    103  CD        14.8860   85.7000   16.4000 C.2   112  PRO112      0.0937
    104  N         11.2530   86.8630   20.5590 N.3   119  GLU119     -0.1245
    105  CA        11.3420   87.4830   19.2390 C.3   119  GLU119      0.1567
    106  C         11.2280   86.4900   18.0840 C.2   119  GLU119      0.2260
    107  O         11.8820   85.4460   18.0790 O.2   119  GLU119     -0.2867
    108  CB        12.6490   88.2710   19.0640 C.3   119  GLU119      0.0388
    109  CG        12.6760   89.0770   17.7770 C.3   119  GLU119      0.1160
    110  CD        13.9880   89.8100   17.4650 C.2   119  GLU119      0.3649
    111  OE1       14.9290   89.8970   18.2930 O.co2 119  GLU119     -0.2457
    112  OE2       14.0160   90.3410   16.3420 O.co2 119  GLU119     -0.2457
    113  N         11.3250   86.9500   13.6520 N.3   121  ILE121     -0.1245
    114  CA        11.5010   87.8540   12.5250 C.3   121  ILE121      0.1561
    115  C         10.9400   87.1840   11.2320 C.2   121  ILE121      0.2260
    116  O         11.2970   86.0560   10.8520 O.2   121  ILE121     -0.2867
    117  CB        12.9980   88.2220   12.2840 C.3   121  ILE121      0.0252
    118  CG1       13.6980   88.6220   13.5700 C.3   121  ILE121      0.0019
    119  CG2       13.1340   89.3770   11.2470 C.3   121  ILE121      0.0019
    120  CD1       15.1760   88.8940   13.3940 C.3   121  ILE121      0.0001
    121  N         14.3120  107.5010   11.4360 N.3   137  ASP137     -0.1225
    122  CA        13.7490  107.8220   12.7450 C.3   137  ASP137      0.1805
    123  C         14.7880  108.4890   13.6720 C.2   137  ASP137      0.2598
    124  O         15.9970  108.3260   13.4970 O.2   137  ASP137     -0.2718
    125  CB        13.1040  106.5650   13.3790 C.3   137  ASP137      0.1424
    126  CG        11.6410  106.3350   12.8830 C.2   137  ASP137      0.3668
    127  OD1       11.4300  106.0100   11.6900 O.co2 137  ASP137     -0.2456
    128  OD2       10.6960  106.5180   13.6830 O.co2 137  ASP137     -0.2456
    129  N         14.2940  109.2870   14.6170 N.am  138  GLN138     -0.1965
    130  CA        15.0860  109.8630   15.7180 C.3   138  GLN138      0.1733
    131  C         16.0220  108.8110   16.3370 C.2   138  GLN138      0.2617
    132  O         15.5530  107.7750   16.8430 O.2   138  GLN138     -0.2715
    133  CB        14.1060  110.4010   16.7900 C.3   138  GLN138      0.0408
    134  CG        14.6890  110.8660   18.1260 C.3   138  GLN138      0.0908
    135  CD        15.4680  112.1650   18.0170 C.2   138  GLN138      0.2608
    136  OE1       16.5110  112.2220   17.3600 O.2   138  GLN138     -0.2717
    137  NE2       14.9700  113.2170   18.6700 N.am  138  GLN138     -0.0878
    138  N         17.3340  109.0710   16.2870 N.am  139  GLY139     -0.1940
    139  CA        18.3190  108.1710   16.8780 C.3   139  GLY139      0.2014
    140  C         18.6610  106.9650   16.0230 C.2   139  GLY139      0.2638
    141  O         19.3050  106.0250   16.4890 O.2   139  GLY139     -0.2714
    142  N         18.2530  107.0130   14.7570 N.am  140  GLN140     -0.1977
    143  CA        18.6190  105.9970   13.7590 C.3   140  GLN140      0.1601
    144  C         19.6210  106.5690   12.7260 C.2   140  GLN140      0.2287
    145  O         19.3970  107.5960   12.0830 O.2   140  GLN140     -0.2864
    146  CB        17.3500  105.4840   13.0640 C.3   140  GLN140      0.0394
    147  CG        17.3920  104.0230   12.7090 C.3   140  GLN140      0.0908
    148  CD        16.0660  103.4990   12.1990 C.2   140  GLN140      0.2608
    149  OE1       15.2470  104.2510   11.6170 O.2   140  GLN140     -0.2717
    150  NE2       15.8550  102.1920   12.3820 N.am  140  GLN140     -0.0878
    151  N         25.6460   89.2890   11.4740 N.3   163  ASP163     -0.1239
    152  CA        24.2500   89.4830   11.8130 C.3   163  ASP163      0.1674
    153  C         23.3790   88.3410   11.3160 C.2   163  ASP163      0.2266
    154  O         23.2740   88.1230   10.1250 O.2   163  ASP163     -0.2867
    155  CB        23.7640   90.8080   11.2170 C.3   163  ASP163      0.1410
    156  CG        22.2680   91.0250   11.3830 C.2   163  ASP163      0.3668
    157  OD1       21.6440   90.5510   12.3990 O.co2 163  ASP163     -0.2456
    158  OD2       21.7100   91.6620   10.4650 O.co2 163  ASP163     -0.2456
    159  N         20.2140   87.5710   11.1130 N.3   165  LYS165     -0.1245
    160  CA        19.0790   87.7200   10.2020 C.3   165  LYS165      0.1561
    161  C         19.5360   87.9500    8.7710 C.2   165  LYS165      0.2260
    162  O         18.9560   87.4060    7.8400 O.2   165  LYS165     -0.2867
    163  CB        18.0750   88.8040   10.6140 C.3   165  LYS165      0.0271
    164  CG        18.6020   90.2240   10.5990 C.3   165  LYS165      0.0035
    165  CD        17.5610   91.1830   11.1310 C.3   165  LYS165      0.0206
    166  CE        18.0240   92.6380   11.0770 C.3   165  LYS165      0.1093
    167  NZ        19.3110   92.9010   11.7200 N.3   165  LYS165     -0.1314
@<TRIPOS>BOND
     1    90    91    2
     2    90    89    1
     3    81    82    2
     4    81    80    1
     5    88    89    1
     6    89    92    1
     7    79    80    1
     8    92    93    1
     9    80    83    1
    10   162   161    2
    11    83    84    1
    12    95    94   ar
    13    93    94    1
    14    61    62    1
    15    94    96   ar
    16   161   160    1
    17    84    85    1
    18    62    65    1
    19    62    63    1
    20    36    37    1
    21    86    85   ar
    22   154   153    2
    23    85    87   ar
    24   160   163    1
    25   160   159    1
    26    63    64    2
    27    63    66   am
    28   158   156   ar
    29   164   163    1
    30   164   165    1
    31   116   115    2
    32    37    40    1
    33    37    38    1
    34    66    67    1
    35    40    41    1
    36   166   165    1
    37   166   167    1
    38   155   156    1
    39   155   152    1
    40   115   114    1
    41   119   117    1
    42   153   152    1
    43   156   157   ar
    44   121   122    1
    45   151   152    1
    46   149   148    2
    47    44    42   am
    48   127   126   ar
    49    34    33    2
    50    38    39    2
    51    33    32    1
    52   145   144    2
    53    67    68    1
    54   148   150   am
    55   148   147    1
    56    42    41    1
    57    42    43    2
    58   117   114    1
    59   117   118    1
    60    69    68    2
    61   114   113    1
    62   147   146    1
    63   144   143    1
    64   122   125    1
    65   122   123    1
    66   126   125    1
    67   126   128   ar
    68    68    70   am
    69   146   143    1
    70   120   118    1
    71   124   123    2
    72    32    35    1
    73    32    31    1
    74    55    53    1
    75   123   129   am
    76   143   142    1
    77    73    72    2
    78    70    71    1
    79    72    71    1
    80    52    53    2
    81    52    51    1
    82    53    54    1
    83   129   130    1
    84   142   140   am
    85    71    74    1
    86    50    51    1
    87    50    49    1
    88   130   131    1
    89   130   133    1
    90    45    46    1
    91   140   141    2
    92   140   139    1
    93   138   131   am
    94   138   139    1
    95   131   132    2
    96   112   110   ar
    97    74    75    1
    98   103   102    1
    99   103    97    2
   100    49    46    1
   101   102   101    2
   102   101    98    1
   103    97    98    1
   104   133   134    1
   105    98    99    1
   106    46    47    1
   107    75    76    1
   108   136   135    2
   109   110   109    1
   110   110   111   ar
   111   109   108    1
   112   135   134    1
   113   135   137   am
   114   107   106    2
   115   106   105    1
   116    99   100    2
   117    47    48    2
   118    29    30   ar
   119    29    27   ar
   120    76    77    1
   121    77    78    1
   122    30    28   ar
   123    27    26   ar
   124   108   105    1
   125   105   104    1
   126    28    26   ar
   127    26    25    1
   128    24    23    2
   129    56    57    1
   130    23    22    1
   131    25    22    1
   132    60    57    1
   133    58    57    1
   134    58    59    2
   135    22    21    1
   136     9     7   ar
   137     9    11   ar
   138    12    11    1
   139     7     6   ar
   140    11    10   ar
   141     6     5    1
   142     6     8   ar
   143    10     8   ar
   144     5     2    1
   145    20    18    1
   146     4     3    2
   147     2     3    1
   148     2     1    1
   149     3    13   am
   150    18    19    1
   151    18    17    1
   152    13    14    1
   153    14    17    1
   154    14    15    1
   155    15    16    2
