@<TRIPOS>MOLECULE
tmp/5c7vA00.pdb
 105 98 0 0 0
SMALL
GASTEIGER

@<TRIPOS>ATOM
      1  N         26.8650   80.2730   61.0090 N.3   117  VAL117     -0.1245
      2  CA        27.8690   80.1460   59.9580 C.3   117  VAL117      0.1561
      3  C         27.5970   78.8640   59.2050 C.2   117  VAL117      0.2260
      4  O         27.4620   77.8050   59.8110 O.2   117  VAL117     -0.2867
      5  CB        29.3120   80.1000   60.4810 C.3   117  VAL117      0.0252
      6  CG1       30.2810   79.9200   59.3100 C.3   117  VAL117      0.0019
      7  CG2       29.6420   81.3510   61.2430 C.3   117  VAL117      0.0019
      8  N         28.1420   76.4350   55.3850 N.3   119  PRO119     -0.2116
      9  CA        28.8430   76.2120   54.1130 C.3   119  PRO119      0.1372
     10  C         28.0050   76.6120   52.8970 C.2   119  PRO119      0.2244
     11  O         26.9420   76.0360   52.6440 O.2   119  PRO119     -0.2868
     12  CB        29.1080   74.7010   54.1120 C.3   119  PRO119      0.0268
     13  CG        28.1860   74.1390   55.1140 C.3   119  PRO119      0.0207
     14  CD        28.0360   75.1970   56.1680 C.3   119  PRO119      0.0892
     15  N         34.5990   76.2310   56.1040 N.3   274  SER274     -0.1217
     16  CA        33.5220   75.2500   56.2120 C.3   274  SER274      0.1889
     17  C         33.1530   74.5690   54.8900 C.2   274  SER274      0.2288
     18  O         32.2590   73.7260   54.8660 O.2   274  SER274     -0.2866
     19  CB        32.2820   75.8660   56.8620 C.3   274  SER274      0.2089
     20  OG        31.5920   76.6960   55.9470 O.3   274  SER274     -0.2183
     21  N         31.6230   85.1010   53.8270 N.3   328  ARG328     -0.1245
     22  CA        33.0480   85.0130   54.1890 C.3   328  ARG328      0.1563
     23  C         33.9000   84.5580   53.0020 C.2   328  ARG328      0.2260
     24  O         33.7730   83.4220   52.5270 O.2   328  ARG328     -0.2867
     25  CB        33.3040   84.1220   55.4140 C.3   328  ARG328      0.0307
     26  CG        34.7870   84.0720   55.8300 C.3   328  ARG328      0.0489
     27  CD        35.0460   83.4690   57.2320 C.3   328  ARG328      0.2205
     28  NE        34.8430   82.0190   57.2690 N.pl3 328  ARG328     -0.0865
     29  CZ        35.0130   81.2570   58.3480 C.cat 328  ARG328      0.5346
     30  NH1       35.4090   81.7880   59.4980 N.pl3 328  ARG328      0.1354
     31  NH2       34.8030   79.9530   58.2770 N.pl3 328  ARG328      0.1354
     32  N         40.0090   77.7770   67.2100 N.3   450  LEU450     -0.1245
     33  CA        40.8250   76.8760   66.4140 C.3   450  LEU450      0.1561
     34  C         41.9990   77.5430   65.6640 C.2   450  LEU450      0.2260
     35  O         43.1610   77.2460   65.9720 O.2   450  LEU450     -0.2867
     36  CB        39.9640   75.9530   65.5310 C.3   450  LEU450      0.0270
     37  CG        38.8840   75.0700   66.1910 C.3   450  LEU450      0.0019
     38  CD1       38.0340   74.3340   65.1550 C.3   450  LEU450      0.0001
     39  CD2       39.4630   74.0610   67.1560 C.3   450  LEU450      0.0001
     40  N         32.5140   79.6810   67.9440 N.3   504  MET504     -0.1245
     41  CA        31.5050   78.6580   67.6680 C.3   504  MET504      0.1570
     42  C         31.2870   77.6570   68.7920 C.2   504  MET504      0.2261
     43  O         32.2500   77.1240   69.3470 O.2   504  MET504     -0.2867
     44  CB        31.9230   77.8610   66.4380 C.3   504  MET504      0.0387
     45  CG        30.9500   76.7680   66.0580 C.3   504  MET504      0.0595
     46  SD        29.3700   77.3960   65.4560 S.3   504  MET504     -0.1393
     47  CE        29.7560   77.8900   63.7660 C.3   504  MET504      0.0692
     48  N         30.7490   74.1290   69.1460 N.3   506  THR506     -0.1218
     49  CA        30.9340   73.0190   68.2040 C.3   506  THR506      0.1862
     50  C         30.1290   71.7630   68.5400 C.2   506  THR506      0.2287
     51  O         29.8800   70.9270   67.6660 O.2   506  THR506     -0.2866
     52  CB        32.4200   72.6220   68.0560 C.3   506  THR506      0.1770
     53  OG1       32.9590   72.2750   69.3350 O.3   506  THR506     -0.2211
     54  CG2       33.2250   73.7590   67.4660 C.3   506  THR506      0.0375
     55  N         28.9190   82.6910   67.5480 N.3   530  TRP530     -0.1241
     56  CA        28.6270   81.6850   66.5190 C.3   530  TRP530      0.1605
     57  C         27.9100   80.4330   67.0040 C.2   530  TRP530      0.2264
     58  O         28.2900   79.8340   68.0060 O.2   530  TRP530     -0.2867
     59  CB        29.8930   81.2980   65.7460 C.3   530  TRP530      0.0550
     60  CG        30.3530   82.3760   64.8210 C.ar  530  TRP530      0.0003
     61  CD1       29.7760   83.5910   64.6470 C.ar  530  TRP530      0.0946
     62  CD2       31.4910   82.3390   63.9530 C.ar  530  TRP530      0.0152
     63  NE1       30.4810   84.3200   63.7380 N.ar  530  TRP530     -0.2442
     64  CE2       31.5340   83.5730   63.2830 C.ar  530  TRP530      0.0810
     65  CE3       32.4640   81.3790   63.6670 C.ar  530  TRP530      0.0012
     66  CZ2       32.5210   83.8760   62.3380 C.ar  530  TRP530      0.0191
     67  CZ3       33.4410   81.6820   62.7270 C.ar  530  TRP530      0.0001
     68  CH2       33.4650   82.9210   62.0810 C.ar  530  TRP530      0.0015
     69  N         26.0380   76.5410   65.6980 N.3   532  PRO532     -0.2116
     70  CA        26.1970   75.5360   64.6390 C.3   532  PRO532      0.1372
     71  C         24.9250   75.2370   63.8250 C.2   532  PRO532      0.2244
     72  O         25.0360   74.6600   62.7360 O.2   532  PRO532     -0.2868
     73  CB        26.6360   74.2900   65.4150 C.3   532  PRO532      0.0268
     74  CG        26.0210   74.4610   66.7760 C.3   532  PRO532      0.0207
     75  CD        26.0390   75.9350   67.0470 C.3   532  PRO532      0.0892
     76  N         32.3010   70.6410   56.4170 N.3   608  ALA608     -0.1245
     77  CA        31.6320   70.8460   57.6950 C.3   608  ALA608      0.1562
     78  C         30.4790   69.8650   57.8670 C.2   608  ALA608      0.2260
     79  O         29.6210   69.7450   56.9880 O.2   608  ALA608     -0.2867
     80  CB        31.1410   72.2880   57.8270 C.3   608  ALA608      0.0290
     81  N         30.7640   69.9490   65.2700 N.3   620  MET620     -0.1230
     82  CA        30.7890   70.5930   63.9680 C.3   620  MET620      0.1702
     83  C         31.8940   71.6310   63.9080 C.2   620  MET620      0.2592
     84  O         31.6550   72.8300   64.0660 O.2   620  MET620     -0.2718
     85  CB        29.4490   71.2210   63.5950 C.3   620  MET620      0.0401
     86  CG        29.4700   71.7950   62.1670 C.3   620  MET620      0.0596
     87  SD        27.8520   71.9680   61.4050 S.3   620  MET620     -0.1393
     88  CE        27.1690   70.3490   61.7340 C.3   620  MET620      0.0692
     89  N         33.1120   71.1590   63.6890 N.am  621  GLU621     -0.1966
     90  CA        34.2530   72.0510   63.5480 C.3   621  GLU621      0.1733
     91  C         34.4660   72.3710   62.0670 C.2   621  GLU621      0.2616
     92  O         33.8960   71.7100   61.1960 O.2   621  GLU621     -0.2715
     93  CB        35.5000   71.4130   64.1590 C.3   621  GLU621      0.0429
     94  CG        35.3710   71.1990   65.6550 C.3   621  GLU621      0.1163
     95  CD        36.4720   70.3390   66.2340 C.2   621  GLU621      0.3649
     96  OE1       36.9650   70.6780   67.3350 O.co2 621  GLU621     -0.2457
     97  OE2       36.8360   69.3180   65.5990 O.co2 621  GLU621     -0.2457
     98  N         35.2530   73.4040   61.7800 N.am  622  ASP622     -0.1971
     99  CA        35.6350   73.6700   60.4090 C.3   622  ASP622      0.1709
    100  C         37.1010   73.2880   60.2110 C.2   622  ASP622      0.2293
    101  O         37.7110   72.7030   61.1120 O.2   622  ASP622     -0.2864
    102  CB        35.3220   75.1140   60.0180 C.3   622  ASP622      0.1436
    103  CG        36.1780   76.1290   60.7470 C.2   622  ASP622      0.3671
    104  OD1       36.9530   75.7400   61.6600 O.co2 622  ASP622     -0.2456
    105  OD2       36.0680   77.3330   60.3970 O.co2 622  ASP622     -0.2456
@<TRIPOS>BOND
     1    24    23    2
     2    11    10    2
     3    10     9    1
     4    23    22    1
     5    21    22    1
     6    12     9    1
     7    12    13    1
     8     9     8    1
     9    22    25    1
    10    18    17    2
    11    17    16    1
    12    13    14    1
    13     8    14    1
    14    25    26    1
    15    26    27    1
    16    20    19    1
    17    15    16    1
    18    16    19    1
    19    76    77    1
    20    79    78    2
    21    27    28    1
    22    28    29    2
    23    77    80    1
    24    77    78    1
    25    31    29    1
    26    29    30    1
    27     3     4    2
    28     3     2    1
    29     6     5    1
    30     2     5    1
    31     2     1    1
    32   102    99    1
    33   102   103    1
    34   100    99    1
    35   100   101    2
    36   105   103   ar
    37    99    98    1
    38     5     7    1
    39   103   104   ar
    40    92    91    2
    41    87    88    1
    42    87    86    1
    43    98    91   am
    44    91    90    1
    45    68    66   ar
    46    68    67   ar
    47    86    85    1
    48    66    64   ar
    49    67    65   ar
    50    72    71    2
    51    64    63   ar
    52    64    62   ar
    53    90    89    1
    54    90    93    1
    55    85    82    1
    56    65    62   ar
    57    89    83   am
    58    63    61   ar
    59    47    46    1
    60    71    70    1
    61    83    82    1
    62    83    84    2
    63    62    60   ar
    64    82    81    1
    65    93    94    1
    66    70    73    1
    67    70    69    1
    68    61    60   ar
    69    60    59    1
    70    38    37    1
    71    73    74    1
    72    46    45    1
    73    36    37    1
    74    36    33    1
    75    97    95   ar
    76    94    95    1
    77    34    35    2
    78    34    33    1
    79    69    75    1
    80    59    56    1
    81    45    44    1
    82    37    39    1
    83    95    96   ar
    84    33    32    1
    85    44    41    1
    86    56    57    1
    87    56    55    1
    88    74    75    1
    89    57    58    2
    90    54    52    1
    91    51    50    2
    92    41    40    1
    93    41    42    1
    94    52    49    1
    95    52    53    1
    96    49    50    1
    97    49    48    1
    98    42    43    2
