@<TRIPOS>MOLECULE
tmp/5c81B00.pdb
 166 162 0 0 0
SMALL
GASTEIGER

@<TRIPOS>ATOM
      1  N         21.9570   27.9190  -22.7330 N.3    30  ASP30      -0.1225
      2  CA        22.9780   27.2320  -21.9750 C.3    30  ASP30       0.1805
      3  C         24.3340   27.3490  -22.6910 C.2    30  ASP30       0.2598
      4  O         24.4490   28.0280  -23.7150 O.2    30  ASP30      -0.2718
      5  CB        22.5690   25.7700  -21.8270 C.3    30  ASP30       0.1424
      6  CG        22.2420   25.1500  -23.1650 C.2    30  ASP30       0.3668
      7  OD1       23.1920   24.7310  -23.8540 O.co2  30  ASP30      -0.2456
      8  OD2       21.0570   25.1310  -23.5600 O.co2  30  ASP30      -0.2456
      9  N         25.3520   26.6730  -22.1580 N.am   31  GLY31      -0.1942
     10  CA        26.6930   26.7520  -22.7280 C.3    31  GLY31       0.2014
     11  C         26.8080   26.4260  -24.2110 C.2    31  GLY31       0.2638
     12  O         27.6830   26.9550  -24.9140 O.2    31  GLY31      -0.2714
     13  N         25.9220   25.5660  -24.7110 N.am   32  LEU32      -0.1977
     14  CA        26.0190   25.1360  -26.1060 C.3    32  LEU32       0.1596
     15  C         25.5890   26.2560  -27.0520 C.2    32  LEU32       0.2287
     16  O         25.8750   26.2040  -28.2460 O.2    32  LEU32      -0.2864
     17  CB        25.1780   23.8750  -26.3570 C.3    32  LEU32       0.0297
     18  CG        25.5470   22.6960  -25.4410 C.3    32  LEU32       0.0022
     19  CD1       24.7230   21.4560  -25.7970 C.3    32  LEU32       0.0001
     20  CD2       27.0380   22.3960  -25.5100 C.3    32  LEU32       0.0001
     21  N         22.5410   26.7510  -16.8050 N.3   101  SER101     -0.1202
     22  CA        23.9590   26.3770  -16.8430 C.3   101  SER101      0.2020
     23  C         24.8280   27.6420  -16.8900 C.2   101  SER101      0.2619
     24  O         24.6730   28.5070  -16.0470 O.2   101  SER101     -0.2717
     25  CB        24.2410   25.4480  -18.0300 C.3   101  SER101      0.2103
     26  OG        25.2940   24.5460  -17.7160 O.3   101  SER101     -0.2182
     27  N         25.7390   27.7760  -17.8550 N.am  102  SER102     -0.1951
     28  CA        26.4580   29.0550  -17.9730 C.3   102  SER102      0.1924
     29  C         25.4840   30.2290  -18.1760 C.2   102  SER102      0.2314
     30  O         25.7670   31.3600  -17.7760 O.2   102  SER102     -0.2863
     31  CB        27.4720   29.0050  -19.1220 C.3   102  SER102      0.2116
     32  OG        26.8170   28.6410  -20.3230 O.3   102  SER102     -0.2180
     33  N         26.2440   26.0590  -12.5430 N.3   127  PRO127     -0.2116
     34  CA        27.4390   25.2930  -12.1860 C.3   127  PRO127      0.1372
     35  C         28.3800   26.0780  -11.2760 C.2   127  PRO127      0.2244
     36  O         28.8430   27.1580  -11.6320 O.2   127  PRO127     -0.2868
     37  CB        28.0900   25.0060  -13.5470 C.3   127  PRO127      0.0268
     38  CG        27.6700   26.1680  -14.4080 C.3   127  PRO127      0.0207
     39  CD        26.2690   26.5220  -13.9440 C.3   127  PRO127      0.0892
     40  N         30.8700   24.2160   -9.4010 N.3   129  LYS129     -0.1245
     41  CA        31.9680   23.3030   -9.1030 C.3   129  LYS129      0.1561
     42  C         32.7180   22.9090  -10.3670 C.2   129  LYS129      0.2260
     43  O         32.1070   22.6430  -11.4050 O.2   129  LYS129     -0.2867
     44  CB        31.4480   22.0410   -8.4040 C.3   129  LYS129      0.0271
     45  CG        30.7530   22.2860   -7.0750 C.3   129  LYS129      0.0035
     46  CD        30.0550   21.0230   -6.5790 C.3   129  LYS129      0.0206
     47  CE        29.4780   21.2180   -5.1830 C.3   129  LYS129      0.1093
     48  NZ        28.7000   20.0310   -4.7180 N.3   129  LYS129     -0.1314
     49  N         34.4580   20.4050  -12.7100 N.3   131  LEU131     -0.1245
     50  CA        34.3050   18.9800  -12.9540 C.3   131  LEU131      0.1561
     51  C         35.4340   18.5480  -13.8630 C.2   131  LEU131      0.2260
     52  O         35.4280   18.8560  -15.0550 O.2   131  LEU131     -0.2867
     53  CB        32.9490   18.6570  -13.5880 C.3   131  LEU131      0.0270
     54  CG        31.6990   19.0730  -12.8070 C.3   131  LEU131      0.0019
     55  CD1       30.4490   18.6890  -13.5840 C.3   131  LEU131      0.0001
     56  CD2       31.6870   18.4570  -11.4190 C.3   131  LEU131      0.0001
     57  N         34.8770   17.0240  -17.3470 N.3   134  LEU134     -0.1245
     58  CA        34.5140   17.9460  -18.4170 C.3   134  LEU134      0.1561
     59  C         35.7040   18.8080  -18.8280 C.2   134  LEU134      0.2260
     60  O         35.9440   19.0260  -20.0150 O.2   134  LEU134     -0.2867
     61  CB        33.3450   18.8380  -17.9940 C.3   134  LEU134      0.0270
     62  CG        31.9800   18.1600  -17.8800 C.3   134  LEU134      0.0019
     63  CD1       30.9610   19.1340  -17.3170 C.3   134  LEU134      0.0001
     64  CD2       31.5320   17.6430  -19.2360 C.3   134  LEU134      0.0001
     65  N         27.1760   12.4590  -24.0350 N.3   152  VAL152     -0.1231
     66  CA        26.8420   12.9480  -22.6980 C.3   152  VAL152      0.1692
     67  C         25.5200   13.7240  -22.7060 C.2   152  VAL152      0.2591
     68  O         24.6780   13.5310  -21.8250 O.2   152  VAL152     -0.2718
     69  CB        27.9500   13.8610  -22.1160 C.3   152  VAL152      0.0266
     70  CG1       27.4620   14.5570  -20.8540 C.3   152  VAL152      0.0020
     71  CG2       29.2020   13.0480  -21.8370 C.3   152  VAL152      0.0020
     72  N         25.3360   14.6040  -23.6880 N.am  153  MET153     -0.1979
     73  CA        24.1120   15.4140  -23.7090 C.3   153  MET153      0.1605
     74  C         22.8890   14.5170  -23.8420 C.2   153  MET153      0.2287
     75  O         21.9330   14.6560  -23.0800 O.2   153  MET153     -0.2864
     76  CB        24.1200   16.4430  -24.8490 C.3   153  MET153      0.0413
     77  CG        25.1860   17.5210  -24.7450 C.3   153  MET153      0.0598
     78  SD        25.2500   18.3130  -23.1150 S.3   153  MET153     -0.1393
     79  CE        26.9630   17.9920  -22.7070 C.3   153  MET153      0.0692
     80  N         22.1880   14.1470  -19.5150 N.3   157  VAL157     -0.1245
     81  CA        21.5710   15.3810  -19.0190 C.3   157  VAL157      0.1561
     82  C         20.3990   15.9430  -19.8350 C.2   157  VAL157      0.2260
     83  O         19.7940   16.9250  -19.4150 O.2   157  VAL157     -0.2867
     84  CB        22.6290   16.5110  -18.8840 C.3   157  VAL157      0.0252
     85  CG1       23.6860   16.1470  -17.8270 C.3   157  VAL157      0.0019
     86  CG2       23.2910   16.7800  -20.2240 C.3   157  VAL157      0.0019
     87  N         32.8360   25.0430  -26.7900 N.3   182  TRP182     -0.1241
     88  CA        32.3960   25.0190  -25.3940 C.3   182  TRP182      0.1605
     89  C         33.4730   24.3810  -24.5110 C.2   182  TRP182      0.2264
     90  O         33.8470   24.9450  -23.4840 O.2   182  TRP182     -0.2867
     91  CB        31.0650   24.2580  -25.2290 C.3   182  TRP182      0.0550
     92  CG        30.6550   24.1880  -23.7920 C.ar  182  TRP182      0.0003
     93  CD1       29.9290   25.1170  -23.0940 C.ar  182  TRP182      0.0946
     94  CD2       30.9890   23.1570  -22.8550 C.ar  182  TRP182      0.0152
     95  NE1       29.7770   24.7180  -21.7860 N.ar  182  TRP182     -0.2442
     96  CE2       30.4300   23.5240  -21.6110 C.ar  182  TRP182      0.0810
     97  CE3       31.7090   21.9600  -22.9460 C.ar  182  TRP182      0.0012
     98  CZ2       30.5680   22.7330  -20.4700 C.ar  182  TRP182      0.0191
     99  CZ3       31.8520   21.1790  -21.8090 C.ar  182  TRP182      0.0001
    100  CH2       31.2790   21.5680  -20.5870 C.ar  182  TRP182      0.0015
    101  N         34.8040   27.0180  -21.6810 N.3   186  TYR186     -0.1228
    102  CA        33.8200   27.1630  -20.6100 C.3   186  TYR186      0.1721
    103  C         34.1410   26.4260  -19.2950 C.2   186  TYR186      0.2437
    104  O         34.2000   27.0690  -18.2490 O.2   186  TYR186     -0.2733
    105  CB        32.4340   26.7330  -21.1310 C.3   186  TYR186      0.0547
    106  CG        31.7030   27.8100  -21.9130 C.ar  186  TYR186     -0.0200
    107  CD1       32.2200   28.3150  -23.1050 C.ar  186  TYR186     -0.0009
    108  CD2       30.4760   28.3040  -21.4730 C.ar  186  TYR186     -0.0009
    109  CE1       31.5380   29.3030  -23.8290 C.ar  186  TYR186      0.0417
    110  CE2       29.8000   29.2860  -22.1850 C.ar  186  TYR186      0.0417
    111  CZ        30.3350   29.7860  -23.3540 C.ar  186  TYR186      0.1957
    112  OH        29.6540   30.7660  -24.0520 O.3   186  TYR186     -0.2866
    113  N         34.3400   25.0900  -19.3270 N.am  187  PRO187     -0.2729
    114  CA        34.3130   24.3710  -18.0380 C.3   187  PRO187      0.1401
    115  C         35.4120   24.7380  -17.0380 C.2   187  PRO187      0.2269
    116  O         35.1980   24.5500  -15.8360 O.2   187  PRO187     -0.2865
    117  CB        34.4480   22.8950  -18.4490 C.3   187  PRO187      0.0296
    118  CG        35.0130   22.9160  -19.8350 C.3   187  PRO187      0.0237
    119  CD        34.4930   24.1640  -20.4680 C.3   187  PRO187      0.0939
    120  N         34.1170   28.9090  -16.1700 N.3   190  ILE190     -0.1231
    121  CA        32.7480   29.2850  -15.7860 C.3   190  ILE190      0.1678
    122  C         32.4320   29.0130  -14.3000 C.2   190  ILE190      0.2434
    123  O         31.9180   29.9060  -13.6110 O.2   190  ILE190     -0.2733
    124  CB        31.6840   28.5860  -16.7010 C.3   190  ILE190      0.0265
    125  CG1       31.5270   29.3650  -18.0120 C.3   190  ILE190      0.0019
    126  CG2       30.3350   28.4630  -15.9850 C.3   190  ILE190      0.0020
    127  CD1       30.8420   30.7240  -17.8420 C.3   190  ILE190      0.0001
    128  N         32.7200   27.7980  -13.7850 N.am  191  PRO191     -0.2729
    129  CA        32.2810   27.5820  -12.3930 C.3   191  PRO191      0.1401
    130  C         32.9290   28.5010  -11.3330 C.2   191  PRO191      0.2269
    131  O         32.2010   28.9210  -10.4180 O.2   191  PRO191     -0.2865
    132  CB        32.6420   26.1050  -12.1370 C.3   191  PRO191      0.0296
    133  CG        32.6150   25.4810  -13.5090 C.3   191  PRO191      0.0237
    134  CD        33.1670   26.5420  -14.4200 C.3   191  PRO191      0.0939
    135  N         23.2260   19.3150   -8.6030 N.3   220  PHE220     -0.1241
    136  CA        22.9810   20.7070   -8.2490 C.3   220  PHE220      0.1605
    137  C         22.4490   20.8400   -6.8380 C.2   220  PHE220      0.2264
    138  O         21.7540   21.7950   -6.5100 O.2   220  PHE220     -0.2867
    139  CB        22.0560   21.3420   -9.3040 C.3   220  PHE220      0.0534
    140  CG        22.7300   21.4420  -10.6380 C.ar  220  PHE220     -0.0203
    141  CD1       23.6330   22.4690  -10.8840 C.ar  220  PHE220     -0.0042
    142  CD2       22.5630   20.4510  -11.5980 C.ar  220  PHE220     -0.0042
    143  CE1       24.3200   22.5480  -12.0900 C.ar  220  PHE220     -0.0003
    144  CE2       23.2570   20.5120  -12.8020 C.ar  220  PHE220     -0.0003
    145  CZ        24.1370   21.5710  -13.0480 C.ar  220  PHE220     -0.0000
    146  N         18.5570   18.9170  -17.5010 N.3   241  HIS241     -0.1226
    147  CA        19.3110   20.1430  -17.7540 C.3   241  HIS241      0.1752
    148  C         18.6800   21.0190  -18.8320 C.2   241  HIS241      0.2596
    149  O         19.0440   22.1810  -18.9690 O.2   241  HIS241     -0.2718
    150  CB        20.7450   19.7890  -18.1540 C.3   241  HIS241      0.0759
    151  CG        21.7510   20.8690  -17.8770 C.ar  241  HIS241      0.0818
    152  ND1       21.8760   21.4840  -16.6510 N.ar  241  HIS241     -0.2268
    153  CD2       22.7020   21.4150  -18.6740 C.ar  241  HIS241      0.1154
    154  CE1       22.8540   22.3770  -16.7060 C.ar  241  HIS241      0.1986
    155  NE2       23.3730   22.3470  -17.9200 N.ar  241  HIS241     -0.2212
    156  N         17.7490   20.4680  -19.6060 N.am  242  PHE242     -0.1976
    157  CA        17.1870   21.2080  -20.7450 C.3   242  PHE242      0.1639
    158  C         15.6570   21.1900  -20.7540 C.2   242  PHE242      0.2290
    159  O         15.0550   20.6390  -21.6650 O.2   242  PHE242     -0.2864
    160  CB        17.7000   20.6220  -22.0820 C.3   242  PHE242      0.0560
    161  CG        19.1920   20.6730  -22.2490 C.ar  242  PHE242     -0.0200
    162  CD1       19.9900   19.6200  -21.8220 C.ar  242  PHE242     -0.0042
    163  CD2       19.7950   21.7600  -22.8700 C.ar  242  PHE242     -0.0042
    164  CE1       21.3860   19.6600  -21.9870 C.ar  242  PHE242     -0.0003
    165  CE2       21.1820   21.8080  -23.0490 C.ar  242  PHE242     -0.0003
    166  CZ        21.9740   20.7510  -22.6070 C.ar  242  PHE242     -0.0000
@<TRIPOS>BOND
     1    16    15    2
     2    15    14    1
     3    87    88    1
     4    17    14    1
     5    17    18    1
     6    14    13    1
     7    19    18    1
     8    20    18    1
     9    88    91    1
    10    88    89    1
    11    91    92    1
    12    12    11    2
    13    76    77    1
    14    76    73    1
    15    77    78    1
    16    13    11   am
    17    89    90    2
    18    11    10    1
    19   112   111    1
    20    65    66    1
    21     7     6   ar
    22    74    73    1
    23    74    75    2
    24   109   111   ar
    25   109   107   ar
    26    92    93   ar
    27    92    94   ar
    28     4     3    2
    29    73    72    1
    30    72    67   am
    31     8     6   ar
    32   111   110   ar
    33     6     5    1
    34    78    79    1
    35   107   106   ar
    36    93    95   ar
    37   165   163   ar
    38   165   166   ar
    39    97    94   ar
    40    97    99   ar
    41   163   161   ar
    42    94    96   ar
    43     1     2    1
    44    10     9    1
    45    67    66    1
    46    67    68    2
    47    66    69    1
    48     3     9   am
    49     3     2    1
    50   166   164   ar
    51   161   160    1
    52   161   162   ar
    53   110   108   ar
    54    69    71    1
    55    69    70    1
    56   160   157    1
    57   164   162   ar
    58     2     5    1
    59   106   108   ar
    60   106   105    1
    61    99   100   ar
    62    95    96   ar
    63   101   102    1
    64   159   158    2
    65    96    98   ar
    66   105   102    1
    67   158   157    1
    68   157   156    1
    69   102   103    1
    70   100    98   ar
    71   119   118    1
    72   119   113    1
    73    32    31    1
    74    86    84    1
    75    60    59    2
    76   118   117    1
    77    82    83    2
    78    82    81    1
    79   156   148   am
    80    80    81    1
    81   113   103   am
    82   113   114    1
    83   103   104    2
    84    64    62    1
    85    31    28    1
    86    81    84    1
    87   149   148    2
    88    84    85    1
    89   148   147    1
    90    59    58    1
    91   153   155   ar
    92   153   151   ar
    93   117   114    1
    94    58    61    1
    95    58    57    1
    96    29    28    1
    97    29    30    2
    98   150   151    1
    99   150   147    1
   100   114   115    1
   101    25    26    1
   102    25    22    1
   103   125   127    1
   104   125   124    1
   105    61    62    1
   106    28    27    1
   107   155   154   ar
   108    62    63    1
   109   151   152   ar
   110    27    23   am
   111   147   146    1
   112   115   116    2
   113    23    22    1
   114    23    24    2
   115    22    21    1
   116   154   152   ar
   117   124   126    1
   118   124   121    1
   119   120   121    1
   120   121   122    1
   121    52    51    2
   122   134   128    1
   123   134   133    1
   124    38    39    1
   125    38    37    1
   126   122   128   am
   127   122   123    2
   128    39    33    1
   129    51    50    1
   130   128   129    1
   131    53    50    1
   132    53    54    1
   133    55    54    1
   134    37    34    1
   135   133   132    1
   136   145   144   ar
   137   145   143   ar
   138    50    49    1
   139    54    56    1
   140   144   142   ar
   141    33    34    1
   142   129   132    1
   143   129   130    1
   144    34    35    1
   145   143   141   ar
   146    36    35    2
   147   142   140   ar
   148    43    42    2
   149   130   131    2
   150   141   140   ar
   151   140   139    1
   152    42    41    1
   153    40    41    1
   154   139   136    1
   155    41    44    1
   156   135   136    1
   157    44    45    1
   158   136   137    1
   159    45    46    1
   160   137   138    2
   161    46    47    1
   162    47    48    1
