@<TRIPOS>MOLECULE
tmp/5c82A00.pdb
 80 76 0 0 0
SMALL
GASTEIGER

@<TRIPOS>ATOM
      1  N         34.3580   17.6470    6.9490 N.3    91  ILE91      -0.1231
      2  CA        32.9090   17.3990    6.9780 C.3    91  ILE91       0.1692
      3  C         32.5810   16.9050    8.3830 C.2    91  ILE91       0.2592
      4  O         33.2480   15.9950    8.8740 O.2    91  ILE91      -0.2718
      5  CB        32.3490   16.5050    5.8270 C.3    91  ILE91       0.0266
      6  CG1       30.7970   16.3470    5.9450 C.3    91  ILE91       0.0019
      7  CG2       33.0990   15.1440    5.7140 C.3    91  ILE91       0.0020
      8  CD1       30.0750   15.6630    4.7620 C.3    91  ILE91       0.0001
      9  N         31.6360   17.5570    9.0590 N.am   92  GLU92      -0.1966
     10  CA        31.2440   17.1830   10.4140 C.3    92  GLU92       0.1733
     11  C         29.7760   17.3880   10.6690 C.2    92  GLU92       0.2616
     12  O         29.2000   18.3720   10.2130 O.2    92  GLU92      -0.2715
     13  CB        32.1120   17.8860   11.4700 C.3    92  GLU92       0.0429
     14  CG        33.2360   16.9960   11.9870 C.3    92  GLU92       0.1163
     15  CD        34.5690   17.6860   12.1880 C.2    92  GLU92       0.3649
     16  OE1       34.6150   18.7130   12.9060 O.co2  92  GLU92      -0.2457
     17  OE2       35.5820   17.1610   11.6710 O.co2  92  GLU92      -0.2457
     18  N         29.1570   16.4140   11.3380 N.am   93  VAL93      -0.1977
     19  CA        27.7490   16.4120   11.6840 C.3    93  VAL93       0.1596
     20  C         27.6610   16.2760   13.2190 C.2    93  VAL93       0.2287
     21  O         28.3940   15.4680   13.7870 O.2    93  VAL93      -0.2864
     22  CB        26.9770   15.2980   10.9040 C.3    93  VAL93       0.0276
     23  CG1       25.4980   15.2060   11.3160 C.3    93  VAL93       0.0022
     24  CG2       27.0840   15.5090    9.4010 C.3    93  VAL93       0.0022
     25  N         23.5070   12.7730   13.5130 N.3    98  ARG98      -0.1231
     26  CA        24.1060   11.6740   12.7590 C.3    98  ARG98       0.1694
     27  C         23.0670   10.5980   12.4020 C.2    98  ARG98       0.2592
     28  O         22.2390   10.2230   13.2360 O.2    98  ARG98      -0.2718
     29  CB        25.3420   11.1160   13.4700 C.3    98  ARG98       0.0321
     30  CG        26.5300   12.0460   13.2850 C.3    98  ARG98       0.0489
     31  CD        27.7590   11.5980   14.0280 C.3    98  ARG98       0.2205
     32  NE        28.5040   12.7690   14.4710 N.pl3  98  ARG98      -0.0865
     33  CZ        29.5400   12.7490   15.2980 C.cat  98  ARG98       0.5346
     34  NH1       30.0040   11.5950   15.7680 N.pl3  98  ARG98       0.1354
     35  NH2       30.1230   13.8820   15.6620 N.pl3  98  ARG98       0.1354
     36  N         23.0800   10.1870   11.1390 N.am   99  GLY99      -0.1957
     37  CA        22.1200    9.2290   10.6120 C.3    99  GLY99       0.1869
     38  C         20.7570    9.8400   10.3480 C.2    99  GLY99       0.2309
     39  O         19.7490    9.1240   10.3860 O.2    99  GLY99      -0.2863
     40  N         24.7870   14.5710    6.5390 N.3   103  GLY103     -0.1225
     41  CA        26.0640   14.2840    5.8900 C.3   103  GLY103      0.1811
     42  C         25.9310   14.0720    4.3970 C.2   103  GLY103      0.2280
     43  O         26.7150   14.6160    3.6220 O.2   103  GLY103     -0.2866
     44  N         38.2820    6.1460   12.3160 N.3   129  ASN129     -0.1240
     45  CA        36.8970    6.5440   12.0530 C.3   129  ASN129      0.1653
     46  C         36.1400    5.5070   11.1900 C.2   129  ASN129      0.2266
     47  O         35.6500    5.8430   10.1180 O.2   129  ASN129     -0.2867
     48  CB        36.7980    7.9750   11.4780 C.3   129  ASN129      0.1155
     49  CG        35.4830    8.6810   11.7780 C.2   129  ASN129      0.2627
     50  OD1       34.4800    8.0780   12.1270 O.2   129  ASN129     -0.2716
     51  ND2       35.4470    9.9920   11.6540 N.am  129  ASN129     -0.0877
     52  N         33.0180    4.3630   11.4210 N.3   131  PRO131     -0.2102
     53  CA        31.6770    4.8120   10.9740 C.3   131  PRO131      0.1504
     54  C         31.6430    5.8060    9.8030 C.2   131  PRO131      0.2575
     55  O         30.7140    5.7590    9.0140 O.2   131  PRO131     -0.2718
     56  CB        31.0720    5.4480   12.2410 C.3   131  PRO131      0.0282
     57  CG        31.8760    4.8280   13.4040 C.3   131  PRO131      0.0208
     58  CD        33.2600    4.7680   12.8290 C.3   131  PRO131      0.0893
     59  N         32.6010    6.7440    9.7180 N.am  132  ALA132     -0.1980
     60  CA        32.6470    7.6930    8.6080 C.3   132  ALA132      0.1597
     61  C         33.0950    6.9440    7.3790 C.2   132  ALA132      0.2287
     62  O         32.5410    7.1870    6.3160 O.2   132  ALA132     -0.2864
     63  CB        33.6090    8.8310    8.9030 C.3   132  ALA132      0.0319
     64  N         30.2160    5.1110    6.1410 N.3   135  ALA135     -0.1231
     65  CA        29.2600    6.1130    5.6070 C.3   135  ALA135      0.1694
     66  C         29.6860    6.6450    4.2170 C.2   135  ALA135      0.2592
     67  O         28.8350    6.8150    3.3370 O.2   135  ALA135     -0.2718
     68  CB        29.0730    7.2590    6.5930 C.3   135  ALA135      0.0304
     69  N         31.0160    6.8560    4.0120 N.am  136  TYR136     -0.1976
     70  CA        31.5940    7.3390    2.7470 C.3   136  TYR136      0.1639
     71  C         31.4480    6.3040    1.6780 C.2   136  TYR136      0.2290
     72  O         31.1670    6.6510    0.5310 O.2   136  TYR136     -0.2864
     73  CB        33.0900    7.6940    2.9130 C.3   136  TYR136      0.0560
     74  CG        33.3160    8.8960    3.8010 C.ar  136  TYR136     -0.0198
     75  CD1       32.4010    9.9540    3.8300 C.ar  136  TYR136     -0.0009
     76  CD2       34.4280    8.9720    4.6310 C.ar  136  TYR136     -0.0009
     77  CE1       32.5740   11.0340    4.6870 C.ar  136  TYR136      0.0417
     78  CE2       34.6030   10.0420    5.5080 C.ar  136  TYR136      0.0417
     79  CZ        33.6820   11.0780    5.5170 C.ar  136  TYR136      0.1957
     80  OH        33.8990   12.1530    6.3280 O.3   136  TYR136     -0.2866
@<TRIPOS>BOND
     1    72    71    2
     2    71    70    1
     3    70    73    1
     4    70    69    1
     5    73    74    1
     6    67    66    2
     7    43    42    2
     8    74    75   ar
     9    74    76   ar
    10    75    77   ar
    11    69    66   am
    12    66    65    1
    13    42    41    1
    14    76    78   ar
    15    77    79   ar
    16     8     6    1
    17    78    79   ar
    18    79    80    1
    19    65    64    1
    20    65    68    1
    21     7     5    1
    22     5     6    1
    23     5     2    1
    24    41    40    1
    25    62    61    2
    26     1     2    1
    27     2     3    1
    28    61    60    1
    29     3     4    2
    30     3     9   am
    31    60    63    1
    32    60    59    1
    33    55    54    2
    34     9    10    1
    35    24    22    1
    36    59    54   am
    37    54    53    1
    38    47    46    2
    39    12    11    2
    40    38    39    2
    41    38    37    1
    42    10    11    1
    43    10    13    1
    44    37    36    1
    45    11    18   am
    46    22    23    1
    47    22    19    1
    48    53    52    1
    49    53    56    1
    50    36    27   am
    51    46    45    1
    52    18    19    1
    53    52    58    1
    54    13    14    1
    55    48    49    1
    56    48    45    1
    57    51    49   am
    58    17    15   ar
    59    19    20    1
    60    49    50    2
    61    14    15    1
    62    45    44    1
    63    15    16   ar
    64    56    57    1
    65    27    26    1
    66    27    28    2
    67    26    29    1
    68    26    25    1
    69    58    57    1
    70    20    21    2
    71    30    29    1
    72    30    31    1
    73    31    32    1
    74    32    33    2
    75    33    35    1
    76    33    34    1
