@<TRIPOS>MOLECULE
tmp/5c83A00.pdb
 135 133 0 0 0
SMALL
GASTEIGER

@<TRIPOS>ATOM
      1  N        -12.1460  -18.1140  -17.5060 N.3     1  MET1       -0.1245
      2  CA       -12.5550  -18.9810  -16.3590 C.3     1  MET1        0.1570
      3  C        -12.7150  -20.4680  -16.7200 C.2     1  MET1        0.2261
      4  O        -12.4640  -21.3360  -15.8700 O.2     1  MET1       -0.2867
      5  CB       -13.8460  -18.4500  -15.7330 C.3     1  MET1        0.0387
      6  CG       -14.1520  -18.9920  -14.3440 C.3     1  MET1        0.0595
      7  SD       -15.7530  -18.4440  -13.7210 S.3     1  MET1       -0.1393
      8  CE       -16.8630  -19.6470  -14.4550 C.3     1  MET1        0.0692
      9  N         -5.0690  -27.9500   -5.5150 N.3    45  LEU45      -0.1245
     10  CA        -4.1470  -27.5050   -6.5690 C.3    45  LEU45       0.1561
     11  C         -2.7360  -27.1610   -6.0600 C.2    45  LEU45       0.2260
     12  O         -1.8140  -26.9900   -6.8640 O.2    45  LEU45      -0.2867
     13  CB        -4.7420  -26.3360   -7.3620 C.3    45  LEU45       0.0270
     14  CG        -6.0810  -26.5250   -8.0920 C.3    45  LEU45       0.0019
     15  CD1       -6.3500  -25.2660   -8.8910 C.3    45  LEU45       0.0001
     16  CD2       -6.0870  -27.7400   -9.0060 C.3    45  LEU45       0.0001
     17  N         -7.0640  -23.3470   -2.8330 N.3    50  LYS50      -0.1231
     18  CA        -7.7190  -23.5870   -4.1410 C.3    50  LYS50       0.1693
     19  C         -7.9530  -25.0750   -4.3790 C.2    50  LYS50       0.2592
     20  O         -7.0120  -25.8750   -4.3480 O.2    50  LYS50      -0.2718
     21  CB        -6.9310  -22.9730   -5.3030 C.3    50  LYS50       0.0285
     22  CG        -7.1650  -21.4740   -5.4440 C.3    50  LYS50       0.0035
     23  CD        -6.1970  -20.7500   -6.3760 C.3    50  LYS50       0.0206
     24  CE        -6.4890  -21.0280   -7.8410 C.3    50  LYS50       0.1093
     25  NZ        -5.7840  -20.0340   -8.7080 N.3    50  LYS50      -0.1314
     26  N         -9.2140  -25.4320   -4.6130 N.am   51  VAL51      -0.1966
     27  CA        -9.5840  -26.7960   -4.9990 C.3    51  VAL51       0.1727
     28  C        -10.3570  -26.8220   -6.3250 C.2    51  VAL51       0.2616
     29  O        -10.9110  -25.8040   -6.7460 O.2    51  VAL51      -0.2715
     30  CB       -10.3870  -27.5130   -3.8820 C.3    51  VAL51       0.0290
     31  CG1       -9.5340  -27.6320   -2.6190 C.3    51  VAL51       0.0023
     32  CG2      -11.7120  -26.8050   -3.5990 C.3    51  VAL51       0.0023
     33  N        -10.3850  -27.9850   -6.9700 N.am   52  LYS52      -0.1977
     34  CA       -11.2000  -28.2280   -8.1660 C.3    52  LYS52       0.1596
     35  C        -11.9510  -29.5320   -7.9990 C.2    52  LYS52       0.2287
     36  O        -11.4180  -30.4950   -7.4050 O.2    52  LYS52      -0.2864
     37  CB       -10.3310  -28.3910   -9.4150 C.3    52  LYS52       0.0298
     38  CG       -10.1660  -27.1790  -10.3070 C.3    52  LYS52       0.0038
     39  CD        -9.3730  -27.5710  -11.5480 C.3    52  LYS52       0.0206
     40  CE        -9.6890  -26.6770  -12.7370 C.3    52  LYS52       0.1093
     41  NZ        -9.1150  -25.3080  -12.5560 N.3    52  LYS52      -0.1314
     42  N        -13.7770  -24.7130   -9.8110 N.3    59  GLY59      -0.1210
     43  CA       -12.7700  -24.2540   -8.8710 C.3    59  GLY59       0.1956
     44  C        -13.3350  -23.3800   -7.7710 C.2    59  GLY59       0.2612
     45  O        -14.2380  -22.5580   -8.0060 O.2    59  GLY59      -0.2717
     46  N        -12.7980  -23.5610   -6.5660 N.am   60  LEU60      -0.1965
     47  CA       -13.1840  -22.7680   -5.4010 C.3    60  LEU60       0.1728
     48  C        -11.9770  -22.4000   -4.5620 C.2    60  LEU60       0.2617
     49  O        -10.9810  -23.1360   -4.5440 O.2    60  LEU60      -0.2715
     50  CB       -14.2220  -23.5000   -4.5430 C.3    60  LEU60       0.0311
     51  CG       -15.5820  -23.8410   -5.1600 C.3    60  LEU60       0.0022
     52  CD1      -16.3260  -24.7720   -4.2210 C.3    60  LEU60       0.0001
     53  CD2      -16.3960  -22.5900   -5.4570 C.3    60  LEU60       0.0001
     54  N        -12.0830  -21.2590   -3.8730 N.am   61  THR61      -0.1937
     55  CA       -10.9970  -20.7090   -3.0610 C.3    61  THR61       0.2028
     56  C        -11.5030  -19.9610   -1.8080 C.2    61  THR61       0.2642
     57  O        -12.7070  -19.7370   -1.6570 O.2    61  THR61      -0.2714
     58  CB       -10.0790  -19.7990   -3.9170 C.3    61  THR61       0.1808
     59  OG1       -8.8040  -19.7000   -3.2840 O.3    61  THR61      -0.2208
     60  CG2      -10.6670  -18.3850   -4.1310 C.3    61  THR61       0.0379
     61  N        -10.5760  -19.5840   -0.9260 N.am   62  ASP62      -0.1957
     62  CA       -10.8490  -18.6940    0.2210 C.3    62  ASP62       0.1840
     63  C        -11.9530  -19.2200    1.1380 C.2    62  ASP62       0.2622
     64  O        -12.9610  -18.5510    1.3870 O.2    62  ASP62      -0.2715
     65  CB       -11.1420  -17.2460   -0.2300 C.3    62  ASP62       0.1450
     66  CG        -9.9770  -16.5970   -0.9650 C.2    62  ASP62       0.3671
     67  OD1      -10.1340  -15.4380   -1.3940 O.co2  62  ASP62      -0.2456
     68  OD2       -8.9040  -17.2230   -1.1230 O.co2  62  ASP62      -0.2456
     69  N        -11.7350  -20.4350    1.6320 N.am   63  TRP63      -0.1960
     70  CA       -12.6860  -21.1430    2.4740 C.3    63  TRP63       0.1771
     71  C        -12.7510  -20.5020    3.8570 C.2    63  TRP63       0.2619
     72  O        -11.7820  -20.5610    4.6010 O.2    63  TRP63      -0.2715
     73  CB       -12.2610  -22.6070    2.5810 C.3    63  TRP63       0.0590
     74  CG       -12.4370  -23.3520    1.2890 C.ar   63  TRP63       0.0006
     75  CD1      -11.5240  -23.4970    0.2820 C.ar   63  TRP63       0.0946
     76  CD2      -13.6110  -24.0530    0.8740 C.ar   63  TRP63       0.0152
     77  NE1      -12.0600  -24.2510   -0.7430 N.ar   63  TRP63      -0.2442
     78  CE2      -13.3410  -24.6030   -0.4000 C.ar   63  TRP63       0.0810
     79  CE3      -14.8710  -24.2710    1.4590 C.ar   63  TRP63       0.0012
     80  CZ2      -14.2810  -25.3530   -1.0960 C.ar   63  TRP63       0.0191
     81  CZ3      -15.7980  -25.0120    0.7690 C.ar   63  TRP63       0.0001
     82  CH2      -15.5020  -25.5480   -0.4980 C.ar   63  TRP63       0.0015
     83  N        -13.8990  -19.8950    4.1760 N.am   64  LYS64      -0.1977
     84  CA       -14.2380  -19.4240    5.5260 C.3    64  LYS64       0.1596
     85  C        -14.6450  -20.6490    6.3600 C.2    64  LYS64       0.2287
     86  O        -15.0930  -21.6480    5.7780 O.2    64  LYS64      -0.2864
     87  CB       -15.3780  -18.4020    5.4820 C.3    64  LYS64       0.0298
     88  CG       -14.9460  -16.9740    5.1770 C.3    64  LYS64       0.0038
     89  CD       -15.1850  -16.6110    3.7200 C.3    64  LYS64       0.0206
     90  CE       -14.0130  -15.8290    3.1310 C.3    64  LYS64       0.1093
     91  NZ       -13.8690  -16.0870    1.6600 N.3    64  LYS64      -0.1314
     92  N        -18.1840  -22.1160    5.6620 N.3    67  GLU67      -0.1245
     93  CA       -18.4770  -22.5610    4.2870 C.3    67  GLU67       0.1567
     94  C        -18.2580  -24.0660    4.1360 C.2    67  GLU67       0.2260
     95  O        -17.1360  -24.5550    4.2790 O.2    67  GLU67      -0.2867
     96  CB       -17.6420  -21.7820    3.2470 C.3    67  GLU67       0.0388
     97  CG       -17.9880  -20.3020    3.1660 C.3    67  GLU67       0.1160
     98  CD       -17.0800  -19.4790    2.2550 C.2    67  GLU67       0.3649
     99  OE1      -15.8540  -19.7710    2.1160 O.co2  67  GLU67      -0.2457
    100  OE2      -17.6130  -18.5120    1.6660 O.co2  67  GLU67      -0.2457
    101  N        -21.0870  -25.2700   -1.1000 N.3    72  GLN72      -0.1245
    102  CA       -20.3410  -24.4470   -2.0450 C.3    72  GLN72       0.1566
    103  C        -20.3110  -25.0670   -3.4490 C.2    72  GLN72       0.2260
    104  O        -20.4130  -24.3520   -4.4650 O.2    72  GLN72      -0.2867
    105  CB       -18.9300  -24.1450   -1.5230 C.3    72  GLN72       0.0367
    106  CG       -18.8950  -23.2840   -0.2560 C.3    72  GLN72       0.0905
    107  CD       -19.5210  -21.9090   -0.4240 C.2    72  GLN72       0.2608
    108  OE1      -19.0990  -21.1140   -1.2710 O.2    72  GLN72      -0.2717
    109  NE2      -20.5350  -21.6230    0.3870 N.am   72  GLN72      -0.0878
    110  N        -22.0080  -22.7840   -6.6150 N.3    76  TRP76      -0.1227
    111  CA       -21.2450  -22.3200   -7.7390 C.3    76  TRP76       0.1737
    112  C        -21.2820  -23.2650   -8.9400 C.2    76  TRP76       0.2595
    113  O        -21.1060  -22.8170  -10.0620 O.2    76  TRP76      -0.2718
    114  CB       -19.7960  -22.0290   -7.2800 C.3    76  TRP76       0.0564
    115  CG       -19.7730  -20.9030   -6.2760 C.ar   76  TRP76       0.0003
    116  CD1      -19.6530  -21.0170   -4.9150 C.ar   76  TRP76       0.0946
    117  CD2      -19.8760  -19.4950   -6.5560 C.ar   76  TRP76       0.0152
    118  NE1      -19.6750  -19.7690   -4.3360 N.ar   76  TRP76      -0.2442
    119  CE2      -19.8100  -18.8180   -5.3110 C.ar   76  TRP76       0.0810
    120  CE3      -20.0160  -18.7470   -7.7330 C.ar   76  TRP76       0.0012
    121  CZ2      -19.8790  -17.4140   -5.2020 C.ar   76  TRP76       0.0191
    122  CZ3      -20.0870  -17.3410   -7.6340 C.ar   76  TRP76       0.0001
    123  CH2      -20.0170  -16.6950   -6.3700 C.ar   76  TRP76       0.0015
    124  N        -21.5090  -24.5650   -8.6980 N.am   77  TYR77      -0.1976
    125  CA       -21.5310  -25.5770   -9.7730 C.3    77  TYR77       0.1639
    126  C        -22.7960  -26.4390   -9.8000 C.2    77  TYR77       0.2290
    127  O        -22.7060  -27.6610   -9.7150 O.2    77  TYR77      -0.2864
    128  CB       -20.2000  -26.3770   -9.8140 C.3    77  TYR77       0.0560
    129  CG       -19.0610  -25.3850   -9.8440 C.ar   77  TYR77      -0.0198
    130  CD1      -18.2900  -25.1320   -8.6930 C.ar   77  TYR77      -0.0009
    131  CD2      -18.7500  -24.6850  -11.0220 C.ar   77  TYR77      -0.0009
    132  CE1      -17.2430  -24.2110   -8.7280 C.ar   77  TYR77       0.0417
    133  CE2      -17.7070  -23.7630  -11.0680 C.ar   77  TYR77       0.0417
    134  CZ       -16.9570  -23.5300   -9.9180 C.ar   77  TYR77       0.1957
    135  OH       -15.9250  -22.6200   -9.9610 O.3    77  TYR77      -0.2866
@<TRIPOS>BOND
     1     1     2    1
     2     3     2    1
     3     3     4    2
     4     2     5    1
     5     5     6    1
     6     8     7    1
     7     6     7    1
     8    40    41    1
     9    40    39    1
    10    39    38    1
    11   133   131   ar
    12   133   134   ar
    13   131   129   ar
    14    38    37    1
    15   113   112    2
    16   135   134    1
    17   134   132   ar
    18   129   128    1
    19   129   130   ar
    20   128   125    1
    21    42    43    1
    22   126   125    1
    23   126   127    2
    24   125   124    1
    25    37    34    1
    26    16    14    1
    27   112   124   am
    28   112   111    1
    29    15    14    1
    30    43    44    1
    31   132   130   ar
    32    25    24    1
    33    34    35    1
    34    34    33    1
    35    14    13    1
    36    45    44    2
    37    35    36    2
    38    24    23    1
    39    44    46   am
    40   111   114    1
    41   111   110    1
    42   120   122   ar
    43   120   117   ar
    44   122   123   ar
    45    13    10    1
    46   114   115    1
    47    33    28   am
    48    12    11    2
    49    29    28    2
    50    10    11    1
    51    10     9    1
    52    46    47    1
    53   117   115   ar
    54   117   119   ar
    55    23    22    1
    56   123   121   ar
    57    28    27    1
    58   115   116   ar
    59    53    51    1
    60    22    21    1
    61    47    48    1
    62    47    50    1
    63   119   121   ar
    64   119   118   ar
    65    21    18    1
    66    51    50    1
    67    51    52    1
    68    27    26    1
    69    27    30    1
    70   116   118   ar
    71    26    19   am
    72    48    49    2
    73    48    54   am
    74   104   103    2
    75    19    20    2
    76    19    18    1
    77    18    17    1
    78    60    58    1
    79    58    59    1
    80    58    55    1
    81    30    32    1
    82    30    31    1
    83    54    55    1
    84   103   102    1
    85    55    56    1
    86   102   105    1
    87   102   101    1
    88    56    57    2
    89    56    61   am
    90   105   106    1
    91    67    66   ar
    92   108   107    2
    93    68    66   ar
    94    80    82   ar
    95    80    78   ar
    96    66    65    1
    97    61    62    1
    98    77    78   ar
    99    77    75   ar
   100    82    81   ar
   101   107   106    1
   102   107   109   am
   103    78    76   ar
   104    65    62    1
   105    62    63    1
   106    75    74   ar
   107    81    79   ar
   108    76    74   ar
   109    76    79   ar
   110    63    64    2
   111    63    69   am
   112    74    73    1
   113    69    70    1
   114    91    90    1
   115   100    98   ar
   116    99    98   ar
   117    98    97    1
   118    70    73    1
   119    70    71    1
   120    90    89    1
   121    97    96    1
   122    96    93    1
   123    89    88    1
   124    71    83   am
   125    71    72    2
   126    94    95    2
   127    94    93    1
   128    83    84    1
   129    93    92    1
   130    88    87    1
   131    87    84    1
   132    84    85    1
   133    86    85    2
