@<TRIPOS>MOLECULE
tmp/5c84A00.pdb
 111 110 0 0 0
SMALL
GASTEIGER

@<TRIPOS>ATOM
      1  N        -13.5680  -18.3340  -17.5920 N.3     1  MET1       -0.1245
      2  CA       -12.7090  -19.0680  -16.6160 C.3     1  MET1        0.1570
      3  C        -12.8170  -20.5870  -16.8250 C.2     1  MET1        0.2261
      4  O        -12.6390  -21.3770  -15.8800 O.2     1  MET1       -0.2867
      5  CB       -13.0620  -18.6430  -15.1750 C.3     1  MET1        0.0387
      6  CG       -14.1600  -19.4400  -14.4660 C.3     1  MET1        0.0595
      7  SD       -15.5900  -18.5340  -13.8390 S.3     1  MET1       -0.1393
      8  CE       -14.8820  -16.9510  -13.3290 C.3     1  MET1        0.0692
      9  N         -6.9500  -23.4890   -2.8510 N.3    50  LYS50      -0.1245
     10  CA        -7.6950  -23.7410   -4.0970 C.3    50  LYS50       0.1561
     11  C         -7.9170  -25.2330   -4.3100 C.2    50  LYS50       0.2260
     12  O         -6.9740  -26.0240   -4.2940 O.2    50  LYS50      -0.2867
     13  CB        -7.0240  -23.1340   -5.3310 C.3    50  LYS50       0.0271
     14  CG        -7.9080  -23.2370   -6.5650 C.3    50  LYS50       0.0035
     15  CD        -7.2120  -22.9100   -7.8620 C.3    50  LYS50       0.0206
     16  CE        -7.2230  -21.4320   -8.1880 C.3    50  LYS50       0.1093
     17  NZ        -7.3530  -21.2290   -9.6730 N.3    50  LYS50      -0.1314
     18  N        -13.6950  -24.7830   -9.7180 N.3    59  GLY59      -0.1210
     19  CA       -12.7270  -24.3230   -8.7390 C.3    59  GLY59       0.1956
     20  C        -13.3130  -23.4170   -7.6710 C.2    59  GLY59       0.2612
     21  O        -14.2310  -22.6350   -7.9410 O.2    59  GLY59      -0.2717
     22  N        -12.7640  -23.5400   -6.4600 N.am   60  LEU60      -0.1965
     23  CA       -13.1510  -22.7670   -5.2780 C.3    60  LEU60       0.1728
     24  C        -11.9290  -22.4280   -4.4220 C.2    60  LEU60       0.2617
     25  O        -11.0430  -23.2700   -4.2540 O.2    60  LEU60      -0.2715
     26  CB       -14.1470  -23.5720   -4.4560 C.3    60  LEU60       0.0311
     27  CG       -15.6830  -23.4740   -4.5730 C.3    60  LEU60       0.0022
     28  CD1      -16.2960  -22.5260   -5.6070 C.3    60  LEU60       0.0001
     29  CD2      -16.2480  -24.8730   -4.6380 C.3    60  LEU60       0.0001
     30  N        -11.8970  -21.1980   -3.8920 N.am   61  THR61      -0.1937
     31  CA       -10.7970  -20.6890   -3.0610 C.3    61  THR61       0.2028
     32  C        -11.3520  -19.9420   -1.8430 C.2    61  THR61       0.2642
     33  O        -12.5690  -19.7420   -1.7240 O.2    61  THR61      -0.2714
     34  CB        -9.8640  -19.6990   -3.8180 C.3    61  THR61       0.1808
     35  OG1      -10.5710  -18.4860   -4.1200 O.3    61  THR61      -0.2208
     36  CG2       -9.3320  -20.2750   -5.0960 C.3    61  THR61       0.0379
     37  N        -10.4430  -19.5370   -0.9490 N.am   62  ASP62      -0.1957
     38  CA       -10.7220  -18.6280    0.1790 C.3    62  ASP62       0.1840
     39  C        -11.8470  -19.1430    1.0620 C.2    62  ASP62       0.2622
     40  O        -12.8570  -18.4750    1.2660 O.2    62  ASP62      -0.2715
     41  CB       -11.0010  -17.1920   -0.2980 C.3    62  ASP62       0.1450
     42  CG        -9.8980  -16.6370   -1.1810 C.2    62  ASP62       0.3671
     43  OD1      -10.1320  -16.4730   -2.3920 O.co2  62  ASP62      -0.2456
     44  OD2       -8.7940  -16.3620   -0.6770 O.co2  62  ASP62      -0.2456
     45  N        -11.6390  -20.3520    1.5760 N.am   63  TRP63      -0.1960
     46  CA       -12.5950  -21.0530    2.4250 C.3    63  TRP63       0.1771
     47  C        -12.6880  -20.4040    3.8140 C.2    63  TRP63       0.2619
     48  O        -11.7030  -20.3640    4.5410 O.2    63  TRP63      -0.2715
     49  CB       -12.1720  -22.5210    2.5350 C.3    63  TRP63       0.0590
     50  CG       -12.3620  -23.2660    1.2410 C.ar   63  TRP63       0.0006
     51  CD1      -11.4680  -23.3730    0.2070 C.ar   63  TRP63       0.0946
     52  CD2      -13.5190  -24.0070    0.8460 C.ar   63  TRP63       0.0152
     53  NE1      -11.9990  -24.1340   -0.8060 N.ar   63  TRP63      -0.2442
     54  CE2      -13.2590  -24.5370   -0.4370 C.ar   63  TRP63       0.0810
     55  CE3      -14.7560  -24.2770    1.4570 C.ar   63  TRP63       0.0012
     56  CZ2      -14.1920  -25.3220   -1.1240 C.ar   63  TRP63       0.0191
     57  CZ3      -15.6800  -25.0560    0.7730 C.ar   63  TRP63       0.0001
     58  CH2      -15.3920  -25.5700   -0.5050 C.ar   63  TRP63       0.0015
     59  N        -13.8710  -19.9000    4.1660 N.am   64  LYS64      -0.1977
     60  CA       -14.1680  -19.4240    5.5200 C.3    64  LYS64       0.1596
     61  C        -14.5100  -20.6510    6.3870 C.2    64  LYS64       0.2287
     62  O        -14.9040  -21.6910    5.8330 O.2    64  LYS64      -0.2864
     63  CB       -15.3430  -18.4430    5.5130 C.3    64  LYS64       0.0298
     64  CG       -15.0200  -16.9970    5.1620 C.3    64  LYS64       0.0038
     65  CD       -15.2750  -16.7450    3.6920 C.3    64  LYS64       0.0206
     66  CE       -16.2420  -15.5990    3.4290 C.3    64  LYS64       0.1093
     67  NZ       -16.6830  -15.6920    1.9980 N.3    64  LYS64      -0.1314
     68  N        -18.0160  -22.1650    5.6050 N.3    67  GLU67      -0.1245
     69  CA       -18.3350  -22.5800    4.2390 C.3    67  GLU67       0.1567
     70  C        -18.1430  -24.0810    4.0760 C.2    67  GLU67       0.2260
     71  O        -17.0230  -24.5830    4.1450 O.2    67  GLU67      -0.2867
     72  CB       -17.5270  -21.7820    3.2050 C.3    67  GLU67       0.0388
     73  CG       -17.9060  -20.3070    3.1500 C.3    67  GLU67       0.1160
     74  CD       -17.0120  -19.4730    2.2420 C.2    67  GLU67       0.3649
     75  OE1      -15.7770  -19.7320    2.1430 O.co2  67  GLU67      -0.2457
     76  OE2      -17.5580  -18.5390    1.6170 O.co2  67  GLU67      -0.2457
     77  N        -21.0360  -25.2920   -1.0450 N.3    72  GLN72      -0.1245
     78  CA       -20.3040  -24.4460   -1.9820 C.3    72  GLN72       0.1566
     79  C        -20.2720  -25.0240   -3.3990 C.2    72  GLN72       0.2260
     80  O        -20.3430  -24.2860   -4.3950 O.2    72  GLN72      -0.2867
     81  CB       -18.8950  -24.1490   -1.4560 C.3    72  GLN72       0.0367
     82  CG       -18.8690  -23.3020   -0.1880 C.3    72  GLN72       0.0905
     83  CD       -19.4670  -21.9190   -0.3810 C.2    72  GLN72       0.2608
     84  OE1      -19.0490  -21.1660   -1.2600 O.2    72  GLN72      -0.2717
     85  NE2      -20.4510  -21.5810    0.4450 N.am   72  GLN72      -0.0878
     86  N        -21.9910  -22.8200   -6.4740 N.3    76  TRP76      -0.1227
     87  CA       -21.2380  -22.3270   -7.6060 C.3    76  TRP76       0.1737
     88  C        -21.2550  -23.2640   -8.8260 C.2    76  TRP76       0.2595
     89  O        -21.1050  -22.7900   -9.9630 O.2    76  TRP76      -0.2718
     90  CB       -19.7830  -22.0280   -7.1590 C.3    76  TRP76       0.0564
     91  CG       -19.7390  -20.9360   -6.1800 C.ar   76  TRP76       0.0003
     92  CD1      -19.5900  -21.0570   -4.8240 C.ar   76  TRP76       0.0946
     93  CD2      -19.8470  -19.5300   -6.4500 C.ar   76  TRP76       0.0152
     94  NE1      -19.5970  -19.8190   -4.2430 N.ar   76  TRP76      -0.2442
     95  CE2      -19.7530  -18.8620   -5.2060 C.ar   76  TRP76       0.0810
     96  CE3      -20.0140  -18.7720   -7.6240 C.ar   76  TRP76       0.0012
     97  CZ2      -19.8180  -17.4630   -5.0830 C.ar   76  TRP76       0.0191
     98  CZ3      -20.0790  -17.3730   -7.5110 C.ar   76  TRP76       0.0001
     99  CH2      -19.9810  -16.7360   -6.2440 C.ar   76  TRP76       0.0015
    100  N        -21.4360  -24.5770   -8.5960 N.am   77  TYR77      -0.1976
    101  CA       -21.4760  -25.5690   -9.7090 C.3    77  TYR77       0.1639
    102  C        -22.7450  -26.4300   -9.7290 C.2    77  TYR77       0.2290
    103  O        -22.6470  -27.6690   -9.6670 O.2    77  TYR77      -0.2864
    104  CB       -20.1620  -26.3730   -9.7790 C.3    77  TYR77       0.0560
    105  CG       -19.0200  -25.3930   -9.7640 C.ar   77  TYR77      -0.0198
    106  CD1      -18.2580  -25.1910   -8.6080 C.ar   77  TYR77      -0.0009
    107  CD2      -18.7010  -24.6500  -10.9240 C.ar   77  TYR77      -0.0009
    108  CE1      -17.2050  -24.2760   -8.6060 C.ar   77  TYR77       0.0417
    109  CE2      -17.6600  -23.7390  -10.9390 C.ar   77  TYR77       0.0417
    110  CZ       -16.9150  -23.5540   -9.7800 C.ar   77  TYR77       0.1957
    111  OH       -15.8850  -22.6510   -9.8010 O.3    77  TYR77      -0.2866
@<TRIPOS>BOND
     1     1     2    1
     2     3     2    1
     3     3     4    2
     4     2     5    1
     5     5     6    1
     6     6     7    1
     7     7     8    1
     8   109   107   ar
     9   109   110   ar
    10   107   105   ar
    11    89    88    2
    12   111   110    1
    13   110   108   ar
    14   104   105    1
    15   104   101    1
    16   105   106   ar
    17   102   101    1
    18   102   103    2
    19    18    19    1
    20   101   100    1
    21    17    16    1
    22    88   100   am
    23    88    87    1
    24    19    20    1
    25   106   108   ar
    26    16    15    1
    27    21    20    2
    28    15    14    1
    29    20    22   am
    30    96    98   ar
    31    96    93   ar
    32    87    90    1
    33    87    86    1
    34    98    99   ar
    35    90    91    1
    36    14    13    1
    37    22    23    1
    38    93    91   ar
    39    93    95   ar
    40    99    97   ar
    41    91    92   ar
    42    28    27    1
    43    13    10    1
    44    23    26    1
    45    23    24    1
    46    95    97   ar
    47    95    94   ar
    48    36    34    1
    49    92    94   ar
    50    29    27    1
    51    27    26    1
    52    24    25    2
    53    24    30   am
    54    80    79    2
    55    11    12    2
    56    11    10    1
    57    35    34    1
    58    10     9    1
    59    30    31    1
    60    34    31    1
    61    79    78    1
    62    31    32    1
    63    43    42   ar
    64    78    81    1
    65    78    77    1
    66    32    33    2
    67    32    37   am
    68    81    82    1
    69    84    83    2
    70    42    44   ar
    71    42    41    1
    72    56    58   ar
    73    56    54   ar
    74    37    38    1
    75    53    54   ar
    76    53    51   ar
    77    58    57   ar
    78    54    52   ar
    79    83    82    1
    80    83    85   am
    81    41    38    1
    82    38    39    1
    83    51    50   ar
    84    57    55   ar
    85    52    50   ar
    86    52    55   ar
    87    39    40    2
    88    39    45   am
    89    50    49    1
    90    45    46    1
    91    76    74   ar
    92    67    66    1
    93    75    74   ar
    94    74    73    1
    95    46    49    1
    96    46    47    1
    97    73    72    1
    98    72    69    1
    99    66    65    1
   100    65    64    1
   101    47    59   am
   102    47    48    2
   103    70    71    2
   104    70    69    1
   105    59    60    1
   106    69    68    1
   107    64    63    1
   108    63    60    1
   109    60    61    1
   110    62    61    2
