@<TRIPOS>MOLECULE
tmp/5c87A00.pdb
 122 117 0 0 0
SMALL
GASTEIGER

@<TRIPOS>ATOM
      1  N         15.9480  -12.8260    5.2150 N.3    25  ILE25      -0.1231
      2  CA        14.5050  -12.6680    5.1570 C.3    25  ILE25       0.1692
      3  C         13.8210  -14.0160    4.9830 C.2    25  ILE25       0.2592
      4  O         12.6160  -14.1260    5.1690 O.2    25  ILE25      -0.2718
      5  CB        14.0720  -11.6950    4.0550 C.3    25  ILE25       0.0266
      6  CG1       14.2730  -12.2890    2.6790 C.3    25  ILE25       0.0019
      7  CG2       14.8280  -10.3730    4.1810 C.3    25  ILE25       0.0020
      8  CD1       13.7770  -11.3820    1.6010 C.3    25  ILE25       0.0001
      9  N         14.5990  -15.0480    4.6670 N.am   26  PHE26      -0.1976
     10  CA        14.0360  -16.3900    4.5100 C.3    26  PHE26       0.1639
     11  C         14.4670  -17.3570    5.6110 C.2    26  PHE26       0.2290
     12  O         14.2820  -18.5600    5.4820 O.2    26  PHE26      -0.2864
     13  CB        14.4360  -16.9750    3.1630 C.3    26  PHE26       0.0560
     14  CG        14.0910  -16.1070    2.0000 C.ar   26  PHE26      -0.0200
     15  CD1       12.7780  -15.9290    1.6160 C.ar   26  PHE26      -0.0042
     16  CD2       15.0850  -15.4550    1.2930 C.ar   26  PHE26      -0.0042
     17  CE1       12.4610  -15.1270    0.5490 C.ar   26  PHE26      -0.0003
     18  CE2       14.7750  -14.6450    0.2230 C.ar   26  PHE26      -0.0003
     19  CZ        13.4610  -14.4840   -0.1570 C.ar   26  PHE26      -0.0000
     20  N         13.4100  -17.6920    8.7390 N.3    28  GLU28      -0.1245
     21  CA        12.3530  -18.1760    9.6190 C.3    28  GLU28       0.1567
     22  C         11.0110  -18.0940    8.9020 C.2    28  GLU28       0.2260
     23  O         10.8970  -17.4180    7.8840 O.2    28  GLU28      -0.2867
     24  CB        12.3480  -17.3650   10.9220 C.3    28  GLU28       0.0388
     25  CG        13.5820  -17.6120   11.7760 C.3    28  GLU28       0.1160
     26  CD        13.7430  -16.6110   12.9030 C.2    28  GLU28       0.3649
     27  OE1       12.9590  -15.6400   12.9670 O.co2  28  GLU28      -0.2457
     28  OE2       14.6630  -16.7980   13.7260 O.co2  28  GLU28      -0.2457
     29  N          7.4690  -17.0000    7.5940 N.3    30  VAL30      -0.1231
     30  CA         6.7700  -15.7310    7.4780 C.3    30  VAL30       0.1678
     31  C          5.8380  -15.5930    8.6660 C.2    30  VAL30       0.2434
     32  O          4.9670  -16.4380    8.8600 O.2    30  VAL30      -0.2733
     33  CB         5.9700  -15.6430    6.1700 C.3    30  VAL30       0.0265
     34  CG1        5.0880  -14.4020    6.1710 C.3    30  VAL30       0.0020
     35  CG2        6.9080  -15.6460    4.9610 C.3    30  VAL30       0.0020
     36  N          6.0330  -14.5460    9.4840 N.am   31  PRO31      -0.2729
     37  CA         5.2170  -14.3630   10.6890 C.3    31  PRO31       0.1401
     38  C          3.7540  -14.1380   10.3460 C.2    31  PRO31       0.2269
     39  O          3.3930  -13.0510    9.8950 O.2    31  PRO31      -0.2865
     40  CB         5.8190  -13.1130   11.3450 C.3    31  PRO31       0.0296
     41  CG         7.1900  -13.0000   10.7730 C.3    31  PRO31       0.0237
     42  CD         7.0870  -13.5230    9.3750 C.3    31  PRO31       0.0939
     43  N          1.7530  -10.9560    8.9150 N.3    35  VAL35      -0.1245
     44  CA         1.2250  -11.0960    7.5670 C.3    35  VAL35       0.1561
     45  C         -0.0060  -11.9950    7.6310 C.2    35  VAL35       0.2260
     46  O          0.0490  -13.1680    7.2580 O.2    35  VAL35      -0.2867
     47  CB         2.2770  -11.6730    6.6070 C.3    35  VAL35       0.0252
     48  CG1        1.8080  -11.5640    5.1720 C.3    35  VAL35       0.0019
     49  CG2        3.5980  -10.9390    6.7780 C.3    35  VAL35       0.0019
     50  N         -1.3960  -14.2730    4.6880 N.3    38  TYR38      -0.1241
     51  CA        -0.3780  -15.0490    3.9870 C.3    38  TYR38       0.1605
     52  C         -0.8750  -16.4340    3.5790 C.2    38  TYR38       0.2264
     53  O         -0.6270  -16.8810    2.4620 O.2    38  TYR38      -0.2867
     54  CB         0.8780  -15.1810    4.8480 C.3    38  TYR38       0.0534
     55  CG         2.0750  -15.7030    4.0860 C.ar   38  TYR38      -0.0201
     56  CD1        2.7120  -14.9110    3.1410 C.ar   38  TYR38      -0.0009
     57  CD2        2.5730  -16.9800    4.3120 C.ar   38  TYR38      -0.0009
     58  CE1        3.8000  -15.3760    2.4380 C.ar   38  TYR38       0.0417
     59  CE2        3.6700  -17.4520    3.6130 C.ar   38  TYR38       0.0417
     60  CZ         4.2780  -16.6470    2.6770 C.ar   38  TYR38       0.1957
     61  OH         5.3740  -17.1060    1.9750 O.3    38  TYR38      -0.2866
     62  N          7.3540  -22.0240    3.3890 N.3    46  MET46      -0.1245
     63  CA         8.6370  -22.6670    3.6080 C.3    46  MET46       0.1570
     64  C          9.6950  -21.6170    3.9510 C.2    46  MET46       0.2261
     65  O          9.5740  -20.4440    3.5800 O.2    46  MET46      -0.2867
     66  CB         9.0430  -23.4940    2.3850 C.3    46  MET46       0.0387
     67  CG        10.2620  -24.3880    2.5810 C.3    46  MET46       0.0595
     68  SD        10.1650  -25.4960    4.0070 S.3    46  MET46      -0.1393
     69  CE         8.6540  -26.3950    3.6600 C.3    46  MET46       0.0692
     70  N         10.5190  -21.6640   -1.0960 N.3    73  ILE73      -0.1245
     71  CA        10.9600  -20.4160   -0.4760 C.3    73  ILE73       0.1561
     72  C         10.9210  -19.2990   -1.5110 C.2    73  ILE73       0.2260
     73  O         10.3380  -18.2320   -1.2910 O.2    73  ILE73      -0.2867
     74  CB        12.3610  -20.5660    0.1210 C.3    73  ILE73       0.0252
     75  CG1       12.3240  -21.5660    1.2760 C.3    73  ILE73       0.0019
     76  CG2       12.8430  -19.2470    0.6650 C.3    73  ILE73       0.0019
     77  CD1       13.6820  -21.8080    1.9170 C.3    73  ILE73       0.0001
     78  N          7.0920  -18.8910   -3.2690 N.3    76  ASN76      -0.1225
     79  CA         6.0940  -18.2870   -2.3710 C.3    76  ASN76       0.1785
     80  C          6.2970  -16.7840   -2.3250 C.2    76  ASN76       0.2597
     81  O          5.3390  -16.0210   -2.3150 O.2    76  ASN76      -0.2718
     82  CB         6.1820  -18.8350   -0.9430 C.3    76  ASN76       0.1169
     83  CG         5.7180  -20.2600   -0.8200 C.2    76  ASN76       0.2627
     84  OD1        5.0460  -20.7870   -1.6940 O.2    76  ASN76      -0.2716
     85  ND2        6.0560  -20.8890    0.3040 N.am   76  ASN76      -0.0877
     86  N          7.5590  -16.3810   -2.2550 N.am   77  CYS77      -0.1970
     87  CA         7.9170  -14.9780   -2.1280 C.3    77  CYS77       0.1712
     88  C          7.6040  -14.2050   -3.4140 C.2    77  CYS77       0.2296
     89  O          7.0850  -13.0730   -3.3750 O.2    77  CYS77      -0.2864
     90  CB         9.3940  -14.8650   -1.7640 C.3    77  CYS77       0.0983
     91  SG         9.9050  -13.2190   -1.2880 S.3    77  CYS77      -0.0798
     92  N          3.6750  -13.9100   -3.4440 N.3    80  TYR80      -0.1227
     93  CA         3.0170  -13.0460   -2.4750 C.3    80  TYR80       0.1736
     94  C          3.3090  -11.5630   -2.6780 C.2    80  TYR80       0.2595
     95  O          2.4320  -10.7220   -2.4790 O.2    80  TYR80      -0.2718
     96  CB         3.3980  -13.4410   -1.0450 C.3    80  TYR80       0.0548
     97  CG         2.6040  -12.6540   -0.0410 C.ar   80  TYR80      -0.0200
     98  CD1        1.2990  -13.0120    0.2690 C.ar   80  TYR80      -0.0009
     99  CD2        3.1340  -11.5230    0.5630 C.ar   80  TYR80      -0.0009
    100  CE1        0.5520  -12.2750    1.1710 C.ar   80  TYR80       0.0417
    101  CE2        2.3930  -10.7810    1.4680 C.ar   80  TYR80       0.0417
    102  CZ         1.1070  -11.1620    1.7660 C.ar   80  TYR80       0.1957
    103  OH         0.3790  -10.4180    2.6650 O.3    80  TYR80      -0.2866
    104  N          4.5370  -11.2480   -3.0870 N.am   81  ASN81      -0.1974
    105  CA         5.0110   -9.8640   -3.1330 C.3    81  ASN81       0.1688
    106  C          4.9930   -9.2510   -4.5200 C.2    81  ASN81       0.2292
    107  O          5.2510   -9.9410   -5.5040 O.2    81  ASN81      -0.2864
    108  CB         6.4280   -9.8000   -2.5700 C.3    81  ASN81       0.1181
    109  CG         6.4830  -10.2290   -1.1200 C.2    81  ASN81       0.2629
    110  OD1        6.1160   -9.4630   -0.2300 O.2    81  ASN81      -0.2716
    111  ND2        6.9180  -11.4600   -0.8790 N.am   81  ASN81      -0.0877
    112  N         11.4520   -7.6160   -1.3130 N.3    87  PHE87      -0.1241
    113  CA        11.2360   -9.0440   -1.1210 C.3    87  PHE87       0.1605
    114  C         11.2080   -9.7970   -2.4480 C.2    87  PHE87       0.2264
    115  O         11.8120  -10.8660   -2.5830 O.2    87  PHE87      -0.2867
    116  CB         9.9310   -9.3040   -0.3690 C.3    87  PHE87       0.0534
    117  CG         9.9670   -8.8970    1.0680 C.ar   87  PHE87      -0.0203
    118  CD1       11.1350   -8.9990    1.8020 C.ar   87  PHE87      -0.0042
    119  CD2        8.8350   -8.3960    1.6870 C.ar   87  PHE87      -0.0042
    120  CE1       11.1700   -8.6270    3.1320 C.ar   87  PHE87      -0.0003
    121  CE2        8.8620   -8.0170    3.0150 C.ar   87  PHE87      -0.0003
    122  CZ        10.0320   -8.1330    3.7400 C.ar   87  PHE87      -0.0000
@<TRIPOS>BOND
     1   107   106    2
     2   106   105    1
     3    92    93    1
     4    88    89    2
     5    88    87    1
     6    78    79    1
     7   105   104    1
     8   105   108    1
     9   104    94   am
    10    94    95    2
    11    94    93    1
    12   115   114    2
    13   108   109    1
    14    93    96    1
    15   114   113    1
    16    79    80    1
    17    79    82    1
    18    80    81    2
    19    80    86   am
    20    86    87    1
    21    87    90    1
    22    90    91    1
    23    84    83    2
    24    72    73    2
    25    72    71    1
    26   112   113    1
    27   113   116    1
    28   109   111   am
    29   109   110    2
    30    70    71    1
    31    96    97    1
    32    82    83    1
    33    83    85   am
    34    71    74    1
    35   116   117    1
    36    19    18   ar
    37    19    17   ar
    38    97    98   ar
    39    97    99   ar
    40    74    76    1
    41    74    75    1
    42    18    16   ar
    43    98   100   ar
    44    17    15   ar
    45    99   101   ar
    46   117   119   ar
    47   117   118   ar
    48   100   102   ar
    49    75    77    1
    50    16    14   ar
    51   101   102   ar
    52     8     6    1
    53    15    14   ar
    54   119   121   ar
    55   102   103    1
    56   118   120   ar
    57    61    60    1
    58    14    13    1
    59    66    67    1
    60    66    63    1
    61    58    60   ar
    62    58    56   ar
    63    53    52    2
    64    67    68    1
    65    60    59   ar
    66     6     5    1
    67   121   122   ar
    68   120   122   ar
    69    56    55   ar
    70    13    10    1
    71    62    63    1
    72    52    51    1
    73    65    64    2
    74    63    64    1
    75    59    57   ar
    76    69    68    1
    77    51    50    1
    78    51    54    1
    79     5     7    1
    80     5     2    1
    81    55    57   ar
    82    55    54    1
    83    10     9    1
    84    10    11    1
    85     9     3   am
    86    35    33    1
    87     3     2    1
    88     3     4    2
    89     2     1    1
    90    48    47    1
    91    12    11    2
    92    33    34    1
    93    33    30    1
    94    47    49    1
    95    47    44    1
    96    46    45    2
    97    30    29    1
    98    30    31    1
    99    44    45    1
   100    44    43    1
   101    23    22    2
   102    31    32    2
   103    31    36   am
   104    20    21    1
   105    22    21    1
   106    42    36    1
   107    42    41    1
   108    36    37    1
   109    21    24    1
   110    39    38    2
   111    38    37    1
   112    37    40    1
   113    41    40    1
   114    24    25    1
   115    25    26    1
   116    26    27   ar
   117    26    28   ar
