@<TRIPOS>MOLECULE
tmp/5c88A00.pdb
 189 183 0 0 0
SMALL
GASTEIGER

@<TRIPOS>ATOM
      1  N        -42.8960 -103.8570  -33.0190 N.3    22  THR22      -0.1203
      2  CA       -42.8810 -102.8640  -31.9490 C.3    22  THR22       0.1994
      3  C        -42.8540 -101.4100  -32.4350 C.2    22  THR22       0.2617
      4  O        -43.4670 -100.5330  -31.8170 O.2    22  THR22      -0.2717
      5  CB       -41.6730 -103.1210  -31.0060 C.3    22  THR22       0.1784
      6  OG1      -41.9300 -104.2740  -30.1930 O.3    22  THR22      -0.2211
      7  CG2      -41.4270 -101.9430  -30.0960 C.3    22  THR22       0.0376
      8  N        -42.1900 -101.1790  -33.5660 N.am   23  LEU23      -0.1979
      9  CA       -41.7360  -99.8510  -33.9720 C.3    23  LEU23       0.1596
     10  C        -42.1250  -99.5050  -35.4070 C.2    23  LEU23       0.2287
     11  O        -42.3300 -100.3980  -36.2110 O.2    23  LEU23      -0.2864
     12  CB       -40.2140  -99.7700  -33.8280 C.3    23  LEU23       0.0297
     13  CG       -39.6100  -99.7620  -32.4290 C.3    23  LEU23       0.0022
     14  CD1      -38.1670 -100.2400  -32.4890 C.3    23  LEU23       0.0001
     15  CD2      -39.6930  -98.3670  -31.8200 C.3    23  LEU23       0.0001
     16  N        -40.1580  -97.7870  -37.4140 N.3    25  GLU25      -0.1245
     17  CA       -38.9000  -97.5830  -38.1180 C.3    25  GLU25       0.1567
     18  C        -38.2650  -98.9310  -38.4150 C.2    25  GLU25       0.2260
     19  O        -37.6240  -99.5170  -37.5480 O.2    25  GLU25      -0.2867
     20  CB       -37.9780  -96.7100  -37.2720 C.3    25  GLU25       0.0388
     21  CG       -38.7670  -95.8070  -36.3340 C.3    25  GLU25       0.1160
     22  CD       -37.8940  -95.0170  -35.3940 C.2    25  GLU25       0.3649
     23  OE1      -37.0520  -94.2370  -35.8880 O.co2  25  GLU25      -0.2457
     24  OE2      -38.0570  -95.1710  -34.1630 O.co2  25  GLU25      -0.2457
     25  N        -31.7580  -97.7800  -31.7920 N.3    81  SER81      -0.1202
     26  CA       -32.9680  -98.5880  -31.7290 C.3    81  SER81       0.2020
     27  C        -32.9830  -99.4560  -30.4820 C.2    81  SER81       0.2619
     28  O        -31.9520 -100.0120  -30.0980 O.2    81  SER81      -0.2717
     29  CB       -33.0720  -99.4710  -32.9800 C.3    81  SER81       0.2103
     30  OG       -34.3180 -100.1140  -33.0410 O.3    81  SER81      -0.2182
     31  N        -34.1450  -99.5680  -29.8500 N.am   82  ILE82      -0.1965
     32  CA       -34.2810 -100.4330  -28.6880 C.3    82  ILE82       0.1727
     33  C        -35.7390 -100.8250  -28.4990 C.2    82  ILE82       0.2616
     34  O        -36.6100  -99.9870  -28.4420 O.2    82  ILE82      -0.2715
     35  CB       -33.7400  -99.7770  -27.3880 C.3    82  ILE82       0.0290
     36  CG1      -34.1180 -100.6210  -26.1750 C.3    82  ILE82       0.0022
     37  CG2      -34.2760  -98.3670  -27.1900 C.3    82  ILE82       0.0023
     38  CD1      -33.6630 -100.0220  -24.8790 C.3    82  ILE82       0.0001
     39  N        -35.9980 -102.1200  -28.4060 N.am   83  ALA83      -0.1963
     40  CA       -37.3630 -102.5790  -28.3090 C.3    83  ALA83       0.1728
     41  C        -37.4460 -103.7890  -27.4050 C.2    83  ALA83       0.2616
     42  O        -36.5210 -104.5940  -27.3450 O.2    83  ALA83      -0.2715
     43  CB       -37.9060 -102.8910  -29.6830 C.3    83  ALA83       0.0334
     44  N        -38.5560 -103.8720  -26.6780 N.am   84  VAL84      -0.1977
     45  CA       -38.9090 -105.0220  -25.8490 C.3    84  VAL84       0.1596
     46  C        -40.3030 -105.4650  -26.2250 C.2    84  VAL84       0.2287
     47  O        -41.2040 -104.6260  -26.3380 O.2    84  VAL84      -0.2864
     48  CB       -38.8920 -104.6940  -24.3410 C.3    84  VAL84       0.0276
     49  CG1      -39.2320 -105.9380  -23.5140 C.3    84  VAL84       0.0022
     50  CG2      -37.5510 -104.0590  -23.9270 C.3    84  VAL84       0.0022
     51  N        -42.6290 -106.3740  -20.9820 N.3    89  ARG89      -0.1231
     52  CA       -42.3340 -105.0240  -20.4820 C.3    89  ARG89       0.1694
     53  C        -42.5100 -104.8660  -18.9830 C.2    89  ARG89       0.2591
     54  O        -43.1470 -105.6900  -18.3290 O.2    89  ARG89      -0.2718
     55  CB       -43.2140 -104.0080  -21.1980 C.3    89  ARG89       0.0321
     56  CG       -43.0880 -104.1590  -22.6710 C.3    89  ARG89       0.0489
     57  CD       -43.6490 -103.0190  -23.4650 C.3    89  ARG89       0.2205
     58  NE       -43.2550 -103.2030  -24.8560 N.pl3  89  ARG89      -0.0865
     59  CZ       -43.8920 -102.6960  -25.8970 C.cat  89  ARG89       0.5346
     60  NH1      -44.9570 -101.9300  -25.7210 N.pl3  89  ARG89       0.1354
     61  NH2      -43.4490 -102.9530  -27.1150 N.pl3  89  ARG89       0.1354
     62  N        -41.9430 -103.7870  -18.4530 N.am   90  ARG90      -0.1980
     63  CA       -42.0240 -103.4580  -17.0250 C.3    90  ARG90       0.1597
     64  C        -41.3970 -104.5320  -16.1580 C.2    90  ARG90       0.2287
     65  O        -41.6670 -104.6030  -14.9610 O.2    90  ARG90      -0.2864
     66  CB       -43.4710 -103.2500  -16.5650 C.3    90  ARG90       0.0334
     67  CG       -44.1360 -101.9810  -17.0240 C.3    90  ARG90       0.0492
     68  CD       -45.5460 -101.9870  -16.4740 C.3    90  ARG90       0.2205
     69  NE       -46.3180 -100.7980  -16.8050 N.pl3  90  ARG90      -0.0865
     70  CZ       -46.0630  -99.5840  -16.3320 C.cat  90  ARG90       0.5346
     71  NH1      -45.0390  -99.3800  -15.5120 N.pl3  90  ARG90       0.1354
     72  NH2      -46.8380  -98.5700  -16.6810 N.pl3  90  ARG90       0.1354
     73  N        -38.0210 -104.7880  -16.2130 N.3    92  GLY92      -0.1210
     74  CA       -36.6460 -104.3250  -16.1050 C.3    92  GLY92       0.1956
     75  C        -35.7470 -104.5150  -17.3260 C.2    92  GLY92       0.2612
     76  O        -34.5490 -104.2030  -17.2800 O.2    92  GLY92      -0.2717
     77  N        -36.3010 -105.0060  -18.4280 N.am   93  ILE93      -0.1965
     78  CA       -35.4590 -105.3550  -19.5710 C.3    93  ILE93       0.1727
     79  C        -34.7740 -104.1450  -20.2240 C.2    93  ILE93       0.2616
     80  O        -33.5630 -104.1680  -20.4400 O.2    93  ILE93      -0.2715
     81  CB       -36.2510 -106.1120  -20.6420 C.3    93  ILE93       0.0290
     82  CG1      -36.6500 -107.4990  -20.1250 C.3    93  ILE93       0.0022
     83  CG2      -35.4090 -106.3150  -21.8480 C.3    93  ILE93       0.0023
     84  CD1      -37.4080 -108.3510  -21.1440 C.3    93  ILE93       0.0001
     85  N        -35.5280 -103.0920  -20.5330 N.am   94  ALA94      -0.1963
     86  CA       -34.9550 -101.9710  -21.2810 C.3    94  ALA94       0.1728
     87  C        -33.9180 -101.1810  -20.4640 C.2    94  ALA94       0.2616
     88  O        -32.9760 -100.6000  -21.0270 O.2    94  ALA94      -0.2715
     89  CB       -36.0380 -101.0600  -21.7710 C.3    94  ALA94       0.0334
     90  N        -34.0780 -101.1920  -19.1470 N.am   95  THR95      -0.1951
     91  CA       -33.0990 -100.5940  -18.2520 C.3    95  THR95       0.1897
     92  C        -31.7570 -101.3230  -18.2990 C.2    95  THR95       0.2313
     93  O        -30.6890 -100.7090  -18.3100 O.2    95  THR95      -0.2863
     94  CB       -33.6180 -100.5870  -16.8170 C.3    95  THR95       0.1794
     95  OG1      -34.7360  -99.6960  -16.7320 O.3    95  THR95      -0.2208
     96  CG2      -32.5500 -100.1140  -15.8710 C.3    95  THR95       0.0378
     97  N        -32.9360  -90.3370  -30.0100 N.3   117  GLU117     -0.1231
     98  CA       -34.1380  -89.5990  -30.3670 C.3   117  GLU117      0.1699
     99  C        -35.3310  -90.3570  -29.8340 C.2   117  GLU117      0.2592
    100  O        -35.3870  -91.5600  -29.9800 O.2   117  GLU117     -0.2718
    101  CB       -34.2680  -89.4330  -31.8800 C.3   117  GLU117      0.0402
    102  CG       -33.2900  -88.4460  -32.4840 C.3   117  GLU117      0.1161
    103  CD       -31.9520  -89.0670  -32.8350 C.2   117  GLU117      0.3649
    104  OE1      -31.7260  -90.2440  -32.4850 O.co2 117  GLU117     -0.2457
    105  OE2      -31.1300  -88.3670  -33.4710 O.co2 117  GLU117     -0.2457
    106  N        -36.2760  -89.6640  -29.2110 N.am  118  VAL118     -0.1966
    107  CA       -37.5150  -90.3040  -28.8090 C.3   118  VAL118      0.1727
    108  C        -38.6950  -89.3920  -29.1370 C.2   118  VAL118      0.2616
    109  O        -38.6090  -88.1770  -28.9950 O.2   118  VAL118     -0.2715
    110  CB       -37.5140  -90.6780  -27.2950 C.3   118  VAL118      0.0290
    111  CG1      -37.4910  -89.4520  -26.3950 C.3   118  VAL118      0.0023
    112  CG2      -38.7320  -91.5120  -26.9690 C.3   118  VAL118      0.0023
    113  N        -39.7850  -89.9830  -29.6150 N.am  119  ARG119     -0.1977
    114  CA       -41.0200  -89.2470  -29.8500 C.3   119  ARG119      0.1597
    115  C        -41.4690  -88.5330  -28.5710 C.2   119  ARG119      0.2287
    116  O        -41.4130  -89.1010  -27.4730 O.2   119  ARG119     -0.2864
    117  CB       -42.1190  -90.1860  -30.3480 C.3   119  ARG119      0.0334
    118  CG       -41.9440  -90.6380  -31.7860 C.3   119  ARG119      0.0492
    119  CD       -43.0330  -91.6050  -32.2740 C.3   119  ARG119      0.2205
    120  NE       -42.8200  -91.9510  -33.6810 N.pl3 119  ARG119     -0.0865
    121  CZ       -43.4090  -91.3390  -34.7080 C.cat 119  ARG119      0.5346
    122  NH1      -44.2700  -90.3490  -34.4940 N.pl3 119  ARG119      0.1354
    123  NH2      -43.1450  -91.7220  -35.9540 N.pl3 119  ARG119      0.1354
    124  N        -44.0700  -90.5120  -26.6190 N.3   122  ASN122     -0.1225
    125  CA       -43.6580  -91.8150  -26.0920 C.3   122  ASN122      0.1785
    126  C        -43.3390  -91.7470  -24.6000 C.2   122  ASN122      0.2597
    127  O        -42.1770  -91.8780  -24.1930 O.2   122  ASN122     -0.2718
    128  CB       -42.4370  -92.3100  -26.8790 C.3   122  ASN122      0.1169
    129  CG       -42.0750  -93.7710  -26.5990 C.2   122  ASN122      0.2627
    130  OD1      -42.4830  -94.3630  -25.6000 O.2   122  ASN122     -0.2716
    131  ND2      -41.2590  -94.3400  -27.4790 N.am  122  ASN122     -0.0877
    132  N        -44.3730  -91.5330  -23.7920 N.am  123  TYR123     -0.1963
    133  CA       -44.2220  -91.3170  -22.3510 C.3   123  TYR123      0.1756
    134  C        -43.3920  -92.3870  -21.6200 C.2   123  TYR123      0.2461
    135  O        -42.4450  -92.0380  -20.9120 O.2   123  TYR123     -0.2730
    136  CB       -45.6030  -91.1950  -21.7060 C.3   123  TYR123      0.0574
    137  CG       -45.5640  -91.0250  -20.2200 C.ar  123  TYR123     -0.0198
    138  CD1      -45.2470  -89.7970  -19.6490 C.ar  123  TYR123     -0.0009
    139  CD2      -45.8400  -92.0910  -19.3760 C.ar  123  TYR123     -0.0009
    140  CE1      -45.2110  -89.6370  -18.2680 C.ar  123  TYR123      0.0417
    141  CE2      -45.8070  -91.9430  -17.9980 C.ar  123  TYR123      0.0417
    142  CZ       -45.4960  -90.7160  -17.4500 C.ar  123  TYR123      0.1957
    143  OH       -45.4670  -90.5730  -16.0830 O.3   123  TYR123     -0.2866
    144  N        -43.7260  -93.6900  -21.7880 N.am  124  PRO124     -0.2716
    145  CA       -42.9390  -94.6880  -21.0490 C.3   124  PRO124      0.1536
    146  C        -41.4550  -94.7450  -21.4310 C.2   124  PRO124      0.2598
    147  O        -40.6260  -95.0990  -20.5820 O.2   124  PRO124     -0.2715
    148  CB       -43.6290  -96.0110  -21.4030 C.3   124  PRO124      0.0310
    149  CG       -44.3620  -95.7440  -22.6630 C.3   124  PRO124      0.0237
    150  CD       -44.8060  -94.3290  -22.5700 C.3   124  PRO124      0.0939
    151  N        -41.1160  -94.4200  -22.6760 N.am  125  ALA125     -0.1978
    152  CA       -39.7030  -94.3620  -23.0320 C.3   125  ALA125      0.1597
    153  C        -39.0420  -93.1820  -22.3270 C.2   125  ALA125      0.2287
    154  O        -38.0150  -93.3560  -21.6660 O.2   125  ALA125     -0.2864
    155  CB       -39.5180  -94.2630  -24.5250 C.3   125  ALA125      0.0319
    156  N        -39.9090  -91.6590  -19.7260 N.3   127  ALA127     -0.1231
    157  CA       -39.8160  -92.0040  -18.3150 C.3   127  ALA127      0.1694
    158  C        -38.5880  -92.8940  -18.0130 C.2   127  ALA127      0.2592
    159  O        -37.9100  -92.7050  -16.9980 O.2   127  ALA127     -0.2718
    160  CB       -41.0960  -92.6880  -17.8650 C.3   127  ALA127      0.0304
    161  N        -38.2960  -93.8510  -18.8940 N.am  128  LEU128     -0.1966
    162  CA       -37.1600  -94.7540  -18.6840 C.3   128  LEU128      0.1728
    163  C        -35.8060  -94.0270  -18.7640 C.2   128  LEU128      0.2616
    164  O        -34.9230  -94.2500  -17.9390 O.2   128  LEU128     -0.2715
    165  CB       -37.1990  -95.9040  -19.6900 C.3   128  LEU128      0.0311
    166  CG       -36.0760  -96.9420  -19.6250 C.3   128  LEU128      0.0022
    167  CD1      -36.6220  -98.3440  -19.5510 C.3   128  LEU128      0.0001
    168  CD2      -35.2500  -96.8370  -20.8540 C.3   128  LEU128      0.0001
    169  N        -35.6590  -93.1480  -19.7480 N.am  129  TYR129     -0.1974
    170  CA       -34.4120  -92.4270  -19.9480 C.3   129  TYR129      0.1639
    171  C        -34.1330  -91.4470  -18.8130 C.2   129  TYR129      0.2290
    172  O        -33.0120  -91.3750  -18.3260 O.2   129  TYR129     -0.2864
    173  CB       -34.4320  -91.6910  -21.2880 C.3   129  TYR129      0.0560
    174  CG       -34.7600  -92.5930  -22.4470 C.ar  129  TYR129     -0.0198
    175  CD1      -34.1820  -93.8500  -22.5590 C.ar  129  TYR129     -0.0009
    176  CD2      -35.6640  -92.2000  -23.4250 C.ar  129  TYR129     -0.0009
    177  CE1      -34.4850  -94.6800  -23.6180 C.ar  129  TYR129      0.0417
    178  CE2      -35.9770  -93.0240  -24.4840 C.ar  129  TYR129      0.0417
    179  CZ       -35.3810  -94.2630  -24.5780 C.ar  129  TYR129      0.1957
    180  OH       -35.6900  -95.0880  -25.6360 O.3   129  TYR129     -0.2866
    181  N        -35.1810  -91.5810  -15.7950 N.3   131  LYS131     -0.1245
    182  CA       -34.8810  -92.4280  -14.6520 C.3   131  LYS131      0.1561
    183  C        -33.3960  -92.8110  -14.6460 C.2   131  LYS131      0.2260
    184  O        -32.7790  -92.8930  -13.5870 O.2   131  LYS131     -0.2867
    185  CB       -35.7650  -93.6880  -14.6780 C.3   131  LYS131      0.0271
    186  CG       -35.7760  -94.4860  -13.3820 C.3   131  LYS131      0.0035
    187  CD       -35.8270  -95.9930  -13.6350 C.3   131  LYS131      0.0206
    188  CE       -35.5030  -96.7990  -12.3690 C.3   131  LYS131      0.1093
    189  NZ       -35.1490  -98.2280  -12.6620 N.3   131  LYS131     -0.1314
@<TRIPOS>BOND
     1    18    17    1
     2    18    19    2
     3    17    16    1
     4    17    20    1
     5    20    21    1
     6    21    22    1
     7    11    10    2
     8   123   121    1
     9    23    22   ar
    10    10     9    1
    11    22    24   ar
    12   121   122    1
    13   121   120    2
    14     9    12    1
    15     9     8    1
    16    12    13    1
    17   120   119    1
    18     8     3   am
    19   105   103   ar
    20    30    29    1
    21     1     2    1
    22    29    26    1
    23   103   104   ar
    24   103   102    1
    25    14    13    1
    26   102   101    1
    27     3     2    1
    28     3     4    2
    29    13    15    1
    30   119   118    1
    31     2     5    1
    32   101    98    1
    33    25    26    1
    34   118   117    1
    35    26    27    1
    36     5     6    1
    37     5     7    1
    38    27    28    2
    39    27    31   am
    40    98    97    1
    41    98    99    1
    42   117   114    1
    43   100    99    2
    44    31    32    1
    45   114   113    1
    46   114   115    1
    47    99   106   am
    48    43    40    1
    49   113   108   am
    50   106   107    1
    51   108   109    2
    52   108   107    1
    53   107   110    1
    54    32    33    1
    55    32    35    1
    56   115   116    2
    57    33    34    2
    58    33    39   am
    59    39    40    1
    60    40    41    1
    61   131   129   am
    62    41    42    2
    63    41    44   am
    64    35    37    1
    65    35    36    1
    66   110   112    1
    67   110   111    1
    68    61    59    1
    69   128   129    1
    70   128   125    1
    71    44    45    1
    72   124   125    1
    73   129   130    2
    74    47    46    2
    75    46    45    1
    76    36    38    1
    77   125   126    1
    78    59    60    1
    79    59    58    2
    80    45    48    1
    81   180   179    1
    82    58    57    1
    83   126   127    2
    84   126   132   am
    85   179   178   ar
    86   179   177   ar
    87   155   152    1
    88   178   176   ar
    89    48    50    1
    90    48    49    1
    91   132   133    1
    92   177   175   ar
    93    57    56    1
    94   176   174   ar
    95   152   151    1
    96   152   153    1
    97   151   146   am
    98    56    55    1
    99   149   150    1
   100   149   148    1
   101   150   144    1
   102   175   174   ar
   103   174   173    1
   104   133   136    1
   105   133   134    1
   106   153   154    2
   107    83    81    1
   108   144   134   am
   109   144   145    1
   110    89    86    1
   111   136   137    1
   112   134   135    2
   113   146   145    1
   114   146   147    2
   115   148   145    1
   116   173   170    1
   117    86    85    1
   118    86    87    1
   119    55    52    1
   120    84    82    1
   121    88    87    2
   122    51    52    1
   123   168   166    1
   124    81    82    1
   125    81    78    1
   126    85    79   am
   127    52    53    1
   128    87    90   am
   129    80    79    2
   130    79    78    1
   131   137   138   ar
   132   137   139   ar
   133   170   169    1
   134   170   171    1
   135   169   163   am
   136   156   157    1
   137   165   166    1
   138   165   162    1
   139   138   140   ar
   140   166   167    1
   141    78    77    1
   142   139   141   ar
   143    90    91    1
   144    53    62   am
   145    53    54    2
   146   161   162    1
   147   161   158   am
   148   171   172    2
   149   163   162    1
   150   163   164    2
   151    62    63    1
   152    77    75   am
   153   157   158    1
   154   157   160    1
   155    93    92    2
   156    92    91    1
   157   140   142   ar
   158    91    94    1
   159   158   159    2
   160   141   142   ar
   161   142   143    1
   162    75    76    2
   163    75    74    1
   164    63    66    1
   165    63    64    1
   166    67    66    1
   167    67    68    1
   168    94    95    1
   169    94    96    1
   170    69    68    1
   171    69    70    2
   172    72    70    1
   173    70    71    1
   174    73    74    1
   175    64    65    2
   176   181   182    1
   177   185   182    1
   178   185   186    1
   179   182   183    1
   180   183   184    2
   181   187   186    1
   182   187   188    1
   183   189   188    1
