@<TRIPOS>MOLECULE
tmp/5c89A00.pdb
 130 128 0 0 0
SMALL
GASTEIGER

@<TRIPOS>ATOM
      1  N         18.6300  -12.4450    5.8070 N.3    25  ASN25      -0.1225
      2  CA        17.9660  -13.4290    6.6580 C.3    25  ASN25       0.1785
      3  C         16.4430  -13.3400    6.5630 C.2    25  ASN25       0.2597
      4  O         15.7350  -13.5890    7.5370 O.2    25  ASN25      -0.2718
      5  CB        18.4100  -13.2740    8.1200 C.3    25  ASN25       0.1169
      6  CG        19.7250  -13.9770    8.4090 C.2    25  ASN25       0.2627
      7  OD1       20.1690  -14.8280    7.6380 O.2    25  ASN25      -0.2716
      8  ND2       20.3460  -13.6330    9.5320 N.am   25  ASN25      -0.0877
      9  N         15.9240  -13.0170    5.3840 N.am   26  ILE26      -0.1966
     10  CA        14.4860  -12.8340    5.3010 C.3    26  ILE26       0.1727
     11  C         13.7840  -14.1780    5.1250 C.2    26  ILE26       0.2616
     12  O         12.5760  -14.2720    5.3330 O.2    26  ILE26      -0.2715
     13  CB        14.0940  -11.8540    4.1750 C.3    26  ILE26       0.0290
     14  CG1       14.0790  -12.5270    2.8170 C.3    26  ILE26       0.0022
     15  CG2       15.0260  -10.6450    4.1620 C.3    26  ILE26       0.0023
     16  CD1       13.6430  -11.5870    1.7230 C.3    26  ILE26       0.0001
     17  N         14.5460  -15.2190    4.7960 N.am   27  PHE27      -0.1974
     18  CA        13.9710  -16.5580    4.6030 C.3    27  PHE27       0.1639
     19  C         14.3580  -17.5420    5.7250 C.2    27  PHE27       0.2290
     20  O         14.1250  -18.7430    5.6150 O.2    27  PHE27      -0.2864
     21  CB        14.4090  -17.1230    3.2550 C.3    27  PHE27       0.0560
     22  CG        14.0720  -16.2380    2.0850 C.ar   27  PHE27      -0.0200
     23  CD1       12.7560  -16.0770    1.6820 C.ar   27  PHE27      -0.0042
     24  CD2       15.0680  -15.5700    1.3910 C.ar   27  PHE27      -0.0042
     25  CE1       12.4330  -15.2710    0.6130 C.ar   27  PHE27      -0.0003
     26  CE2       14.7520  -14.7510    0.3160 C.ar   27  PHE27      -0.0003
     27  CZ        13.4330  -14.6070   -0.0770 C.ar   27  PHE27      -0.0000
     28  N         13.2290  -17.9370    8.8170 N.3    29  GLU29      -0.1231
     29  CA        12.1550  -18.4490    9.6680 C.3    29  GLU29       0.1684
     30  C         10.7950  -18.3180    8.9680 C.2    29  GLU29       0.2434
     31  O         10.6760  -17.5920    7.9790 O.2    29  GLU29      -0.2733
     32  CB        12.1740  -17.7080   11.0160 C.3    29  GLU29       0.0402
     33  CG        13.4120  -18.0390   11.8500 C.3    29  GLU29       0.1161
     34  CD        13.6790  -17.0490   12.9620 C.2    29  GLU29       0.3649
     35  OE1       12.9870  -16.0110   13.0260 O.co2  29  GLU29      -0.2457
     36  OE2       14.5920  -17.3120   13.7740 O.co2  29  GLU29      -0.2457
     37  N          9.7720  -19.0500    9.4470 N.am   30  PRO30      -0.2718
     38  CA         8.4650  -18.9490    8.7860 C.3    30  PRO30       0.1535
     39  C          7.9860  -17.5060    8.6720 C.2    30  PRO30       0.2598
     40  O          8.2100  -16.7260    9.6020 O.2    30  PRO30      -0.2715
     41  CB         7.5350  -19.7510    9.7170 C.3    30  PRO30       0.0310
     42  CG         8.4330  -20.7380   10.3810 C.3    30  PRO30       0.0237
     43  CD         9.7720  -20.0510   10.5320 C.3    30  PRO30       0.0939
     44  N          7.3670  -17.1530    7.5470 N.am   31  VAL31      -0.1964
     45  CA         6.7150  -15.8500    7.4160 C.3    31  VAL31       0.1712
     46  C          5.7730  -15.6550    8.6010 C.2    31  VAL31       0.2458
     47  O          4.9140  -16.5050    8.8430 O.2    31  VAL31      -0.2730
     48  CB         5.9390  -15.7480    6.0820 C.3    31  VAL31       0.0289
     49  CG1        5.1020  -14.4760    6.0340 C.3    31  VAL31       0.0023
     50  CG2        6.9030  -15.8250    4.8910 C.3    31  VAL31       0.0023
     51  N          5.9510  -14.5590    9.3700 N.am   32  PRO32      -0.2727
     52  CA         5.1480  -14.3330   10.5810 C.3    32  PRO32       0.1402
     53  C          3.6700  -14.1400   10.2650 C.2    32  PRO32       0.2269
     54  O          3.2680  -13.0490    9.8550 O.2    32  PRO32      -0.2865
     55  CB         5.7420  -13.0440   11.1760 C.3    32  PRO32       0.0296
     56  CG         7.0880  -12.8970   10.5340 C.3    32  PRO32       0.0237
     57  CD         6.9550  -13.4990    9.1710 C.3    32  PRO32       0.0939
     58  N          1.9430  -11.1590   11.5100 N.3    35  GLU35      -0.1231
     59  CA         2.2260   -9.8950   10.8450 C.3    35  GLU35       0.1699
     60  C          1.6070   -9.8670    9.4580 C.2    35  GLU35       0.2592
     61  O          1.2870   -8.8040    8.9280 O.2    35  GLU35      -0.2718
     62  CB         3.7330   -9.6570   10.7530 C.3    35  GLU35       0.0402
     63  CG         4.3600   -9.1560   12.0420 C.3    35  GLU35       0.1161
     64  CD         5.8560   -8.9560   11.9190 C.2    35  GLU35       0.3649
     65  OE1        6.5380   -8.9230   12.9640 O.co2  35  GLU35      -0.2457
     66  OE2        6.3500   -8.8300   10.7780 O.co2  35  GLU35      -0.2457
     67  N          1.4430  -11.0500    8.8750 N.am   36  VAL36      -0.1980
     68  CA         0.9060  -11.1800    7.5250 C.3    36  VAL36       0.1595
     69  C         -0.3650  -12.0340    7.5330 C.2    36  VAL36       0.2287
     70  O         -0.3480  -13.1840    7.0840 O.2    36  VAL36      -0.2864
     71  CB         1.9470  -11.8070    6.5740 C.3    36  VAL36       0.0276
     72  CG1        1.5700  -11.5510    5.1370 C.3    36  VAL36       0.0022
     73  CG2        3.3370  -11.2490    6.8630 C.3    36  VAL36       0.0022
     74  N         -1.5740  -14.2160    4.4820 N.3    39  TYR39      -0.1241
     75  CA        -0.5470  -14.9910    3.7890 C.3    39  TYR39       0.1605
     76  C         -1.0440  -16.3540    3.3070 C.2    39  TYR39       0.2264
     77  O         -0.8680  -16.7040    2.1420 O.2    39  TYR39      -0.2867
     78  CB         0.6720  -15.1790    4.6900 C.3    39  TYR39       0.0534
     79  CG         1.8730  -15.7310    3.9560 C.ar   39  TYR39      -0.0201
     80  CD1        2.6200  -14.9240    3.1080 C.ar   39  TYR39      -0.0009
     81  CD2        2.2630  -17.0580    4.1080 C.ar   39  TYR39      -0.0009
     82  CE1        3.7180  -15.4210    2.4280 C.ar   39  TYR39       0.0417
     83  CE2        3.3710  -17.5660    3.4290 C.ar   39  TYR39       0.0417
     84  CZ         4.0920  -16.7400    2.5910 C.ar   39  TYR39       0.1957
     85  OH         5.1940  -17.2300    1.9110 O.3    39  TYR39      -0.2866
     86  N         10.4430  -21.8640   -1.0570 N.3    74  ILE74      -0.1245
     87  CA        10.8380  -20.6270   -0.3930 C.3    74  ILE74       0.1561
     88  C         10.8060  -19.4820   -1.3950 C.2    74  ILE74       0.2260
     89  O         10.2390  -18.4110   -1.1410 O.2    74  ILE74      -0.2867
     90  CB        12.2430  -20.7370    0.2180 C.3    74  ILE74       0.0252
     91  CG1       12.2260  -21.7460    1.3660 C.3    74  ILE74       0.0019
     92  CG2       12.7040  -19.3910    0.7510 C.3    74  ILE74       0.0019
     93  CD1       13.5870  -21.9200    2.0230 C.3    74  ILE74       0.0001
     94  N          7.4670  -16.5520   -2.2520 N.3    78  CYS78      -0.1235
     95  CA         7.8210  -15.1490   -2.1160 C.3    78  CYS78       0.1677
     96  C          7.5040  -14.3620   -3.3950 C.2    78  CYS78       0.2270
     97  O          6.9630  -13.2530   -3.3470 O.2    78  CYS78      -0.2867
     98  CB         9.3040  -15.0220   -1.7630 C.3    78  CYS78       0.0956
     99  SG         9.8030  -13.3440   -1.2530 S.3    78  CYS78      -0.0801
    100  N          3.5870  -14.0430   -3.4620 N.3    81  TYR81      -0.1227
    101  CA         2.9180  -13.1590   -2.5170 C.3    81  TYR81       0.1736
    102  C          3.2300  -11.6790   -2.7290 C.2    81  TYR81       0.2595
    103  O          2.3480  -10.8250   -2.5460 O.2    81  TYR81      -0.2718
    104  CB         3.2600  -13.5470   -1.0770 C.3    81  TYR81       0.0548
    105  CG         2.4750  -12.7260   -0.0840 C.ar   81  TYR81      -0.0200
    106  CD1        1.1430  -13.0090    0.1690 C.ar   81  TYR81      -0.0009
    107  CD2        3.0540  -11.6500    0.5720 C.ar   81  TYR81      -0.0009
    108  CE1        0.4140  -12.2600    1.0570 C.ar   81  TYR81       0.0417
    109  CE2        2.3290  -10.8880    1.4620 C.ar   81  TYR81       0.0417
    110  CZ         1.0100  -11.1990    1.6980 C.ar   81  TYR81       0.1957
    111  OH         0.2790  -10.4400    2.5840 O.3    81  TYR81      -0.2866
    112  N          4.4670  -11.3710   -3.1180 N.am   82  ASN82      -0.1974
    113  CA         4.9400   -9.9860   -3.1480 C.3    82  ASN82       0.1688
    114  C          4.9750   -9.3730   -4.5390 C.2    82  ASN82       0.2292
    115  O          5.2310  -10.0660   -5.5250 O.2    82  ASN82      -0.2864
    116  CB         6.3330   -9.9180   -2.5200 C.3    82  ASN82       0.1181
    117  CG         6.3260  -10.3800   -1.0780 C.2    82  ASN82       0.2629
    118  OD1        5.9240   -9.6340   -0.1890 O.2    82  ASN82      -0.2716
    119  ND2        6.7220  -11.6240   -0.8430 N.am   82  ASN82      -0.0877
    120  N         11.3670   -7.8180   -1.1840 N.3    88  PHE88      -0.1241
    121  CA        11.1400   -9.2500   -0.9850 C.3    88  PHE88       0.1605
    122  C         11.1640  -10.0010   -2.3130 C.2    88  PHE88       0.2264
    123  O         11.8160  -11.0380   -2.4350 O.2    88  PHE88      -0.2867
    124  CB         9.8080   -9.5140   -0.2720 C.3    88  PHE88       0.0534
    125  CG         9.8080   -9.1090    1.1820 C.ar   88  PHE88      -0.0203
    126  CD1       10.9910   -9.0730    1.9040 C.ar   88  PHE88      -0.0042
    127  CD2        8.6290   -8.7680    1.8190 C.ar   88  PHE88      -0.0042
    128  CE1       10.9990   -8.7010    3.2400 C.ar   88  PHE88      -0.0003
    129  CE2        8.6300   -8.3860    3.1560 C.ar   88  PHE88      -0.0003
    130  CZ         9.8170   -8.3630    3.8660 C.ar   88  PHE88      -0.0000
@<TRIPOS>BOND
     1   115   114    2
     2   114   113    1
     3   100   101    1
     4    96    97    2
     5    96    95    1
     6   113   112    1
     7   113   116    1
     8   112   102   am
     9   102   103    2
    10   102   101    1
    11   116   117    1
    12   101   104    1
    13   123   122    2
    14   122   121    1
    15    94    95    1
    16    95    98    1
    17    98    99    1
    18    88    89    2
    19    88    87    1
    20   120   121    1
    21   117   119   am
    22   117   118    2
    23   104   105    1
    24    86    87    1
    25   121   124    1
    26    87    90    1
    27   124   125    1
    28   105   106   ar
    29   105   107   ar
    30    27    26   ar
    31    27    25   ar
    32   106   108   ar
    33    90    92    1
    34    90    91    1
    35    26    24   ar
    36   107   109   ar
    37    25    23   ar
    38   108   110   ar
    39   125   127   ar
    40   125   126   ar
    41    91    93    1
    42    24    22   ar
    43   109   110   ar
    44    23    22   ar
    45   110   111    1
    46    16    14    1
    47   127   129   ar
    48   126   128   ar
    49    85    84    1
    50    22    21    1
    51    77    76    2
    52    82    84   ar
    53    82    80   ar
    54    84    83   ar
    55    14    13    1
    56    80    79   ar
    57   129   130   ar
    58   128   130   ar
    59    21    18    1
    60    76    75    1
    61    83    81   ar
    62    75    74    1
    63    75    78    1
    64    79    81   ar
    65    79    78    1
    66    15    13    1
    67    13    10    1
    68    18    17    1
    69    18    19    1
    70    17    11   am
    71    50    48    1
    72    11    10    1
    73    11    12    2
    74    72    71    1
    75    10     9    1
    76     9     3   am
    77    20    19    2
    78     1     2    1
    79    49    48    1
    80    48    45    1
    81     3     2    1
    82     3     4    2
    83    71    73    1
    84    71    68    1
    85     2     5    1
    86    70    69    2
    87    45    44    1
    88    45    46    1
    89    68    69    1
    90    68    67    1
    91    44    39   am
    92     7     6    2
    93    31    30    2
    94     5     6    1
    95     6     8   am
    96    46    47    2
    97    46    51   am
    98    39    38    1
    99    39    40    2
   100    38    37    1
   101    38    41    1
   102    28    29    1
   103    67    60   am
   104    61    60    2
   105    30    37   am
   106    30    29    1
   107    57    51    1
   108    57    56    1
   109    51    52    1
   110    37    43    1
   111    60    59    1
   112    29    32    1
   113    41    42    1
   114    54    53    2
   115    53    52    1
   116    42    43    1
   117    56    55    1
   118    52    55    1
   119    62    59    1
   120    62    63    1
   121    66    64   ar
   122    59    58    1
   123    32    33    1
   124    33    34    1
   125    64    63    1
   126    64    65   ar
   127    34    35   ar
   128    34    36   ar
