@<TRIPOS>MOLECULE
tmp/5c8cA00.pdb
 212 206 0 0 0
SMALL
GASTEIGER

@<TRIPOS>ATOM
      1  N         63.0040   27.7920  124.0980 N.3    71  TRP71      -0.1241
      2  CA        63.7780   28.6630  123.2360 C.3    71  TRP71       0.1605
      3  C         62.8980   29.4630  122.2990 C.2    71  TRP71       0.2264
      4  O         62.2490   28.9060  121.3980 O.2    71  TRP71      -0.2867
      5  CB        64.7690   27.8480  122.4030 C.3    71  TRP71       0.0550
      6  CG        65.6170   28.7080  121.5320 C.ar   71  TRP71       0.0003
      7  CD1       66.5180   29.6680  121.9400 C.ar   71  TRP71       0.0946
      8  CD2       65.6150   28.7400  120.0990 C.ar   71  TRP71       0.0152
      9  NE1       67.0680   30.2920  120.8370 N.ar   71  TRP71      -0.2442
     10  CE2       66.5310   29.7420  119.7000 C.ar   71  TRP71       0.0810
     11  CE3       64.9320   28.0190  119.1140 C.ar   71  TRP71       0.0012
     12  CZ2       66.7740   30.0380  118.3600 C.ar   71  TRP71       0.0191
     13  CZ3       65.1800   28.3150  117.7730 C.ar   71  TRP71       0.0001
     14  CH2       66.0910   29.3150  117.4120 C.ar   71  TRP71       0.0015
     15  N         61.8970   31.1540  119.2940 N.3    73  ILE73      -0.1231
     16  CA        62.3930   30.9960  117.9230 C.3    73  ILE73       0.1692
     17  C         62.8000   32.2900  117.2330 C.2    73  ILE73       0.2592
     18  O         61.9560   33.0350  116.7450 O.2    73  ILE73      -0.2718
     19  CB        61.3580   30.3090  117.0320 C.3    73  ILE73       0.0266
     20  CG1       60.9020   28.9960  117.6700 C.3    73  ILE73       0.0019
     21  CG2       61.9540   30.0630  115.6550 C.3    73  ILE73       0.0020
     22  CD1       59.3750   28.8200  117.6900 C.3    73  ILE73       0.0001
     23  N         64.1030   32.5400  117.1880 N.am   74  ASP74      -0.1960
     24  CA        64.6640   33.7320  116.5500 C.3    74  ASP74       0.1840
     25  C         65.8730   33.2680  115.7610 C.2    74  ASP74       0.2622
     26  O         66.9240   33.0130  116.3420 O.2    74  ASP74      -0.2715
     27  CB        65.1140   34.7530  117.6010 C.3    74  ASP74       0.1450
     28  CG        65.6980   36.0230  116.9790 C.2    74  ASP74       0.3671
     29  OD1       66.3910   35.9260  115.9420 O.co2  74  ASP74      -0.2456
     30  OD2       65.4750   37.1190  117.5410 O.co2  74  ASP74      -0.2456
     31  N         65.7250   33.1900  114.4420 N.am   75  LEU75      -0.1963
     32  CA        66.7790   32.7280  113.5400 C.3    75  LEU75       0.1728
     33  C         67.8460   33.7280  113.0480 C.2    75  LEU75       0.2616
     34  O         68.4830   33.4940  112.0220 O.2    75  LEU75      -0.2715
     35  CB        66.1030   32.0960  112.3350 C.3    75  LEU75       0.0311
     36  CG        64.8960   31.2760  112.7960 C.3    75  LEU75       0.0022
     37  CD1       64.4340   30.4260  111.6380 C.3    75  LEU75       0.0001
     38  CD2       65.2500   30.4050  114.0210 C.3    75  LEU75       0.0001
     39  N         68.0630   34.8230  113.7700 N.am   76  MET76      -0.1977
     40  CA        69.0360   35.8190  113.3320 C.3    76  MET76       0.1605
     41  C         70.2970   35.8850  114.1920 C.2    76  MET76       0.2287
     42  O         70.9700   36.9090  114.2110 O.2    76  MET76      -0.2864
     43  CB        68.3710   37.2000  113.3030 C.3    76  MET76       0.0413
     44  CG        67.1190   37.2620  112.4350 C.3    76  MET76       0.0598
     45  SD        67.4310   37.0660  110.6570 S.3    76  MET76      -0.1393
     46  CE        67.4160   35.2900  110.3840 C.3    76  MET76       0.0692
     47  N         58.9050   30.8160  102.4180 N.3    93  PHE93      -0.1241
     48  CA        59.4310   29.4700  102.2650 C.3    93  PHE93       0.1605
     49  C         58.9770   28.5050  103.3330 C.2    93  PHE93       0.2264
     50  O         58.4560   28.9110  104.3790 O.2    93  PHE93      -0.2867
     51  CB        60.9610   29.5180  102.3020 C.3    93  PHE93       0.0534
     52  CG        61.5220   30.1330  103.5680 C.ar   93  PHE93      -0.0203
     53  CD1       61.6080   29.3910  104.7480 C.ar   93  PHE93      -0.0042
     54  CD2       61.9690   31.4590  103.5770 C.ar   93  PHE93      -0.0042
     55  CE1       62.1390   29.9630  105.9270 C.ar   93  PHE93      -0.0003
     56  CE2       62.4960   32.0380  104.7410 C.ar   93  PHE93      -0.0003
     57  CZ        62.5830   31.2880  105.9190 C.ar   93  PHE93      -0.0000
     58  N         60.4440   25.1700  105.6270 N.3    95  ALA95      -0.1245
     59  CA        61.7610   24.9280  106.1840 C.3    95  ALA95       0.1562
     60  C         61.9020   23.5270  106.7530 C.2    95  ALA95       0.2260
     61  O         60.9640   22.9720  107.3230 O.2    95  ALA95      -0.2867
     62  CB        62.0420   25.9560  107.2720 C.3    95  ALA95       0.0290
     63  N         63.8820   21.4930  109.5040 N.3    97  PHE97      -0.1241
     64  CA        64.7180   21.6570  110.6860 C.3    97  PHE97       0.1605
     65  C         65.3180   20.3200  111.0740 C.2    97  PHE97       0.2264
     66  O         64.6160   19.3040  111.1240 O.2    97  PHE97      -0.2867
     67  CB        63.9090   22.2170  111.8660 C.3    97  PHE97       0.0534
     68  CG        63.5870   23.6770  111.7370 C.ar   97  PHE97      -0.0203
     69  CD1       62.5200   24.1040  110.9510 C.ar   97  PHE97      -0.0042
     70  CD2       64.3810   24.6330  112.3650 C.ar   97  PHE97      -0.0042
     71  CE1       62.2510   25.4610  110.7920 C.ar   97  PHE97      -0.0003
     72  CE2       64.1180   25.9920  112.2100 C.ar   97  PHE97      -0.0003
     73  CZ        63.0540   26.4060  111.4220 C.ar   97  PHE97      -0.0000
     74  N         67.7810   18.3940  113.9840 N.3    99  PHE99      -0.1241
     75  CA        68.2580   18.5290  115.3560 C.3    99  PHE99       0.1605
     76  C         69.4370   17.6180  115.6930 C.2    99  PHE99       0.2264
     77  O         69.2680   16.4250  115.9480 O.2    99  PHE99      -0.2867
     78  CB        67.0730   18.2850  116.3100 C.3    99  PHE99       0.0534
     79  CG        65.8680   19.1570  116.0060 C.ar   99  PHE99      -0.0203
     80  CD1       64.9550   18.7950  115.0140 C.ar   99  PHE99      -0.0042
     81  CD2       65.6810   20.3660  116.6630 C.ar   99  PHE99      -0.0042
     82  CE1       63.8780   19.6260  114.6810 C.ar   99  PHE99      -0.0003
     83  CE2       64.6040   21.2050  116.3340 C.ar   99  PHE99      -0.0003
     84  CZ        63.7050   20.8350  115.3450 C.ar   99  PHE99      -0.0000
     85  N         61.0990   17.2390  121.8620 N.3   115  TYR115     -0.1241
     86  CA        61.1560   18.5800  121.2970 C.3   115  TYR115      0.1605
     87  C         59.6980   18.8750  120.9930 C.2   115  TYR115      0.2264
     88  O         59.0140   18.0620  120.3590 O.2   115  TYR115     -0.2867
     89  CB        61.9320   18.6320  119.9760 C.3   115  TYR115      0.0534
     90  CG        63.3050   18.0040  119.9780 C.ar  115  TYR115     -0.0201
     91  CD1       64.1440   18.0910  121.0950 C.ar  115  TYR115     -0.0009
     92  CD2       63.7760   17.3290  118.8430 C.ar  115  TYR115     -0.0009
     93  CE1       65.4220   17.5110  121.0820 C.ar  115  TYR115      0.0417
     94  CE2       65.0500   16.7470  118.8170 C.ar  115  TYR115      0.0417
     95  CZ        65.8630   16.8400  119.9380 C.ar  115  TYR115      0.1957
     96  OH        67.1050   16.2480  119.9140 O.3   115  TYR115     -0.2866
     97  N         56.9240   21.8870  119.5310 N.3   117  TYR117     -0.1241
     98  CA        56.7040   23.1880  118.9140 C.3   117  TYR117      0.1605
     99  C         55.5210   23.8450  119.6400 C.2   117  TYR117      0.2264
    100  O         54.3980   23.3370  119.6190 O.2   117  TYR117     -0.2867
    101  CB        56.4050   23.0500  117.4130 C.3   117  TYR117      0.0534
    102  CG        56.0410   24.3720  116.7750 C.ar  117  TYR117     -0.0201
    103  CD1       56.6620   25.5530  117.1910 C.ar  117  TYR117     -0.0009
    104  CD2       55.0610   24.4560  115.7790 C.ar  117  TYR117     -0.0009
    105  CE1       56.3140   26.7860  116.6450 C.ar  117  TYR117      0.0417
    106  CE2       54.7100   25.6950  115.2140 C.ar  117  TYR117      0.0417
    107  CZ        55.3410   26.8530  115.6590 C.ar  117  TYR117      0.1957
    108  OH        55.0050   28.0860  115.1480 O.3   117  TYR117     -0.2866
    109  N         52.7460   19.8130  118.1300 N.3   139  PRO139     -0.2116
    110  CA        53.4940   18.6970  117.5460 C.3   139  PRO139      0.1372
    111  C         54.7320   18.4520  118.4310 C.2   139  PRO139      0.2244
    112  O         55.4040   19.4030  118.8440 O.2   139  PRO139     -0.2868
    113  CB        53.9350   19.2270  116.1730 C.3   139  PRO139      0.0268
    114  CG        53.2440   20.5520  116.0140 C.3   139  PRO139      0.0207
    115  CD        53.0240   21.0600  117.4050 C.3   139  PRO139      0.0892
    116  N         58.2960   15.7590  119.0620 N.3   141  VAL141     -0.1245
    117  CA        59.1650   14.7320  118.5250 C.3   141  VAL141      0.1561
    118  C         59.8720   14.1090  119.7240 C.2   141  VAL141      0.2260
    119  O         60.4470   14.8350  120.5390 O.2   141  VAL141     -0.2867
    120  CB        60.2520   15.3060  117.5920 C.3   141  VAL141      0.0252
    121  CG1       61.3080   14.2390  117.3160 C.3   141  VAL141      0.0019
    122  CG2       59.6370   15.7500  116.2980 C.3   141  VAL141      0.0019
    123  N         62.2320   17.4760  110.7120 N.3   152  VAL152     -0.1245
    124  CA        60.8420   17.7250  110.3580 C.3   152  VAL152      0.1561
    125  C         60.6900   18.8880  109.3850 C.2   152  VAL152      0.2260
    126  O         61.5850   19.7190  109.2510 O.2   152  VAL152     -0.2867
    127  CB        59.9970   18.0510  111.6180 C.3   152  VAL152      0.0252
    128  CG1       60.0100   16.8790  112.5770 C.3   152  VAL152      0.0019
    129  CG2       60.5490   19.2890  112.3090 C.3   152  VAL152      0.0019
    130  N         58.5380   22.2360  108.3980 N.3   154  VAL154     -0.1231
    131  CA        57.6930   23.2770  108.9620 C.3   154  VAL154      0.1678
    132  C         57.1930   24.1110  107.7750 C.2   154  VAL154      0.2434
    133  O         57.9790   24.5860  106.9670 O.2   154  VAL154     -0.2733
    134  CB        58.4980   24.1550  109.8900 C.3   154  VAL154      0.0265
    135  CG1       57.6560   25.2990  110.3860 C.3   154  VAL154      0.0020
    136  CG2       58.9890   23.3300  111.0380 C.3   154  VAL154      0.0020
    137  N         55.8760   24.2930  107.6510 N.am  155  PRO155     -0.2729
    138  CA        55.3220   25.0720  106.5340 C.3   155  PRO155      0.1401
    139  C         55.5070   26.5950  106.7220 C.2   155  PRO155      0.2269
    140  O         56.0250   27.0350  107.7540 O.2   155  PRO155     -0.2865
    141  CB        53.8540   24.6520  106.5440 C.3   155  PRO155      0.0296
    142  CG        53.5660   24.5560  108.0360 C.3   155  PRO155      0.0237
    143  CD        54.8280   23.9040  108.6150 C.3   155  PRO155      0.0939
    144  N         54.4380   29.7850  107.9490 N.3   157  MET157     -0.1245
    145  CA        53.4490   30.0930  108.9790 C.3   157  MET157      0.1570
    146  C         53.0710   31.5130  109.3050 C.2   157  MET157      0.2261
    147  O         52.3070   31.7470  110.2320 O.2   157  MET157     -0.2867
    148  CB        53.8940   29.4260  110.2790 C.3   157  MET157      0.0387
    149  CG        54.1010   27.9340  110.1080 C.3   157  MET157      0.0595
    150  SD        54.4700   27.0490  111.6310 S.3   157  MET157     -0.1393
    151  CE        56.1460   27.6310  111.9630 C.3   157  MET157      0.0692
    152  N         57.8300   36.3150  105.1180 N.3   163  TYR163     -0.1241
    153  CA        58.5390   36.7450  106.3200 C.3   163  TYR163      0.1605
    154  C         59.2590   38.0030  105.8520 C.2   163  TYR163      0.2264
    155  O         59.5410   38.1420  104.6470 O.2   163  TYR163     -0.2867
    156  CB        59.5910   35.7300  106.7460 C.3   163  TYR163      0.0534
    157  CG        59.0310   34.3990  107.1510 C.ar  163  TYR163     -0.0201
    158  CD1       58.1040   34.3040  108.1850 C.ar  163  TYR163     -0.0009
    159  CD2       59.4290   33.2280  106.5030 C.ar  163  TYR163     -0.0009
    160  CE1       57.5820   33.0730  108.5660 C.ar  163  TYR163      0.0417
    161  CE2       58.9140   31.9910  106.8710 C.ar  163  TYR163      0.0417
    162  CZ        57.9890   31.9250  107.9040 C.ar  163  TYR163      0.1957
    163  OH        57.4540   30.7180  108.2680 O.3   163  TYR163     -0.2866
    164  N         62.5800   40.4820  106.6190 N.3   165  TRP165     -0.1241
    165  CA        63.7900   40.7300  107.3850 C.3   165  TRP165      0.1605
    166  C         63.9160   42.1960  107.7840 C.2   165  TRP165      0.2264
    167  O         64.6870   42.5510  108.6710 O.2   165  TRP165     -0.2867
    168  CB        64.9910   40.2630  106.5560 C.3   165  TRP165      0.0550
    169  CG        64.8200   38.8420  106.0250 C.ar  165  TRP165      0.0003
    170  CD1       65.0770   38.4070  104.7540 C.ar  165  TRP165      0.0946
    171  CD2       64.3490   37.6910  106.7500 C.ar  165  TRP165      0.0152
    172  NE1       64.7980   37.0620  104.6410 N.ar  165  TRP165     -0.2442
    173  CE2       64.3490   36.5980  105.8470 C.ar  165  TRP165      0.0810
    174  CE3       63.9260   37.4780  108.0690 C.ar  165  TRP165      0.0012
    175  CZ2       63.9400   35.3110  106.2220 C.ar  165  TRP165      0.0191
    176  CZ3       63.5160   36.1940  108.4450 C.ar  165  TRP165      0.0001
    177  CH2       63.5270   35.1300  107.5210 C.ar  165  TRP165      0.0015
    178  N         56.7140   37.6820  111.9760 N.3   190  ASN190     -0.1240
    179  CA        57.8480   36.7660  111.9020 C.3   190  ASN190      0.1653
    180  C         57.9650   35.9670  113.1920 C.2   190  ASN190      0.2266
    181  O         58.7260   35.0070  113.2520 O.2   190  ASN190     -0.2867
    182  CB        59.1770   37.5070  111.7240 C.3   190  ASN190      0.1155
    183  CG        59.2780   38.2410  110.4210 C.2   190  ASN190      0.2627
    184  OD1       58.6830   37.8580  109.4120 O.2   190  ASN190     -0.2716
    185  ND2       60.0530   39.3030  110.4270 N.am  190  ASN190     -0.0877
    186  N         57.2850   33.3250  115.4030 N.3   192  MET192     -0.1245
    187  CA        56.7190   31.9860  115.3490 C.3   192  MET192      0.1570
    188  C         56.5590   31.2260  116.6650 C.2   192  MET192      0.2261
    189  O         56.2510   30.0310  116.6530 O.2   192  MET192     -0.2867
    190  CB        57.5220   31.1410  114.3610 C.3   192  MET192      0.0387
    191  CG        57.4660   31.6860  112.9610 C.3   192  MET192      0.0595
    192  SD        55.7570   31.7200  112.2710 S.3   192  MET192     -0.1393
    193  CE        55.2830   33.4160  112.7850 C.3   192  MET192      0.0692
    194  N         60.2160   27.0070  120.9870 N.3   195  PHE195     -0.1241
    195  CA        60.6640   25.6520  120.6880 C.3   195  PHE195      0.1605
    196  C         61.0650   25.1290  122.0640 C.2   195  PHE195      0.2264
    197  O         61.9540   25.6940  122.7050 O.2   195  PHE195     -0.2867
    198  CB        61.8780   25.6620  119.8050 C.3   195  PHE195      0.0534
    199  CG        62.4690   24.3230  119.6290 C.ar  195  PHE195     -0.0203
    200  CD1       61.9230   23.4320  118.7150 C.ar  195  PHE195     -0.0042
    201  CD2       63.5530   23.9250  120.4130 C.ar  195  PHE195     -0.0042
    202  CE1       62.4500   22.1540  118.5830 C.ar  195  PHE195     -0.0003
    203  CE2       64.0940   22.6470  120.2960 C.ar  195  PHE195     -0.0003
    204  CZ        63.5420   21.7570  119.3780 C.ar  195  PHE195     -0.0000
    205  N         68.6310   24.7590  109.8320 N.3   215  MET215     -0.1245
    206  CA        67.4410   25.0200  109.0410 C.3   215  MET215      0.1570
    207  C         67.7770   25.0750  107.5730 C.2   215  MET215      0.2261
    208  O         68.7340   25.7350  107.1630 O.2   215  MET215     -0.2867
    209  CB        66.7720   26.3370  109.4370 C.3   215  MET215      0.0387
    210  CG        65.6910   26.7490  108.4210 C.3   215  MET215      0.0595
    211  SD        64.8960   28.2920  108.8050 S.3   215  MET215     -0.1393
    212  CE        65.9390   29.4310  107.9480 C.3   215  MET215      0.0692
@<TRIPOS>BOND
     1    48    51    1
     2    48    47    1
     3    48    49    1
     4    51    52    1
     5    49    50    2
     6    52    54   ar
     7    52    53   ar
     8    54    56   ar
     9   172   170   ar
    10   172   173   ar
    11   155   154    2
    12    56    57   ar
    13    53    55   ar
    14   170   169   ar
    15   152   153    1
    16    58    59    1
    17   173   175   ar
    18   173   171   ar
    19   154   153    1
    20    57    55   ar
    21   169   168    1
    22   169   171   ar
    23    59    60    1
    24    59    62    1
    25   175   177   ar
    26   153   156    1
    27   159   161   ar
    28   159   157   ar
    29   138   141    1
    30   138   139    1
    31   138   137    1
    32   141   142    1
    33   168   165    1
    34   164   165    1
    35   139   140    2
    36   156   157    1
    37   171   174   ar
    38    60    61    2
    39   161   162   ar
    40   133   132    2
    41   157   158   ar
    42   208   207    2
    43   165   166    1
    44   177   176   ar
    45   207   206    1
    46   137   132   am
    47   137   143    1
    48   132   131    1
    49   166   167    2
    50   162   163    1
    51   162   160   ar
    52   212   211    1
    53   144   145    1
    54   142   143    1
    55   174   176   ar
    56   158   160   ar
    57   130   131    1
    58   210   211    1
    59   210   209    1
    60   131   134    1
    61   145   146    1
    62   145   148    1
    63   206   209    1
    64   206   205    1
    65   126   125    2
    66   146   147    2
    67   125   124    1
    68   184   183    2
    69    63    64    1
    70   134   135    1
    71   134   136    1
    72   149   148    1
    73   149   150    1
    74   124   123    1
    75   124   127    1
    76    46    45    1
    77   183   185   am
    78   183   182    1
    79    45    44    1
    80    64    65    1
    81    64    67    1
    82    71    69   ar
    83    71    73   ar
    84    69    68   ar
    85    65    66    2
    86    73    72   ar
    87   127   129    1
    88   127   128    1
    89   150   151    1
    90    37    36    1
    91   182   179    1
    92    68    67    1
    93    68    70   ar
    94   179   178    1
    95   179   180    1
    96    34    33    2
    97    72    70   ar
    98   192   193    1
    99   192   191    1
   100    35    36    1
   101    35    32    1
   102    44    43    1
   103    36    38    1
   104   191   190    1
   105    33    32    1
   106    33    39   am
   107   180   181    2
   108    43    40    1
   109    40    39    1
   110    40    41    1
   111    32    31    1
   112    74    75    1
   113    41    42    2
   114   190   187    1
   115    31    25   am
   116    82    80   ar
   117    82    84   ar
   118    80    79   ar
   119   108   107    1
   120   106   107   ar
   121   106   104   ar
   122    84    83   ar
   123   187   186    1
   124   187   188    1
   125    75    76    1
   126    75    78    1
   127    21    19    1
   128   107   105   ar
   129    76    77    2
   130    25    26    2
   131    25    24    1
   132   104   102   ar
   133    29    28   ar
   134    79    78    1
   135    79    81   ar
   136   114   113    1
   137   114   115    1
   138   113   110    1
   139   122   120    1
   140    83    81   ar
   141    24    23    1
   142    24    27    1
   143   105   103   ar
   144   189   188    2
   145    18    17    2
   146   102   103   ar
   147   102   101    1
   148    28    30   ar
   149    28    27    1
   150    19    20    1
   151    19    16    1
   152    23    17   am
   153    17    16    1
   154   121   120    1
   155   115   109    1
   156    14    13   ar
   157    14    12   ar
   158   101    98    1
   159   110   109    1
   160   110   111    1
   161   120   117    1
   162    20    22    1
   163    13    11   ar
   164    16    15    1
   165    12    10   ar
   166   111   112    2
   167   117   116    1
   168   117   118    1
   169   202   200   ar
   170   202   204   ar
   171   200   199   ar
   172    94    92   ar
   173    94    95   ar
   174    92    90   ar
   175    98    97    1
   176    98    99    1
   177    11     8   ar
   178   204   203   ar
   179   100    99    2
   180   199   198    1
   181   199   201   ar
   182    10     8   ar
   183    10     9   ar
   184   118   119    2
   185   198   195    1
   186    96    95    1
   187    95    93   ar
   188    89    90    1
   189    89    86    1
   190    90    91   ar
   191     8     6   ar
   192   203   201   ar
   193    88    87    2
   194   195   194    1
   195   195   196    1
   196     9     7   ar
   197    87    86    1
   198    93    91   ar
   199    86    85    1
   200     4     3    2
   201     6     7   ar
   202     6     5    1
   203   196   197    2
   204     3     2    1
   205     5     2    1
   206     2     1    1
