@<TRIPOS>MOLECULE
tmp/5c8gA00.pdb
 117 112 0 0 0
SMALL
GASTEIGER

@<TRIPOS>ATOM
      1  N         34.5860   11.8060  -27.0100 N.3    37  TYR37      -0.1227
      2  CA        34.6700   12.3650  -25.6720 C.3    37  TYR37       0.1736
      3  C         33.7970   11.6290  -24.6560 C.2    37  TYR37       0.2595
      4  O         33.8190   11.9510  -23.4630 O.2    37  TYR37      -0.2718
      5  CB        34.3250   13.8550  -25.7230 C.3    37  TYR37       0.0548
      6  CG        35.5670   14.6390  -26.0860 C.ar   37  TYR37      -0.0200
      7  CD1       35.9250   14.8430  -27.4210 C.ar   37  TYR37      -0.0009
      8  CD2       36.4190   15.1020  -25.0930 C.ar   37  TYR37      -0.0009
      9  CE1       37.1010   15.5490  -27.7620 C.ar   37  TYR37       0.0417
     10  CE2       37.5890   15.8000  -25.4080 C.ar   37  TYR37       0.0417
     11  CZ        37.9230   16.0060  -26.7420 C.ar   37  TYR37       0.1957
     12  OH        39.0750   16.6770  -27.0540 O.3    37  TYR37      -0.2866
     13  N         33.0650   10.6190  -25.1200 N.am   38  PHE38      -0.1976
     14  CA        32.1370    9.9060  -24.2360 C.3    38  PHE38       0.1639
     15  C         32.5110    8.4610  -23.9950 C.2    38  PHE38       0.2290
     16  O         31.8010    7.7520  -23.2860 O.2    38  PHE38      -0.2864
     17  CB        30.7310    9.9960  -24.8140 C.3    38  PHE38       0.0560
     18  CG        30.3630   11.3860  -25.1730 C.ar   38  PHE38      -0.0200
     19  CD1       30.2460   12.3460  -24.1760 C.ar   38  PHE38      -0.0042
     20  CD2       30.1970   11.7590  -26.4860 C.ar   38  PHE38      -0.0042
     21  CE1       29.9320   13.6560  -24.4800 C.ar   38  PHE38      -0.0003
     22  CE2       29.8910   13.0820  -26.8040 C.ar   38  PHE38      -0.0003
     23  CZ        29.7570   14.0220  -25.8020 C.ar   38  PHE38      -0.0000
     24  N         35.5660    7.1080  -22.5590 N.3    40  GLU40      -0.1245
     25  CA        36.2340    6.8120  -21.2850 C.3    40  GLU40       0.1567
     26  C         35.9030    7.8320  -20.1960 C.2    40  GLU40       0.2260
     27  O         35.6680    8.9920  -20.5010 O.2    40  GLU40      -0.2867
     28  CB        37.7510    6.7740  -21.4900 C.3    40  GLU40       0.0388
     29  CG        38.2120    5.8930  -22.6460 C.3    40  GLU40       0.1160
     30  CD        37.9280    4.4110  -22.4140 C.2    40  GLU40       0.3649
     31  OE1       37.7880    3.9960  -21.2410 O.co2  40  GLU40      -0.2457
     32  OE2       37.8360    3.6670  -23.4120 O.co2  40  GLU40      -0.2457
     33  N         36.4610   10.6810  -17.5600 N.3    42  VAL42      -0.1245
     34  CA        37.4610   11.7340  -17.5940 C.3    42  VAL42       0.1561
     35  C         38.1160   11.9050  -16.2260 C.2    42  VAL42       0.2260
     36  O         37.4530   11.8500  -15.1980 O.2    42  VAL42      -0.2867
     37  CB        36.8510   13.0840  -18.0390 C.3    42  VAL42       0.0252
     38  CG1       38.0160   13.9860  -18.4520 C.3    42  VAL42       0.0019
     39  CG2       35.9500   12.8170  -19.2450 C.3    42  VAL42       0.0019
     40  N         38.9410   14.4770  -14.4050 N.3    44  ALA44      -0.1245
     41  CA        38.5890   15.8980  -14.4960 C.3    44  ALA44       0.1562
     42  C         39.6830   16.8320  -13.9730 C.2    44  ALA44       0.2260
     43  O         39.9700   17.8730  -14.5780 O.2    44  ALA44      -0.2867
     44  CB        37.2870   16.1590  -13.7570 C.3    44  ALA44       0.0290
     45  N         42.9170   16.2330  -13.7070 N.3    46  ARG46      -0.1231
     46  CA        44.0740   16.1880  -14.6010 C.3    46  ARG46       0.1694
     47  C         43.8950   17.0520  -15.8570 C.2    46  ARG46       0.2592
     48  O         44.8480   17.6620  -16.3170 O.2    46  ARG46      -0.2718
     49  CB        44.3760   14.7510  -15.0200 C.3    46  ARG46       0.0321
     50  CG        45.6430   14.6030  -15.8140 C.3    46  ARG46       0.0489
     51  CD        46.0630   13.1480  -15.9680 C.3    46  ARG46       0.2205
     52  NE        46.1990   12.4490  -14.6910 N.pl3  46  ARG46      -0.0865
     53  CZ        47.0370   12.7930  -13.7100 C.cat  46  ARG46       0.5346
     54  NH1       47.8240   13.8590  -13.8340 N.pl3  46  ARG46       0.1354
     55  NH2       47.0740   12.0700  -12.5920 N.pl3  46  ARG46       0.1354
     56  N         42.6920   17.0950  -16.4210 N.am   47  VAL47      -0.1966
     57  CA        42.4680   17.9160  -17.6180 C.3    47  VAL47       0.1727
     58  C         41.9820   19.3300  -17.2820 C.2    47  VAL47       0.2617
     59  O         41.5370   20.0740  -18.1590 O.2    47  VAL47      -0.2715
     60  CB        41.4620   17.2540  -18.5830 C.3    47  VAL47       0.0290
     61  CG1       41.9540   15.8670  -18.9740 C.3    47  VAL47       0.0023
     62  CG2       40.0630   17.1790  -17.9710 C.3    47  VAL47       0.0023
     63  N         42.0790   19.7090  -16.0140 N.am   48  GLY48      -0.1940
     64  CA        41.7150   21.0570  -15.6230 C.3    48  GLY48       0.2014
     65  C         40.2370   21.3960  -15.7350 C.2    48  GLY48       0.2638
     66  O         39.8860   22.5580  -15.9420 O.2    48  GLY48      -0.2714
     67  N         39.3640   20.4010  -15.6070 N.am   49  ALA49      -0.1977
     68  CA        37.9430   20.6920  -15.4610 C.3    49  ALA49       0.1597
     69  C         37.6270   20.7010  -13.9740 C.2    49  ALA49       0.2287
     70  O         36.9510   19.8000  -13.4750 O.2    49  ALA49      -0.2864
     71  CB        37.0890   19.6790  -16.1840 C.3    49  ALA49       0.0319
     72  N         34.2000   19.8420  -12.1340 N.3    52  TYR52      -0.1241
     73  CA        33.3810   18.8150  -12.7910 C.3    52  TYR52       0.1605
     74  C         32.5960   17.9640  -11.8010 C.2    52  TYR52       0.2264
     75  O         31.4040   17.7550  -11.9860 O.2    52  TYR52      -0.2867
     76  CB        34.2280   17.8900  -13.6780 C.3    52  TYR52       0.0534
     77  CG        33.3760   16.9420  -14.5140 C.ar   52  TYR52      -0.0201
     78  CD1       32.7170   17.3990  -15.6470 C.ar   52  TYR52      -0.0009
     79  CD2       33.2070   15.6010  -14.1530 C.ar   52  TYR52      -0.0009
     80  CE1       31.9320   16.5510  -16.4220 C.ar   52  TYR52       0.0417
     81  CE2       32.4100   14.7390  -14.9260 C.ar   52  TYR52       0.0417
     82  CZ        31.7820   15.2280  -16.0560 C.ar   52  TYR52       0.1957
     83  OH        30.9910   14.4070  -16.8360 O.3    52  TYR52      -0.2866
     84  N         26.8790   15.8390  -20.2950 N.3    92  CYS92      -0.1235
     85  CA        27.5440   16.6610  -21.2960 C.3    92  CYS92       0.1677
     86  C         26.8500   18.0050  -21.5260 C.2    92  CYS92       0.2270
     87  O         27.4990   19.0440  -21.5480 O.2    92  CYS92      -0.2867
     88  CB        27.6440   15.9160  -22.6300 C.3    92  CYS92       0.0956
     89  SG        28.4680   16.8960  -23.9000 S.3    92  CYS92      -0.0801
     90  N         27.2430   20.2790  -18.2790 N.3    95  TYR95      -0.1227
     91  CA        28.5570   20.8730  -18.0500 C.3    95  TYR95       0.1736
     92  C         29.0820   21.7410  -19.2070 C.2    95  TYR95       0.2595
     93  O         29.6930   22.7920  -18.9890 O.2    95  TYR95      -0.2718
     94  CB        29.5700   19.7730  -17.7460 C.3    95  TYR95       0.0548
     95  CG        30.8440   20.3110  -17.1500 C.ar   95  TYR95      -0.0200
     96  CD1       30.8770   20.7610  -15.8370 C.ar   95  TYR95      -0.0009
     97  CD2       32.0100   20.3880  -17.9010 C.ar   95  TYR95      -0.0009
     98  CE1       32.0430   21.2690  -15.2790 C.ar   95  TYR95       0.0417
     99  CE2       33.1810   20.8920  -17.3560 C.ar   95  TYR95       0.0417
    100  CZ        33.1910   21.3300  -16.0430 C.ar   95  TYR95       0.1957
    101  OH        34.3540   21.8290  -15.4920 O.3    95  TYR95      -0.2866
    102  N         28.8620   21.3060  -20.4370 N.am   96  ASN96      -0.1974
    103  CA        29.4160   22.0270  -21.5810 C.3    96  ASN96       0.1688
    104  C         28.4200   22.9630  -22.2580 C.2    96  ASN96       0.2292
    105  O         28.7900   23.7420  -23.1390 O.2    96  ASN96      -0.2864
    106  CB        29.9690   21.0300  -22.5960 C.3    96  ASN96       0.1181
    107  CG        30.9660   20.0750  -21.9790 C.2    96  ASN96       0.2629
    108  OD1       32.1020   20.4470  -21.6890 O.2    96  ASN96      -0.2716
    109  ND2       30.5460   18.8320  -21.7660 N.am   96  ASN96      -0.0877
    110  N         30.5280   19.6350  -28.3270 N.3   102  LEU102     -0.1245
    111  CA        30.4990   18.4060  -27.5380 C.3   102  LEU102      0.1561
    112  C         29.0640   17.9340  -27.3420 C.2   102  LEU102      0.2260
    113  O         28.7490   16.7600  -27.5440 O.2   102  LEU102     -0.2867
    114  CB        31.1710   18.6150  -26.1830 C.3   102  LEU102      0.0270
    115  CG        32.6940   18.5310  -26.1560 C.3   102  LEU102      0.0019
    116  CD1       33.1720   18.7490  -24.7470 C.3   102  LEU102      0.0001
    117  CD2       33.1660   17.1830  -26.6610 C.3   102  LEU102      0.0001
@<TRIPOS>BOND
     1   110   111    1
     2     9     7   ar
     3     9    11   ar
     4   113   112    2
     5   111   112    1
     6   111   114    1
     7     7     6   ar
     8    12    11    1
     9     1     2    1
    10    22    20   ar
    11    22    23   ar
    12    11    10   ar
    13   117   115    1
    14    20    18   ar
    15   114   115    1
    16   115   116    1
    17     6     5    1
    18     6     8   ar
    19    23    21   ar
    20     5     2    1
    21     2     3    1
    22    10     8   ar
    23    18    17    1
    24    18    19   ar
    25    13     3   am
    26    13    14    1
    27    17    14    1
    28     3     4    2
    29    21    19   ar
    30    14    15    1
    31    15    16    2
    32    89    88    1
    33    32    30   ar
    34   105   104    2
    35    29    30    1
    36    29    28    1
    37    88    85    1
    38   106   107    1
    39   106   103    1
    40    24    25    1
    41    30    31   ar
    42   104   103    1
    43   107   109   am
    44   107   108    2
    45   103   102    1
    46    87    86    2
    47    86    85    1
    48    28    25    1
    49    85    84    1
    50    25    26    1
    51    27    26    2
    52   102    92   am
    53    39    37    1
    54    92    93    2
    55    92    91    1
    56    61    60    1
    57    60    62    1
    58    60    57    1
    59    38    37    1
    60    90    91    1
    61    59    58    2
    62    91    94    1
    63    37    34    1
    64    97    99   ar
    65    97    95   ar
    66    94    95    1
    67    57    58    1
    68    57    56    1
    69    34    33    1
    70    34    35    1
    71    99   100   ar
    72    58    63   am
    73    95    96   ar
    74    83    82    1
    75    80    82   ar
    76    80    78   ar
    77    56    47   am
    78    48    47    2
    79    35    36    2
    80    71    68    1
    81    82    81   ar
    82   100   101    1
    83   100    98   ar
    84    63    64    1
    85    51    50    1
    86    51    52    1
    87    66    65    2
    88    47    46    1
    89    96    98   ar
    90    50    49    1
    91    65    64    1
    92    65    67   am
    93    78    77   ar
    94    67    68    1
    95    68    69    1
    96    49    46    1
    97    81    79   ar
    98    52    53    2
    99    46    45    1
   100    43    42    2
   101    77    79   ar
   102    77    76    1
   103    41    40    1
   104    41    42    1
   105    41    44    1
   106    69    70    2
   107    54    53    1
   108    53    55    1
   109    76    73    1
   110    73    72    1
   111    73    74    1
   112    75    74    2
