@<TRIPOS>MOLECULE
tmp/5c8gB00.pdb
 112 108 0 0 0
SMALL
GASTEIGER

@<TRIPOS>ATOM
      1  N         26.5910   -9.8480    4.8260 N.3    34  TYR34      -0.1227
      2  CA        26.9140  -10.3230    3.4850 C.3    34  TYR34       0.1736
      3  C         25.7790  -10.1260    2.4880 C.2    34  TYR34       0.2595
      4  O         25.9070  -10.5060    1.3280 O.2    34  TYR34      -0.2718
      5  CB        27.3510  -11.7840    3.5540 C.3    34  TYR34       0.0548
      6  CG        28.7870  -11.8270    3.9790 C.ar   34  TYR34      -0.0200
      7  CD1       29.1410  -11.7400    5.3250 C.ar   34  TYR34      -0.0009
      8  CD2       29.7980  -11.8420    3.0280 C.ar   34  TYR34      -0.0009
      9  CE1       30.4710  -11.7140    5.7080 C.ar   34  TYR34       0.0417
     10  CE2       31.1150  -11.8140    3.3950 C.ar   34  TYR34       0.0417
     11  CZ        31.4530  -11.7610    4.7270 C.ar   34  TYR34       0.1957
     12  OH        32.7830  -11.7360    5.0600 O.3    34  TYR34      -0.2866
     13  N         24.6860   -9.5060    2.9340 N.am   35  PHE35      -0.1976
     14  CA        23.5080   -9.3400    2.0750 C.3    35  PHE35       0.1639
     15  C         23.1640   -7.8770    1.8100 C.2    35  PHE35       0.2290
     16  O         22.1890   -7.5660    1.1070 O.2    35  PHE35      -0.2864
     17  CB        22.3210  -10.0720    2.6910 C.3    35  PHE35       0.0560
     18  CG        22.6330  -11.4890    3.0320 C.ar   35  PHE35      -0.0200
     19  CD1       22.8510  -12.4180    2.0200 C.ar   35  PHE35      -0.0042
     20  CD2       22.7670  -11.8840    4.3510 C.ar   35  PHE35      -0.0042
     21  CE1       23.1640  -13.7350    2.3230 C.ar   35  PHE35      -0.0003
     22  CE2       23.0850  -13.1990    4.6710 C.ar   35  PHE35      -0.0003
     23  CZ        23.2960  -14.1270    3.6560 C.ar   35  PHE35      -0.0000
     24  N         25.0620   -5.3540    0.1260 N.3    37  GLU37      -0.1245
     25  CA        25.4360   -4.7030   -1.1420 C.3    37  GLU37       0.1567
     26  C         25.5600   -5.7230   -2.2640 C.2    37  GLU37       0.2260
     27  O         25.8670   -6.8890   -2.0140 O.2    37  GLU37      -0.2867
     28  CB        26.7580   -3.9440   -0.9950 C.3    37  GLU37       0.0388
     29  CG        26.8200   -2.9540    0.1600 C.3    37  GLU37       0.1160
     30  CD        25.9000   -1.7610   -0.0260 C.2    37  GLU37       0.3649
     31  OE1       25.5670   -1.4380   -1.1850 O.co2  37  GLU37      -0.2457
     32  OE2       25.4950   -1.1590    0.9910 O.co2  37  GLU37      -0.2457
     33  N         26.9600   -8.0760   -5.0970 N.3    39  VAL39      -0.1245
     34  CA        28.2080   -8.8120   -5.1630 C.3    39  VAL39       0.1561
     35  C         29.1070   -8.2810   -6.2710 C.2    39  VAL39       0.2260
     36  O         28.6770   -8.1790   -7.4290 O.2    39  VAL39      -0.2867
     37  CB        27.9340  -10.3050   -5.4070 C.3    39  VAL39       0.0252
     38  CG1       29.2250  -11.0610   -5.6640 C.3    39  VAL39       0.0019
     39  CG2       27.1500  -10.8990   -4.2370 C.3    39  VAL39       0.0019
     40  N         36.0980   -8.6670   -7.3160 N.3    43  ARG43      -0.1231
     41  CA        36.6670   -8.2590   -6.0390 C.3    43  ARG43       0.1694
     42  C         36.6730   -9.4160   -5.0290 C.2    43  ARG43       0.2592
     43  O         37.6460   -9.6010   -4.3110 O.2    43  ARG43      -0.2718
     44  CB        35.8870   -7.0680   -5.4630 C.3    43  ARG43       0.0321
     45  CG        36.2780   -6.6760   -4.0420 C.3    43  ARG43       0.0489
     46  CD        35.2720   -5.6440   -3.5450 C.3    43  ARG43       0.2205
     47  NE        35.6420   -4.3290   -4.0480 N.pl3  43  ARG43      -0.0865
     48  CZ        34.7710   -3.3160   -4.1670 C.cat  43  ARG43       0.5346
     49  NH1       33.4710   -3.4580   -3.8760 N.pl3  43  ARG43       0.1354
     50  NH2       35.2260   -2.1440   -4.6230 N.pl3  43  ARG43       0.1354
     51  N         35.5920  -10.1930   -4.9810 N.am   44  VAL44      -0.1966
     52  CA        35.4900  -11.2780   -3.9920 C.3    44  VAL44       0.1727
     53  C         35.9870  -12.6300   -4.5170 C.2    44  VAL44       0.2617
     54  O         36.0580  -13.6140   -3.7760 O.2    44  VAL44      -0.2715
     55  CB        34.0410  -11.4350   -3.4750 C.3    44  VAL44       0.0290
     56  CG1       33.4790  -10.0860   -3.0750 C.3    44  VAL44       0.0023
     57  CG2       33.1380  -12.1270   -4.4990 C.3    44  VAL44       0.0023
     58  N         36.3400  -12.6830   -5.7900 N.am   45  GLY45      -0.1940
     59  CA        36.8670  -13.9010   -6.3780 C.3    45  GLY45       0.2014
     60  C         35.8240  -14.9350   -6.7500 C.2    45  GLY45       0.2638
     61  O         36.1740  -16.0480   -7.1350 O.2    45  GLY45      -0.2714
     62  N         34.5470  -14.5730   -6.6360 N.am   46  ALA46      -0.1977
     63  CA        33.4590  -15.4560   -7.0480 C.3    46  ALA46       0.1597
     64  C         33.1920  -15.2860   -8.5510 C.2    46  ALA46       0.2287
     65  O         32.1580  -14.7530   -8.9750 O.2    46  ALA46      -0.2864
     66  CB        32.2000  -15.1750   -6.2190 C.3    46  ALA46       0.0319
     67  N         29.7790  -16.2020  -10.1300 N.3    49  TYR49      -0.1241
     68  CA        28.5770  -15.8630   -9.3730 C.3    49  TYR49       0.1605
     69  C         27.4170  -15.4530  -10.2910 C.2    49  TYR49       0.2264
     70  O         26.2810  -15.8980  -10.1180 O.2    49  TYR49      -0.2867
     71  CB        28.8590  -14.7470   -8.3570 C.3    49  TYR49       0.0534
     72  CG        27.6550  -14.4420   -7.4750 C.ar   49  TYR49      -0.0201
     73  CD1       27.3640  -15.2400   -6.3650 C.ar   49  TYR49      -0.0009
     74  CD2       26.8030  -13.3810   -7.7690 C.ar   49  TYR49      -0.0009
     75  CE1       26.2540  -14.9680   -5.5430 C.ar   49  TYR49       0.0417
     76  CE2       25.6910  -13.1060   -6.9790 C.ar   49  TYR49       0.0417
     77  CZ        25.4300  -13.8990   -5.8620 C.ar   49  TYR49       0.1957
     78  OH        24.3470  -13.6170   -5.0920 O.3    49  TYR49      -0.2866
     79  N         21.4040  -16.8770   -2.0830 N.3    89  CYS89      -0.1235
     80  CA        22.4300  -17.3300   -1.1580 C.3    89  CYS89       0.1677
     81  C         22.4470  -18.8500   -1.0440 C.2    89  CYS89       0.2270
     82  O         23.5010  -19.4790   -1.1180 O.2    89  CYS89      -0.2867
     83  CB        22.2260  -16.7150    0.2150 C.3    89  CYS89       0.0956
     84  SG        23.4050  -17.3340    1.4440 S.3    89  CYS89      -0.0801
     85  N         23.6920  -20.4720   -4.4690 N.3    92  TYR92      -0.1227
     86  CA        25.1250  -20.3890   -4.7670 C.3    92  TYR92       0.1736
     87  C         25.9470  -21.1330   -3.7190 C.2    92  TYR92       0.2595
     88  O         26.8860  -21.8540   -4.0570 O.2    92  TYR92      -0.2718
     89  CB        25.6030  -18.9250   -4.8630 C.3    92  TYR92       0.0548
     90  CG        27.0580  -18.8110   -5.2930 C.ar   92  TYR92      -0.0200
     91  CD1       27.4190  -18.9630   -6.6320 C.ar   92  TYR92      -0.0009
     92  CD2       28.0660  -18.5690   -4.3670 C.ar   92  TYR92      -0.0009
     93  CE1       28.7440  -18.8760   -7.0370 C.ar   92  TYR92       0.0417
     94  CE2       29.3970  -18.4790   -4.7630 C.ar   92  TYR92       0.0417
     95  CZ        29.7290  -18.6390   -6.0990 C.ar   92  TYR92       0.1957
     96  OH        31.0450  -18.5530   -6.4980 O.3    92  TYR92      -0.2866
     97  N         25.5930  -20.9640   -2.4450 N.am   93  ASN93      -0.1974
     98  CA        26.4150  -21.4950   -1.3560 C.3    93  ASN93       0.1688
     99  C         25.9670  -22.8560   -0.8210 C.2    93  ASN93       0.2292
    100  O         26.7570  -23.5570   -0.1900 O.2    93  ASN93      -0.2864
    101  CB        26.4590  -20.5060   -0.1850 C.3    93  ASN93       0.1181
    102  CG        26.9520  -19.1240   -0.5950 C.2    93  ASN93       0.2629
    103  OD1       28.1520  -18.9010   -0.7700 O.2    93  ASN93      -0.2716
    104  ND2       26.0240  -18.1800   -0.7220 N.am   93  ASN93      -0.0877
    105  N         26.6900  -19.0490    5.3230 N.3    99  LEU99      -0.1245
    106  CA        26.0190  -17.8770    4.7800 C.3    99  LEU99       0.1561
    107  C         24.5130  -18.1290    4.7430 C.2    99  LEU99       0.2260
    108  O         23.7190  -17.2400    5.0460 O.2    99  LEU99      -0.2867
    109  CB        26.5490  -17.5340    3.3840 C.3    99  LEU99       0.0270
    110  CG        27.8230  -16.6890    3.3170 C.3    99  LEU99       0.0019
    111  CD1       28.1920  -16.4030    1.8590 C.3    99  LEU99       0.0001
    112  CD2       27.6580  -15.3940    4.0880 C.3    99  LEU99       0.0001
@<TRIPOS>BOND
     1    69    70    2
     2    69    68    1
     3    67    68    1
     4    68    71    1
     5    65    64    2
     6    64    63    1
     7    71    72    1
     8    74    72   ar
     9    74    76   ar
    10    72    73   ar
    11    36    35    2
    12    40    41    1
    13    61    60    2
    14    63    62    1
    15    63    66    1
    16    93    91   ar
    17    93    95   ar
    18    76    77   ar
    19    60    62   am
    20    60    59    1
    21    91    90   ar
    22    96    95    1
    23    59    58    1
    24    73    75   ar
    25    35    34    1
    26    95    94   ar
    27    41    44    1
    28    41    42    1
    29    77    75   ar
    30    77    78    1
    31    58    53   am
    32    38    37    1
    33    44    45    1
    34    37    34    1
    35    37    39    1
    36    90    89    1
    37    90    92   ar
    38    34    33    1
    39    42    51   am
    40    42    43    2
    41    51    52    1
    42    89    86    1
    43    86    85    1
    44    86    87    1
    45    94    92   ar
    46    50    48    1
    47    53    52    1
    48    53    54    2
    49    57    55    1
    50    48    47    2
    51    48    49    1
    52    88    87    2
    53    47    46    1
    54    45    46    1
    55    52    55    1
    56    87    97   am
    57    55    56    1
    58    97    98    1
    59    26    27    2
    60    26    25    1
    61    79    80    1
    62    98    99    1
    63    98   101    1
    64    31    30   ar
    65    80    81    1
    66    80    83    1
    67    25    28    1
    68    25    24    1
    69    82    81    2
    70    28    29    1
    71    99   100    2
    72   103   102    2
    73   104   102   am
    74   102   101    1
    75    30    29    1
    76    30    32   ar
    77    83    84    1
    78    16    15    2
    79     4     3    2
    80    15    14    1
    81   111   110    1
    82    19    21   ar
    83    19    18   ar
    84    14    17    1
    85    14    13    1
    86    21    23   ar
    87     3    13   am
    88     3     2    1
    89    17    18    1
    90     8    10   ar
    91     8     6   ar
    92    18    20   ar
    93   110   109    1
    94   110   112    1
    95   109   106    1
    96    10    11   ar
    97     2     5    1
    98     2     1    1
    99     5     6    1
   100    23    22   ar
   101     6     7   ar
   102    20    22   ar
   103    11    12    1
   104    11     9   ar
   105   107   106    1
   106   107   108    2
   107   106   105    1
   108     7     9   ar
