@<TRIPOS>MOLECULE
tmp/5c8lA00.pdb
 83 75 0 0 0
SMALL
GASTEIGER

@<TRIPOS>ATOM
      1  N         25.0090   99.8380    9.7270 N.3    62  GLN62      -0.1245
      2  CA        24.4160  100.4060   10.9420 C.3    62  GLN62       0.1566
      3  C         25.2820  100.0360   12.1400 C.2    62  GLN62       0.2260
      4  O         25.6120   98.8540   12.3020 O.2    62  GLN62      -0.2867
      5  CB        23.0040   99.8520   11.1110 C.3    62  GLN62       0.0367
      6  CG        22.2430  100.4360   12.3000 C.3    62  GLN62       0.0905
      7  CD        20.7470  100.2170   12.2460 C.2    62  GLN62       0.2608
      8  OE1       19.9970  101.0720   12.6530 O.2    62  GLN62      -0.2717
      9  NE2       20.3100   99.0830   11.7810 N.am   62  GLN62      -0.0878
     10  N         25.8710   99.0900   15.9110 N.3    64  ARG64      -0.1245
     11  CA        25.0900   98.3840   16.9720 C.3    64  ARG64       0.1563
     12  C         25.8940   98.3720   18.2640 C.2    64  ARG64       0.2260
     13  O         26.8720   97.6190   18.4200 O.2    64  ARG64      -0.2867
     14  CB        24.7370   96.9620   16.5160 C.3    64  ARG64       0.0307
     15  CG        23.9000   96.9190   15.2570 C.3    64  ARG64       0.0489
     16  CD        22.4940   97.3960   15.5330 C.3    64  ARG64       0.2205
     17  NE        21.5790   96.9930   14.4950 N.pl3  64  ARG64      -0.0865
     18  CZ        20.2710   96.9440   14.6470 C.cat  64  ARG64       0.5346
     19  NH1       19.7130   97.3050   15.7810 N.pl3  64  ARG64       0.1354
     20  NH2       19.5150   96.5060   13.6490 N.pl3  64  ARG64       0.1354
     21  N         23.6890   94.9160    7.1590 N.3    73  GLU73      -0.1245
     22  CA        22.4000   94.2950    7.4430 C.3    73  GLU73       0.1567
     23  C         21.4480   94.4510    6.2610 C.2    73  GLU73       0.2260
     24  O         21.5720   95.4100    5.4910 O.2    73  GLU73      -0.2867
     25  CB        21.7260   94.9860    8.6280 C.3    73  GLU73       0.0388
     26  CG        22.5230   95.0990    9.9220 C.3    73  GLU73       0.1160
     27  CD        21.7370   95.7630   11.0410 C.2    73  GLU73       0.3649
     28  OE1       20.5500   95.4170   11.2590 O.co2  73  GLU73      -0.2457
     29  OE2       22.3080   96.6180   11.7510 O.co2  73  GLU73      -0.2457
     30  N         15.3490   96.2200    8.3210 N.3    76  ALA76      -0.1231
     31  CA        14.4580   95.5550    9.2500 C.3    76  ALA76       0.1694
     32  C         13.9060   96.5330   10.2830 C.2    76  ALA76       0.2593
     33  O         14.4240   97.6130   10.4880 O.2    76  ALA76      -0.2718
     34  CB        15.2130   94.4680    9.9710 C.3    76  ALA76       0.0304
     35  N         12.8680   96.0990   10.9670 N.am   77  GLY77      -0.1942
     36  CA        12.4580   96.7610   12.1800 C.3    77  GLY77       0.2014
     37  C         11.3740   95.9930   12.9160 C.2    77  GLY77       0.2638
     38  O         10.8810   94.9660   12.4500 O.2    77  GLY77      -0.2714
     39  N         10.9800   96.5510   14.0610 N.am   78  LYS78      -0.1977
     40  CA        10.0350   95.9320   14.9500 C.3    78  LYS78       0.1596
     41  C          8.6140   96.1200   14.4950 C.2    78  LYS78       0.2287
     42  O          8.2310   97.1310   13.9320 O.2    78  LYS78      -0.2864
     43  CB        10.1790   96.4710   16.3800 C.3    78  LYS78       0.0298
     44  CG        11.5530   96.1750   16.9630 C.3    78  LYS78       0.0038
     45  CD        11.6640   96.3490   18.4770 C.3    78  LYS78       0.0206
     46  CE        12.1540   97.7280   18.8940 C.3    78  LYS78       0.1093
     47  NZ        13.4080   97.6960   19.7130 N.3    78  LYS78      -0.1314
     48  N          9.5780   99.7790    6.8420 N.3    92  GLU92      -0.1245
     49  CA        11.0020   99.8230    7.0880 C.3    92  GLU92       0.1567
     50  C         11.8400   99.9050    5.8110 C.2    92  GLU92       0.2260
     51  O         12.8540  100.5990    5.7840 O.2    92  GLU92      -0.2867
     52  CB        11.4340   98.6390    7.9700 C.3    92  GLU92       0.0388
     53  CG        10.9440   98.7470    9.4060 C.3    92  GLU92       0.1160
     54  CD        11.5630   99.8870   10.2140 C.2    92  GLU92       0.3649
     55  OE1       12.5520  100.4860    9.7520 O.co2  92  GLU92      -0.2457
     56  OE2       11.0660  100.1400   11.3420 O.co2  92  GLU92      -0.2457
     57  N         14.1750  103.1400    5.9330 N.3    96  GLU96      -0.1245
     58  CA        15.6180  102.9410    6.0490 C.3    96  GLU96       0.1567
     59  C         16.3850  103.1250    4.7580 C.2    96  GLU96       0.2260
     60  O         17.5690  103.4630    4.7980 O.2    96  GLU96      -0.2867
     61  CB        15.9280  101.5540    6.6150 C.3    96  GLU96       0.0388
     62  CG        15.3810  101.3190    8.0060 C.3    96  GLU96       0.1160
     63  CD        16.0070  100.1130    8.7240 C.2    96  GLU96       0.3649
     64  OE1       16.3530   99.1230    8.0530 O.co2  96  GLU96      -0.2457
     65  OE2       16.1600  100.1760    9.9770 O.co2  96  GLU96      -0.2457
     66  N         18.5300  107.4470   14.8150 N.3   140  GLN140     -0.1245
     67  CA        18.7330  106.3600   13.8390 C.3   140  GLN140      0.1566
     68  C         19.6940  106.8200   12.7420 C.2   140  GLN140      0.2260
     69  O         19.5000  107.8630   12.0970 O.2   140  GLN140     -0.2867
     70  CB        17.3880  105.9550   13.2540 C.3   140  GLN140      0.0367
     71  CG        17.3760  104.6550   12.4770 C.3   140  GLN140      0.0905
     72  CD        16.0140  104.3870   11.8620 C.2   140  GLN140      0.2608
     73  OE1       15.2690  105.3220   11.5090 O.2   140  GLN140     -0.2717
     74  NE2       15.6740  103.1070   11.7280 N.am  140  GLN140     -0.0878
     75  N         20.2370   87.5160   11.1320 N.3   165  LYS165     -0.1245
     76  CA        19.0800   87.6650   10.2240 C.3   165  LYS165      0.1561
     77  C         19.5370   87.9140    8.7900 C.2   165  LYS165      0.2260
     78  O         18.9650   87.3710    7.8300 O.2   165  LYS165     -0.2867
     79  CB        18.1140   88.7780   10.6890 C.3   165  LYS165      0.0271
     80  CG        18.6620   90.1720   10.5780 C.3   165  LYS165      0.0035
     81  CD        17.6850   91.2210   11.1050 C.3   165  LYS165      0.0206
     82  CE        18.2220   92.6140   10.8850 C.3   165  LYS165      0.1093
     83  NZ        19.4080   92.9070   11.7000 N.3   165  LYS165     -0.1314
@<TRIPOS>BOND
     1    59    60    2
     2    59    58    1
     3    24    23    2
     4    51    50    2
     5    50    49    1
     6    57    58    1
     7    58    61    1
     8    23    22    1
     9    61    62    1
    10    48    49    1
    11    49    52    1
    12    21    22    1
    13    22    25    1
    14    78    77    2
    15    52    53    1
    16    62    63    1
    17    64    63   ar
    18    30    31    1
    19    25    26    1
    20    63    65   ar
    21    77    76    1
    22    31    34    1
    23    31    32    1
    24    53    54    1
    25     1     2    1
    26    55    54   ar
    27    26    27    1
    28    54    56   ar
    29    76    79    1
    30    76    75    1
    31    32    33    2
    32    32    35   am
    33    80    79    1
    34    80    81    1
    35    82    81    1
    36    82    83    1
    37     2     5    1
    38     2     3    1
    39    35    36    1
    40    27    28   ar
    41    27    29   ar
    42     5     6    1
    43    73    72    2
    44    74    72   am
    45     9     7   am
    46    72    71    1
    47    69    68    2
    48     3     4    2
    49    36    37    1
    50     7     6    1
    51     7     8    2
    52    38    37    2
    53    71    70    1
    54    68    67    1
    55    37    39   am
    56    70    67    1
    57    20    18    1
    58    67    66    1
    59    42    41    2
    60    39    40    1
    61    41    40    1
    62    17    18    2
    63    17    16    1
    64    18    19    1
    65    40    43    1
    66    15    16    1
    67    15    14    1
    68    10    11    1
    69    43    44    1
    70    14    11    1
    71    44    45    1
    72    11    12    1
    73    12    13    2
    74    45    46    1
    75    46    47    1
