@<TRIPOS>MOLECULE
tmp/5c8mA00.pdb
 170 159 0 0 0
SMALL
GASTEIGER

@<TRIPOS>ATOM
      1  N        -48.2960    4.2350  -20.6530 N.3    22  LEU22      -0.1231
      2  CA       -49.1640    3.1540  -20.1690 C.3    22  LEU22       0.1693
      3  C        -48.5180    1.7740  -20.3360 C.2    22  LEU22       0.2592
      4  O        -48.7040    0.9020  -19.4860 O.2    22  LEU22      -0.2718
      5  CB       -50.5390    3.1740  -20.8650 C.3    22  LEU22       0.0284
      6  CG       -51.4620    4.3570  -20.5780 C.3    22  LEU22       0.0019
      7  CD1      -52.5620    4.4350  -21.6100 C.3    22  LEU22       0.0001
      8  CD2      -52.0590    4.2790  -19.1820 C.3    22  LEU22       0.0001
      9  N        -47.7920    1.5910  -21.4360 N.am   23  GLY23      -0.1957
     10  CA       -47.1080    0.3470  -21.7600 C.3    23  GLY23       0.1869
     11  C        -46.1230    0.5200  -22.8950 C.2    23  GLY23       0.2309
     12  O        -46.4760    1.0630  -23.9450 O.2    23  GLY23      -0.2863
     13  N        -43.2470   -3.3810  -29.7770 N.3    27  PHE27      -0.1241
     14  CA       -44.0110   -2.5850  -30.7520 C.3    27  PHE27       0.1605
     15  C        -43.5770   -1.1100  -30.7770 C.2    27  PHE27       0.2264
     16  O        -43.4820   -0.5050  -31.8490 O.2    27  PHE27      -0.2867
     17  CB       -45.5350   -2.6940  -30.4790 C.3    27  PHE27       0.0534
     18  CG       -45.9710   -2.3680  -29.0650 C.ar   27  PHE27      -0.0203
     19  CD1      -46.3230   -1.0710  -28.7090 C.ar   27  PHE27      -0.0042
     20  CD2      -46.0460   -3.3620  -28.0950 C.ar   27  PHE27      -0.0042
     21  CE1      -46.6950   -0.7650  -27.3970 C.ar   27  PHE27      -0.0003
     22  CE2      -46.4350   -3.0580  -26.7860 C.ar   27  PHE27      -0.0003
     23  CZ       -46.7640   -1.7620  -26.4480 C.ar   27  PHE27      -0.0000
     24  N        -47.1310    3.0730  -25.7850 N.3    30  VAL30      -0.1245
     25  CA       -48.5280    3.5090  -25.6720 C.3    30  VAL30       0.1561
     26  C        -48.6230    4.5520  -24.5440 C.2    30  VAL30       0.2260
     27  O        -48.1890    4.2800  -23.4230 O.2    30  VAL30      -0.2867
     28  CB       -49.5050    2.3120  -25.4750 C.3    30  VAL30       0.0252
     29  CG1      -50.9170    2.7820  -25.1320 C.3    30  VAL30       0.0019
     30  CG2      -49.5360    1.4220  -26.7110 C.3    30  VAL30       0.0019
     31  N        -55.6230    7.1330  -25.9170 N.3    47  ALA47      -0.1245
     32  CA       -54.5080    6.2020  -25.8180 C.3    47  ALA47       0.1562
     33  C        -53.7670    6.3090  -27.1540 C.2    47  ALA47       0.2260
     34  O        -54.3340    5.9870  -28.2030 O.2    47  ALA47      -0.2867
     35  CB       -55.0100    4.7920  -25.5920 C.3    47  ALA47       0.0290
     36  N        -50.6650    5.2620  -29.5800 N.3    49  LYS49      -0.1245
     37  CA       -49.6820    4.2210  -29.8750 C.3    49  LYS49       0.1561
     38  C        -48.6930    4.6980  -30.9460 C.2    49  LYS49       0.2260
     39  O        -49.0810    4.8300  -32.1070 O.2    49  LYS49      -0.2867
     40  CB       -50.3860    2.9220  -30.3260 C.3    49  LYS49       0.0271
     41  CG       -49.4220    1.7760  -30.6380 C.3    49  LYS49       0.0035
     42  CD       -50.0610    0.6800  -31.4700 C.3    49  LYS49       0.0206
     43  CE       -49.0860   -0.4470  -31.6940 C.3    49  LYS49       0.1093
     44  NZ       -49.7290   -1.6150  -32.3470 N.3    49  LYS49      -0.1314
     45  N        -53.1810   -2.1850  -39.2740 N.3    64  GLU64      -0.1245
     46  CA       -53.8920   -2.2550  -37.9980 C.3    64  GLU64       0.1567
     47  C        -54.8630   -1.0780  -37.9280 C.2    64  GLU64       0.2260
     48  O        -55.9700   -1.2360  -37.4130 O.2    64  GLU64      -0.2867
     49  CB       -52.9130   -2.2200  -36.8150 C.3    64  GLU64       0.0388
     50  CG       -53.5360   -2.6530  -35.4960 C.3    64  GLU64       0.1160
     51  CD       -52.7800   -2.3050  -34.2250 C.2    64  GLU64       0.3649
     52  OE1      -51.7290   -1.6260  -34.3100 O.co2  64  GLU64      -0.2457
     53  OE2      -53.2550   -2.7020  -33.1360 O.co2  64  GLU64      -0.2457
     54  N        -59.0080   -1.3070  -37.4630 N.3    68  MET68      -0.1245
     55  CA       -59.5280   -0.5040  -36.3500 C.3    68  MET68       0.1570
     56  C        -60.5240    0.5750  -36.7850 C.2    68  MET68       0.2261
     57  O        -61.5040    0.8080  -36.0770 O.2    68  MET68      -0.2867
     58  CB       -58.3890    0.1120  -35.5340 C.3    68  MET68       0.0387
     59  CG       -57.7880   -0.8320  -34.5260 C.3    68  MET68       0.0595
     60  SD       -57.1170    0.0450  -33.0960 S.3    68  MET68      -0.1393
     61  CE       -58.5690    0.1970  -32.1040 C.3    68  MET68       0.0692
     62  N        -63.0870   -2.0790  -29.8170 N.3    77  CYS77      -0.1221
     63  CA       -62.2700   -0.8590  -29.8120 C.3    77  CYS77       0.1808
     64  C        -62.1220   -0.3020  -31.2220 C.2    77  CYS77       0.2601
     65  O        -61.7650   -1.0330  -32.1490 O.2    77  CYS77      -0.2717
     66  CB       -60.9140   -1.0950  -29.1530 C.3    77  CYS77       0.0970
     67  SG       -60.9790   -1.2060  -27.3470 S.3    77  CYS77      -0.0800
     68  N        -62.4230    0.9910  -31.3760 N.am   78  ARG78      -0.1979
     69  CA       -62.3810    1.7200  -32.6400 C.3    78  ARG78       0.1597
     70  C        -61.1920    2.6890  -32.6760 C.2    78  ARG78       0.2287
     71  O        -60.7480    3.1760  -31.6280 O.2    78  ARG78      -0.2864
     72  CB       -63.6950    2.5080  -32.7910 C.3    78  ARG78       0.0334
     73  CG       -64.0240    2.9580  -34.2020 C.3    78  ARG78       0.0492
     74  CD       -65.2750    3.8080  -34.2230 C.3    78  ARG78       0.2205
     75  NE       -65.3980    4.5510  -35.4770 N.pl3  78  ARG78      -0.0865
     76  CZ       -64.9230    5.7770  -35.6710 C.cat  78  ARG78       0.5346
     77  NH1      -64.2910    6.4160  -34.6940 N.pl3  78  ARG78       0.1354
     78  NH2      -65.0760    6.3740  -36.8450 N.pl3  78  ARG78       0.1354
     79  N        -56.3840    6.1830  -30.1140 N.3    92  MET92      -0.1230
     80  CA       -57.4090    5.2490  -29.6560 C.3    92  MET92       0.1702
     81  C        -58.1100    5.7660  -28.3990 C.2    92  MET92       0.2592
     82  O        -57.6370    6.7060  -27.7730 O.2    92  MET92      -0.2718
     83  CB       -56.7820    3.8700  -29.3810 C.3    92  MET92       0.0401
     84  CG       -55.8700    3.3640  -30.4880 C.3    92  MET92       0.0596
     85  SD       -54.9460    1.8670  -30.0550 S.3    92  MET92      -0.1393
     86  CE       -53.9580    2.4540  -28.6620 C.3    92  MET92       0.0692
     87  N        -59.2400    5.1480  -28.0340 N.am   93  GLN93      -0.1966
     88  CA       -60.0170    5.5120  -26.8550 C.3    93  GLN93       0.1733
     89  C        -59.3010    5.0130  -25.6000 C.2    93  GLN93       0.2616
     90  O        -58.8150    3.8810  -25.5840 O.2    93  GLN93      -0.2715
     91  CB       -61.4290    4.9050  -26.9540 C.3    93  GLN93       0.0408
     92  CG       -62.3680    5.2750  -25.8040 C.3    93  GLN93       0.0908
     93  CD       -63.5610    4.3570  -25.6820 C.2    93  GLN93       0.2608
     94  OE1      -63.5520    3.1940  -26.1060 O.2    93  GLN93      -0.2717
     95  NE2      -64.6040    4.8490  -25.0460 N.am   93  GLN93      -0.0878
     96  N        -59.2250    5.8600  -24.5550 N.am   94  LEU94      -0.1963
     97  CA       -58.6130    5.4760  -23.2870 C.3    94  LEU94       0.1728
     98  C        -59.5620    4.5360  -22.5530 C.2    94  LEU94       0.2616
     99  O        -60.7560    4.8250  -22.4300 O.2    94  LEU94      -0.2715
    100  CB       -58.2740    6.7020  -22.4180 C.3    94  LEU94       0.0311
    101  CG       -57.4700    6.4370  -21.1280 C.3    94  LEU94       0.0022
    102  CD1      -55.9900    6.1960  -21.4230 C.3    94  LEU94       0.0001
    103  CD2      -57.6110    7.5850  -20.1480 C.3    94  LEU94       0.0001
    104  N        -59.0230    3.3880  -22.1190 N.am   95  MET95      -0.1964
    105  CA       -59.7050    2.3390  -21.3600 C.3    95  MET95       0.1722
    106  C        -59.0040    2.3720  -19.9930 C.2    95  MET95       0.2458
    107  O        -57.9960    1.6890  -19.8040 O.2    95  MET95      -0.2730
    108  CB       -59.5490    0.9880  -22.0810 C.3    95  MET95       0.0427
    109  CG       -60.0490    1.0130  -23.5240 C.3    95  MET95       0.0599
    110  SD       -61.8460    1.1830  -23.7050 S.3    95  MET95      -0.1393
    111  CE       -62.3540   -0.4950  -23.4190 C.3    95  MET95       0.0692
    112  N        -59.4610    3.2650  -19.0740 N.am   96  PRO96      -0.2727
    113  CA       -58.7280    3.4970  -17.8150 C.3    96  PRO96       0.1402
    114  C        -58.3420    2.3020  -16.9580 C.2    96  PRO96       0.2269
    115  O        -57.3330    2.3910  -16.2600 O.2    96  PRO96      -0.2865
    116  CB       -59.6670    4.4130  -17.0350 C.3    96  PRO96       0.0296
    117  CG       -60.3720    5.1760  -18.0780 C.3    96  PRO96       0.0237
    118  CD       -60.6110    4.1890  -19.1810 C.3    96  PRO96       0.0939
    119  N        -57.3920   -0.7150  -17.9520 N.3    98  GLY98      -0.1210
    120  CA       -56.4700   -1.5800  -18.6850 C.3    98  GLY98       0.1956
    121  C        -57.0890   -2.8670  -19.1880 C.2    98  GLY98       0.2612
    122  O        -58.2940   -2.9120  -19.4500 O.2    98  GLY98      -0.2717
    123  N        -56.2660   -3.9240  -19.3340 N.am   99  CYS99      -0.1970
    124  CA       -56.7470   -5.2230  -19.8090 C.3    99  CYS99       0.1712
    125  C        -57.4610   -6.0000  -18.7130 C.2    99  CYS99       0.2296
    126  O        -57.1200   -5.8740  -17.5300 O.2    99  CYS99      -0.2864
    127  CB       -55.6400   -6.0430  -20.4680 C.3    99  CYS99       0.0983
    128  SG       -54.4320   -6.7470  -19.3130 S.3    99  CYS99      -0.0798
    129  N        -56.0930  -10.8450  -22.2480 N.3   143  ARG143     -0.1231
    130  CA       -55.0920   -9.7830  -22.3880 C.3   143  ARG143      0.1694
    131  C        -55.5120   -8.7780  -23.4780 C.2   143  ARG143      0.2592
    132  O        -55.0820   -7.6270  -23.4390 O.2   143  ARG143     -0.2718
    133  CB       -53.6940  -10.3750  -22.6960 C.3   143  ARG143      0.0321
    134  CG       -53.4980  -10.8730  -24.1380 C.3   143  ARG143      0.0489
    135  CD       -52.1730  -11.5740  -24.3480 C.3   143  ARG143      0.2205
    136  NE       -52.3450  -13.0150  -24.5410 N.pl3 143  ARG143     -0.0865
    137  CZ       -52.5020  -13.6030  -25.7240 C.cat 143  ARG143      0.5346
    138  NH1      -52.5240  -12.8780  -26.8360 N.pl3 143  ARG143      0.1354
    139  NH2      -52.6510  -14.9170  -25.8030 N.pl3 143  ARG143      0.1354
    140  N        -56.3250   -9.2270  -24.4610 N.am  144  ASN144     -0.1974
    141  CA       -56.7920   -8.4020  -25.5800 C.3   144  ASN144      0.1688
    142  C        -58.2420   -7.9370  -25.4210 C.2   144  ASN144      0.2292
    143  O        -58.8940   -7.5780  -26.4080 O.2   144  ASN144     -0.2864
    144  CB       -56.5610   -9.1080  -26.9140 C.3   144  ASN144      0.1181
    145  CG       -55.1070   -9.2730  -27.2600 C.2   144  ASN144      0.2629
    146  OD1      -54.2630   -8.4150  -26.9720 O.2   144  ASN144     -0.2716
    147  ND2      -54.7890  -10.3690  -27.9180 N.am  144  ASN144     -0.0877
    148  N        -60.1050   -5.0560  -23.2310 N.3   146  LEU146     -0.1245
    149  CA       -59.8810   -3.8870  -22.3780 C.3   146  LEU146      0.1561
    150  C        -61.1110   -3.4690  -21.6000 C.2   146  LEU146      0.2260
    151  O        -62.2360   -3.7390  -22.0200 O.2   146  LEU146     -0.2867
    152  CB       -59.3150   -2.7030  -23.1540 C.3   146  LEU146      0.0270
    153  CG       -57.9810   -2.9030  -23.8340 C.3   146  LEU146      0.0019
    154  CD1      -57.7130   -1.7700  -24.7150 C.3   146  LEU146      0.0001
    155  CD2      -56.8360   -3.0510  -22.8400 C.3   146  LEU146      0.0001
    156  N        -60.0490   -5.7090  -28.4170 N.3   156  THR156     -0.1203
    157  CA       -59.0310   -4.9470  -29.1380 C.3   156  THR156      0.1994
    158  C        -57.9420   -5.8580  -29.7510 C.2   156  THR156      0.2617
    159  O        -58.1290   -7.0750  -29.8170 O.2   156  THR156     -0.2717
    160  CB       -58.4700   -3.8440  -28.2250 C.3   156  THR156      0.1784
    161  OG1      -57.7680   -2.9020  -29.0250 O.3   156  THR156     -0.2211
    162  CG2      -57.5610   -4.3880  -27.1280 C.3   156  THR156      0.0376
    163  N        -56.8100   -5.2490  -30.1920 N.am  157  ASP157     -0.1973
    164  CA       -55.6290   -5.8740  -30.7930 C.3   157  ASP157      0.1709
    165  C        -55.9560   -6.5820  -32.1120 C.2   157  ASP157      0.2293
    166  O        -56.1850   -7.7970  -32.1520 O.2   157  ASP157     -0.2864
    167  CB       -54.8940   -6.7860  -29.7960 C.3   157  ASP157      0.1436
    168  CG       -53.4060   -6.8810  -30.0430 C.2   157  ASP157      0.3671
    169  OD1      -53.0000   -7.6850  -30.9130 O.co2 157  ASP157     -0.2456
    170  OD2      -52.6450   -6.1640  -29.3560 O.co2 157  ASP157     -0.2456
@<TRIPOS>BOND
     1    45    46    1
     2    46    47    1
     3    46    49    1
     4    47    48    2
     5    54    55    1
     6    78    76    1
     7    49    50    1
     8    56    55    1
     9    56    57    2
    10    55    58    1
    11    76    75    2
    12    76    77    1
    13    58    59    1
    14    50    51    1
    15    75    74    1
    16    59    60    1
    17    52    51   ar
    18    51    53   ar
    19    74    73    1
    20    73    72    1
    21    60    61    1
    22    72    69    1
    23    70    69    1
    24    70    71    2
    25    69    68    1
    26    44    43    1
    27   166   165    2
    28    65    64    2
    29   165   164    1
    30    39    38    2
    31    16    15    2
    32    43    42    1
    33    42    41    1
    34    68    64   am
    35    64    63    1
    36    38    37    1
    37   169   168   ar
    38   164   163    1
    39   164   167    1
    40    15    14    1
    41    14    17    1
    42    14    13    1
    43    41    40    1
    44    84    85    1
    45    84    83    1
    46    17    18    1
    47    40    37    1
    48   163   158   am
    49    79    80    1
    50    85    86    1
    51   168   167    1
    52   168   170   ar
    53    37    36    1
    54   159   158    2
    55    62    63    1
    56    63    66    1
    57   158   157    1
    58    80    83    1
    59    80    81    1
    60    66    67    1
    61   157   156    1
    62   157   160    1
    63    18    19   ar
    64    18    20   ar
    65   161   160    1
    66    19    21   ar
    67    81    87   am
    68    81    82    2
    69   160   162    1
    70    34    33    2
    71    20    22   ar
    72    87    88    1
    73   147   145   am
    74    21    23   ar
    75   145   146    2
    76   145   144    1
    77    33    32    1
    78    91    88    1
    79    91    92    1
    80   144   141    1
    81    88    89    1
    82   138   137    1
    83    22    23   ar
    84    30    28    1
    85   143   142    2
    86    94    93    2
    87    31    32    1
    88    32    35    1
    89    92    93    1
    90   139   137    1
    91    24    25    1
    92   137   136    2
    93    93    95   am
    94    25    28    1
    95    25    26    1
    96    89    90    2
    97    89    96   am
    98   141   142    1
    99   141   140    1
   100    28    29    1
   101   154   153    1
   102    96    97    1
   103    26    27    2
   104   136   135    1
   105   140   131   am
   106   135   134    1
   107   134   133    1
   108    12    11    2
   109   153   152    1
   110   153   155    1
   111   110   109    1
   112   110   111    1
   113   109   108    1
   114   131   132    2
   115   131   130    1
   116    97    98    1
   117    97   100    1
   118   148   149    1
   119   152   149    1
   120    11    10    1
   121   133   130    1
   122    98    99    2
   123    98   104   am
   124   100   101    1
   125   130   129    1
   126   149   150    1
   127   104   105    1
   128   108   105    1
   129   151   150    2
   130    10     9    1
   131     7     6    1
   132     9     3   am
   133   102   101    1
   134   105   106    1
   135   101   103    1
   136     5     6    1
   137     5     2    1
   138     1     2    1
   139     6     8    1
   140   127   124    1
   141   127   128    1
   142     3     2    1
   143     3     4    2
   144   106   107    2
   145   106   112   am
   146   124   123    1
   147   124   125    1
   148   122   121    2
   149   123   121   am
   150   121   120    1
   151   118   112    1
   152   118   117    1
   153   112   113    1
   154   125   126    2
   155   120   119    1
   156   117   116    1
   157   113   116    1
   158   113   114    1
   159   114   115    2
