@<TRIPOS>MOLECULE
tmp/5c8nA00.pdb
 170 159 0 0 0
SMALL
GASTEIGER

@<TRIPOS>ATOM
      1  N        -46.2330    4.1390  -19.2470 N.3    23  LEU23      -0.1231
      2  CA       -47.0750    3.0480  -18.7560 C.3    23  LEU23       0.1693
      3  C        -46.4810    1.6790  -19.0490 C.2    23  LEU23       0.2592
      4  O        -46.8120    0.7100  -18.3700 O.2    23  LEU23      -0.2718
      5  CB       -48.4640    3.1220  -19.3980 C.3    23  LEU23       0.0284
      6  CG       -49.2940    4.3450  -19.0260 C.3    23  LEU23       0.0019
      7  CD1      -50.5450    4.4530  -19.8870 C.3    23  LEU23       0.0001
      8  CD2      -49.6570    4.2930  -17.5530 C.3    23  LEU23       0.0001
      9  N        -45.6330    1.5920  -20.0710 N.am   24  GLY24      -0.1957
     10  CA       -45.0030    0.3220  -20.4300 C.3    24  GLY24       0.1869
     11  C        -44.0250    0.4620  -21.5780 C.2    24  GLY24       0.2309
     12  O        -44.3070    1.1520  -22.5540 O.2    24  GLY24      -0.2863
     13  N        -41.6230   -3.3850  -29.2160 N.3    28  PHE28      -0.1241
     14  CA       -42.4690   -2.5460  -30.0910 C.3    28  PHE28       0.1605
     15  C        -42.1740   -1.0390  -29.9980 C.2    28  PHE28       0.2264
     16  O        -42.3110   -0.3040  -30.9790 O.2    28  PHE28      -0.2867
     17  CB       -43.9590   -2.7930  -29.7730 C.3    28  PHE28       0.0534
     18  CG       -44.3600   -2.3860  -28.3740 C.ar   28  PHE28      -0.0203
     19  CD1      -44.8820   -1.1220  -28.1270 C.ar   28  PHE28      -0.0042
     20  CD2      -44.2060   -3.2610  -27.3020 C.ar   28  PHE28      -0.0042
     21  CE1      -45.2360   -0.7410  -26.8410 C.ar   28  PHE28      -0.0003
     22  CE2      -44.5620   -2.8850  -26.0150 C.ar   28  PHE28      -0.0003
     23  CZ       -45.0760   -1.6240  -25.7840 C.ar   28  PHE28      -0.0000
     24  N        -45.4210    2.9010  -24.4700 N.3    31  VAL31      -0.1245
     25  CA       -46.7750    3.4330  -24.2730 C.3    31  VAL31       0.1561
     26  C        -46.7960    4.4460  -23.1370 C.2    31  VAL31       0.2260
     27  O        -46.3640    4.1380  -22.0380 O.2    31  VAL31      -0.2867
     28  CB       -47.7800    2.3140  -23.9240 C.3    31  VAL31       0.0252
     29  CG1      -49.1810    2.8830  -23.7740 C.3    31  VAL31       0.0019
     30  CG2      -47.7830    1.2290  -24.9870 C.3    31  VAL31       0.0019
     31  N        -53.9400    6.8620  -24.0160 N.3    48  ALA48      -0.1245
     32  CA       -52.6950    6.1150  -24.0230 C.3    48  ALA48       0.1562
     33  C        -52.0570    6.3590  -25.3730 C.2    48  ALA48       0.2260
     34  O        -52.7560    6.3630  -26.3910 O.2    48  ALA48      -0.2867
     35  CB       -52.9470    4.6360  -23.8370 C.3    48  ALA48       0.0290
     36  N        -49.1270    5.1170  -27.9460 N.3    50  LYS50      -0.1245
     37  CA       -48.2020    4.0670  -28.3450 C.3    50  LYS50       0.1561
     38  C        -47.2990    4.5980  -29.4670 C.2    50  LYS50       0.2260
     39  O        -47.7750    4.8910  -30.5590 O.2    50  LYS50      -0.2867
     40  CB       -48.9980    2.8570  -28.8230 C.3    50  LYS50       0.0271
     41  CG       -48.1740    1.6330  -29.1890 C.3    50  LYS50       0.0035
     42  CD       -49.0610    0.5570  -29.7910 C.3    50  LYS50       0.0206
     43  CE       -48.2960   -0.7260  -30.0540 C.3    50  LYS50       0.1093
     44  NZ       -49.2220   -1.8530  -30.3510 N.3    50  LYS50      -0.1314
     45  N        -51.9880   -2.2660  -37.6080 N.3    64  GLU64      -0.1245
     46  CA       -52.7350   -2.2710  -36.3650 C.3    64  GLU64       0.1567
     47  C        -53.7410   -1.1220  -36.3470 C.2    64  GLU64       0.2260
     48  O        -54.9030   -1.2980  -35.9630 O.2    64  GLU64      -0.2867
     49  CB       -51.7660   -2.1380  -35.1920 C.3    64  GLU64       0.0388
     50  CG       -52.3580   -2.4750  -33.8360 C.3    64  GLU64       0.1160
     51  CD       -51.4170   -2.1400  -32.6960 C.2    64  GLU64       0.3649
     52  OE1      -50.3150   -1.6110  -32.9580 O.co2  64  GLU64      -0.2457
     53  OE2      -51.7770   -2.3880  -31.5250 O.co2  64  GLU64      -0.2457
     54  N        -57.6700   -1.1270  -35.8580 N.3    68  MET68      -0.1245
     55  CA       -58.1160   -0.4470  -34.6490 C.3    68  MET68       0.1570
     56  C        -58.9920    0.7750  -34.9410 C.2    68  MET68       0.2261
     57  O        -59.8600    1.1250  -34.1500 O.2    68  MET68      -0.2867
     58  CB       -56.8970   -0.0540  -33.8230 C.3    68  MET68       0.0387
     59  CG       -57.1460    0.0080  -32.3430 C.3    68  MET68       0.0595
     60  SD       -55.5990    0.1710  -31.4520 S.3    68  MET68      -0.1393
     61  CE       -56.2880    0.3460  -29.8100 C.3    68  MET68       0.0692
     62  N        -61.4180   -1.9290  -28.0120 N.3    77  CYS77      -0.1221
     63  CA       -60.6180   -0.6900  -28.0170 C.3    77  CYS77       0.1808
     64  C        -60.4390   -0.0870  -29.3970 C.2    77  CYS77       0.2601
     65  O        -59.8110   -0.6890  -30.2640 O.2    77  CYS77      -0.2717
     66  CB       -59.2360   -0.9710  -27.4580 C.3    77  CYS77       0.0970
     67  SG       -59.2730   -1.2570  -25.6930 S.3    77  CYS77      -0.0800
     68  N        -60.9770    1.1050  -29.5890 N.am   78  ARG78      -0.1979
     69  CA       -60.8930    1.8280  -30.8730 C.3    78  ARG78       0.1597
     70  C        -59.6490    2.7350  -30.9220 C.2    78  ARG78       0.2287
     71  O        -59.1030    3.1220  -29.8820 O.2    78  ARG78      -0.2864
     72  CB       -62.1400    2.7010  -31.0090 C.3    78  ARG78       0.0334
     73  CG       -62.2620    3.4600  -32.3040 C.3    78  ARG78       0.0492
     74  CD       -63.5580    4.2410  -32.3970 C.3    78  ARG78       0.2205
     75  NE       -63.2970    5.3880  -33.2520 N.pl3  78  ARG78      -0.0865
     76  CZ       -62.8710    6.5720  -32.8200 C.cat  78  ARG78       0.5346
     77  NH1      -62.7080    6.8270  -31.5250 N.pl3  78  ARG78       0.1354
     78  NH2      -62.6280    7.5250  -33.6950 N.pl3  78  ARG78       0.1354
     79  N        -54.7940    6.2070  -28.2230 N.3    92  MET92      -0.1230
     80  CA       -55.8200    5.2640  -27.8290 C.3    92  MET92       0.1702
     81  C        -56.4700    5.7280  -26.5360 C.2    92  MET92       0.2592
     82  O        -55.9780    6.6390  -25.8740 O.2    92  MET92      -0.2718
     83  CB       -55.1840    3.8970  -27.6290 C.3    92  MET92       0.0401
     84  CG       -54.2840    3.4830  -28.7840 C.3    92  MET92       0.0596
     85  SD       -53.3560    1.9680  -28.5250 S.3    92  MET92      -0.1393
     86  CE       -52.3070    2.4520  -27.1770 C.3    92  MET92       0.0692
     87  N        -57.5830    5.1030  -26.1760 N.am   93  GLN93      -0.1966
     88  CA       -58.2480    5.4280  -24.9240 C.3    93  GLN93       0.1733
     89  C        -57.3750    4.9800  -23.7530 C.2    93  GLN93       0.2616
     90  O        -56.7580    3.9110  -23.7930 O.2    93  GLN93      -0.2715
     91  CB       -59.5980    4.7520  -24.8530 C.3    93  GLN93       0.0408
     92  CG       -60.3930    5.0450  -23.5850 C.3    93  GLN93       0.0908
     93  CD       -61.7070    4.2920  -23.5560 C.2    93  GLN93       0.2608
     94  OE1      -61.8230    3.2340  -24.1690 O.2    93  GLN93      -0.2717
     95  NE2      -62.7080    4.8350  -22.8490 N.am   93  GLN93      -0.0878
     96  N        -57.2750    5.8220  -22.7310 N.am   94  LEU94      -0.1963
     97  CA       -56.5820    5.4220  -21.5100 C.3    94  LEU94       0.1728
     98  C        -57.4880    4.4340  -20.8000 C.2    94  LEU94       0.2616
     99  O        -58.6710    4.7010  -20.5880 O.2    94  LEU94      -0.2715
    100  CB       -56.2910    6.6080  -20.5900 C.3    94  LEU94       0.0311
    101  CG       -55.5270    6.2690  -19.3000 C.3    94  LEU94       0.0022
    102  CD1      -54.0550    6.0750  -19.5680 C.3    94  LEU94       0.0001
    103  CD2      -55.7040    7.3460  -18.2450 C.3    94  LEU94       0.0001
    104  N        -56.9260    3.2850  -20.4710 N.am   95  MET95      -0.1964
    105  CA       -57.6300    2.2330  -19.7330 C.3    95  MET95       0.1722
    106  C        -56.9600    2.1510  -18.3790 C.2    95  MET95       0.2458
    107  O        -56.0380    1.3760  -18.1940 O.2    95  MET95      -0.2730
    108  CB       -57.4960    0.9110  -20.4780 C.3    95  MET95       0.0427
    109  CG       -58.0660    0.9610  -21.8840 C.3    95  MET95       0.0599
    110  SD       -59.8550    1.1720  -21.9260 S.3    95  MET95      -0.1393
    111  CE       -60.3470   -0.5140  -21.6130 C.3    95  MET95       0.0692
    112  N        -57.3910    2.9850  -17.4310 N.am   96  PRO96      -0.2727
    113  CA       -56.5770    3.2960  -16.2530 C.3    96  PRO96       0.1402
    114  C        -56.1520    2.1250  -15.3990 C.2    96  PRO96       0.2269
    115  O        -55.1880    2.2450  -14.6640 O.2    96  PRO96      -0.2865
    116  CB       -57.4830    4.2080  -15.4230 C.3    96  PRO96       0.0296
    117  CG       -58.5000    4.7140  -16.3580 C.3    96  PRO96       0.0237
    118  CD       -58.6890    3.6640  -17.3950 C.3    96  PRO96       0.0939
    119  N        -55.2120   -0.9400  -16.4220 N.3    98  GLY98      -0.1210
    120  CA       -54.2750   -1.8570  -17.0590 C.3    98  GLY98       0.1956
    121  C        -54.9360   -3.1000  -17.6120 C.2    98  GLY98       0.2612
    122  O        -56.1440   -3.1160  -17.8310 O.2    98  GLY98      -0.2717
    123  N        -54.1340   -4.1290  -17.8750 N.am   99  CYS99      -0.1970
    124  CA       -54.6450   -5.3580  -18.4660 C.3    99  CYS99       0.1712
    125  C        -55.3170   -6.1990  -17.3900 C.2    99  CYS99       0.2296
    126  O        -54.9260   -6.1700  -16.2350 O.2    99  CYS99      -0.2864
    127  CB       -53.5350   -6.1450  -19.1590 C.3    99  CYS99       0.0983
    128  SG       -52.2820   -6.8000  -18.0450 S.3    99  CYS99      -0.0798
    129  N        -54.0340  -10.9290  -21.1800 N.3   143  ARG143     -0.1231
    130  CA       -53.0930   -9.8110  -21.2790 C.3   143  ARG143      0.1694
    131  C        -53.6580   -8.7490  -22.2150 C.2   143  ARG143      0.2592
    132  O        -53.3770   -7.5740  -22.0350 O.2   143  ARG143     -0.2718
    133  CB       -51.6840  -10.2630  -21.7310 C.3   143  ARG143      0.0321
    134  CG       -51.6230  -10.8070  -23.1510 C.3   143  ARG143      0.0489
    135  CD       -50.2610  -11.3610  -23.5530 C.3   143  ARG143      0.2205
    136  NE       -50.4040  -11.9750  -24.8810 N.pl3 143  ARG143     -0.0865
    137  CZ       -50.7220  -13.2540  -25.1130 C.cat 143  ARG143      0.5346
    138  NH1      -50.8890  -14.1150  -24.1190 N.pl3 143  ARG143      0.1354
    139  NH2      -50.8660  -13.6860  -26.3600 N.pl3 143  ARG143      0.1354
    140  N        -54.4730   -9.1740  -23.1840 N.am  144  ASN144     -0.1974
    141  CA       -55.0470   -8.2860  -24.1960 C.3   144  ASN144      0.1688
    142  C        -56.5060   -7.8960  -23.9560 C.2   144  ASN144      0.2292
    143  O        -57.2260   -7.5050  -24.8880 O.2   144  ASN144     -0.2864
    144  CB       -54.9150   -8.9500  -25.5710 C.3   144  ASN144      0.1181
    145  CG       -53.4730   -9.0300  -26.0350 C.2   144  ASN144      0.2629
    146  OD1      -52.6150   -8.2990  -25.5450 O.2   144  ASN144     -0.2716
    147  ND2      -53.1980   -9.9300  -26.9690 N.am  144  ASN144     -0.0877
    148  N        -58.3830   -5.1130  -21.5190 N.3   146  LEU146     -0.1245
    149  CA       -58.0040   -3.9660  -20.6910 C.3   146  LEU146      0.1561
    150  C        -59.1560   -3.4870  -19.8400 C.2   146  LEU146      0.2260
    151  O        -60.3180   -3.6710  -20.1760 O.2   146  LEU146     -0.2867
    152  CB       -57.4760   -2.8060  -21.5550 C.3   146  LEU146      0.0270
    153  CG       -56.2170   -3.0630  -22.4040 C.3   146  LEU146      0.0019
    154  CD1      -55.6300   -1.7390  -22.8510 C.3   146  LEU146      0.0001
    155  CD2      -55.1410   -3.8720  -21.6950 C.3   146  LEU146      0.0001
    156  N        -58.2720   -5.6170  -26.6770 N.3   156  THR156     -0.1203
    157  CA       -57.3460   -4.8530  -27.5250 C.3   156  THR156      0.1994
    158  C        -56.3470   -5.7540  -28.2640 C.2   156  THR156      0.2617
    159  O        -56.5580   -6.9840  -28.3820 O.2   156  THR156     -0.2717
    160  CB       -56.6450   -3.7380  -26.7110 C.3   156  THR156      0.1784
    161  OG1      -56.1450   -2.7270  -27.6050 O.3   156  THR156     -0.2211
    162  CG2      -55.5300   -4.3000  -25.8200 C.3   156  THR156      0.0376
    163  N        -55.2880   -5.1210  -28.7760 N.am  157  ASP157     -0.1973
    164  CA       -54.2310   -5.7580  -29.5820 C.3   157  ASP157      0.1709
    165  C        -54.7040   -6.3740  -30.8980 C.2   157  ASP157      0.2293
    166  O        -54.8910   -7.5900  -30.9970 O.2   157  ASP157     -0.2864
    167  CB       -53.4450   -6.7980  -28.7800 C.3   157  ASP157      0.1436
    168  CG       -52.1460   -7.2050  -29.4670 C.2   157  ASP157      0.3671
    169  OD1      -51.9580   -6.8930  -30.6670 O.co2 157  ASP157     -0.2456
    170  OD2      -51.2980   -7.8330  -28.7970 O.co2 157  ASP157     -0.2456
@<TRIPOS>BOND
     1    45    46    1
     2    46    47    1
     3    46    49    1
     4    47    48    2
     5    54    55    1
     6    49    50    1
     7    56    55    1
     8    56    57    2
     9    55    58    1
    10    50    51    1
    11    58    59    1
    12    78    76    1
    13    75    76    2
    14    75    74    1
    15    52    51   ar
    16    76    77    1
    17    51    53   ar
    18    74    73    1
    19    59    60    1
    20    73    72    1
    21    60    61    1
    22    72    69    1
    23   166   165    2
    24    16    15    2
    25    70    69    1
    26    70    71    2
    27   165   164    1
    28    69    68    1
    29   169   168   ar
    30    39    38    2
    31    44    43    1
    32    65    64    2
    33    14    15    1
    34    14    17    1
    35    14    13    1
    36    43    42    1
    37    42    41    1
    38    17    18    1
    39    68    64   am
    40   164   167    1
    41   164   163    1
    42   168   170   ar
    43   168   167    1
    44    38    37    1
    45    64    63    1
    46    41    40    1
    47    40    37    1
    48    84    85    1
    49    84    83    1
    50   163   158   am
    51    85    86    1
    52   159   158    2
    53    18    19   ar
    54    18    20   ar
    55    37    36    1
    56   158   157    1
    57    79    80    1
    58    19    21   ar
    59    63    62    1
    60    63    66    1
    61    80    83    1
    62    80    81    1
    63   161   160    1
    64   157   160    1
    65   157   156    1
    66    66    67    1
    67    20    22   ar
    68   147   145   am
    69    21    23   ar
    70   160   162    1
    71    81    87   am
    72    81    82    2
    73    34    33    2
    74   139   137    1
    75    87    88    1
    76   145   144    1
    77   145   146    2
    78    22    23   ar
    79   144   141    1
    80    33    32    1
    81   137   136    2
    82   137   138    1
    83    30    28    1
    84    88    91    1
    85    88    89    1
    86   143   142    2
    87   136   135    1
    88    91    92    1
    89    24    25    1
    90    25    28    1
    91    25    26    1
    92   141   142    1
    93   141   140    1
    94    94    93    2
    95    32    31    1
    96    32    35    1
    97    28    29    1
    98    90    89    2
    99    89    96   am
   100    92    93    1
   101    93    95   am
   102   135   134    1
   103   140   131   am
   104   134   133    1
   105    26    27    2
   106   154   153    1
   107    96    97    1
   108    12    11    2
   109   153   155    1
   110   153   152    1
   111   131   132    2
   112   131   130    1
   113   110   109    1
   114   110   111    1
   115   109   108    1
   116   133   130    1
   117    11    10    1
   118   152   149    1
   119   148   149    1
   120    97    98    1
   121    97   100    1
   122   130   129    1
   123    98    99    2
   124    98   104   am
   125   149   150    1
   126   100   101    1
   127   108   105    1
   128   104   105    1
   129    10     9    1
   130   151   150    2
   131     9     3   am
   132     7     6    1
   133   105   106    1
   134   102   101    1
   135     5     6    1
   136     5     2    1
   137   101   103    1
   138     1     2    1
   139   127   124    1
   140   127   128    1
   141     3     2    1
   142     3     4    2
   143     6     8    1
   144   124   123    1
   145   124   125    1
   146   106   107    2
   147   106   112   am
   148   123   121   am
   149   122   121    2
   150   121   120    1
   151   112   118    1
   152   112   113    1
   153   118   117    1
   154   125   126    2
   155   120   119    1
   156   117   116    1
   157   113   116    1
   158   113   114    1
   159   114   115    2
