@<TRIPOS>MOLECULE
tmp/5c8qA02.pdb
 80 80 0 0 0
SMALL
GASTEIGER

@<TRIPOS>ATOM
      1  N         -6.1340   -1.6710  -15.3310 N.3    60  VAL60      -0.1231
      2  CA        -4.8200   -2.2650  -15.1130 C.3    60  VAL60       0.1692
      3  C         -4.6570   -2.7410  -13.6620 C.2    60  VAL60       0.2592
      4  O         -5.0560   -2.0490  -12.7060 O.2    60  VAL60      -0.2718
      5  CB        -3.7040   -1.2920  -15.5220 C.3    60  VAL60       0.0266
      6  CG1       -2.3500   -1.8780  -15.2050 C.3    60  VAL60       0.0020
      7  CG2       -3.7980   -0.9990  -17.0390 C.3    60  VAL60       0.0020
      8  N         -4.1300   -3.9480  -13.5060 N.am   61  GLN61      -0.1966
      9  CA        -3.7880   -4.4510  -12.1810 C.3    61  GLN61       0.1733
     10  C         -2.2780   -4.4550  -12.0160 C.2    61  GLN61       0.2616
     11  O         -1.5600   -4.5710  -13.0020 O.2    61  GLN61      -0.2715
     12  CB        -4.3170   -5.8690  -11.9880 C.3    61  GLN61       0.0408
     13  CG        -5.8210   -5.9570  -11.9630 C.3    61  GLN61       0.0908
     14  CD        -6.2850   -7.3880  -11.9050 C.2    61  GLN61       0.2608
     15  OE1       -5.4780   -8.3180  -11.9450 O.2    61  GLN61      -0.2717
     16  NE2       -7.5880   -7.5790  -11.8280 N.am   61  GLN61      -0.0878
     17  N         -1.8000   -4.3430  -10.7710 N.am   62  GLN62      -0.1963
     18  CA        -0.3600   -4.4420  -10.4590 C.3    62  GLN62       0.1733
     19  C          0.2670   -5.6980  -11.0500 C.2    62  GLN62       0.2617
     20  O         -0.3080   -6.8020  -10.9430 O.2    62  GLN62      -0.2715
     21  CB        -0.1470   -4.4470   -8.9510 C.3    62  GLN62       0.0408
     22  CG         1.3110   -4.2200   -8.5290 C.3    62  GLN62       0.0908
     23  CD         1.4420   -4.0540   -7.0530 C.2    62  GLN62       0.2608
     24  OE1        1.5450   -5.0340   -6.3070 O.2    62  GLN62      -0.2717
     25  NE2        1.4660   -2.8060   -6.6050 N.am   62  GLN62      -0.0878
     26  N          1.4240   -5.5180  -11.6820 N.am   63  GLY63      -0.1940
     27  CA         2.1130   -6.5970  -12.3810 C.3    63  GLY63       0.2014
     28  C          1.7500   -6.8260  -13.8410 C.2    63  GLY63       0.2638
     29  O          2.5070   -7.5120  -14.5540 O.2    63  GLY63      -0.2714
     30  N          0.6120   -6.2760  -14.2910 N.am   64  ASP64      -0.1971
     31  CA         0.2170   -6.3270  -15.7130 C.3    64  ASP64       0.1709
     32  C          1.2750   -5.6590  -16.5940 C.2    64  ASP64       0.2293
     33  O          2.0030   -4.7490  -16.1480 O.2    64  ASP64      -0.2864
     34  CB        -1.1140   -5.5940  -16.0010 C.3    64  ASP64       0.1436
     35  CG        -2.3640   -6.3780  -15.6080 C.2    64  ASP64       0.3671
     36  OD1       -2.3210   -7.6100  -15.4030 O.co2  64  ASP64      -0.2456
     37  OD2       -3.4350   -5.7330  -15.5440 O.co2  64  ASP64      -0.2456
     38  N          6.1130    0.6080  -21.9650 N.3    90  ASP90      -0.1225
     39  CA         6.6050   -0.2130  -20.8490 C.3    90  ASP90       0.1805
     40  C          6.1340    0.2980  -19.4750 C.2    90  ASP90       0.2598
     41  O          6.4770   -0.3010  -18.4360 O.2    90  ASP90      -0.2718
     42  CB         8.1450   -0.2390  -20.8480 C.3    90  ASP90       0.1424
     43  CG         8.7450   -0.9690  -22.0580 C.2    90  ASP90       0.3668
     44  OD1        8.1080   -1.8840  -22.6160 O.co2  90  ASP90      -0.2456
     45  OD2        9.8810   -0.6310  -22.4430 O.co2  90  ASP90      -0.2456
     46  N          5.3940    1.4110  -19.4630 N.am   91  LEU91      -0.1966
     47  CA         4.8950    2.0240  -18.2200 C.3    91  LEU91       0.1728
     48  C          3.3570    2.1540  -18.1970 C.2    91  LEU91       0.2616
     49  O          2.7680    3.0320  -18.8580 O.2    91  LEU91      -0.2715
     50  CB         5.5680    3.3920  -17.9600 C.3    91  LEU91       0.0311
     51  CG         7.0620    3.4900  -17.5700 C.3    91  LEU91       0.0022
     52  CD1        7.4510    4.9590  -17.4260 C.3    91  LEU91       0.0001
     53  CD2        7.3940    2.7600  -16.2710 C.3    91  LEU91       0.0001
     54  N          2.7250    1.2440  -17.4570 N.am   92  ILE92      -0.1963
     55  CA         1.3160    1.3320  -17.1120 C.3    92  ILE92       0.1727
     56  C          1.1610    1.1850  -15.5960 C.2    92  ILE92       0.2616
     57  O          2.0840    0.7280  -14.9130 O.2    92  ILE92      -0.2715
     58  CB         0.4140    0.3480  -17.9300 C.3    92  ILE92       0.0290
     59  CG1        0.8990   -1.1020  -17.8350 C.3    92  ILE92       0.0022
     60  CG2        0.3410    0.7940  -19.4190 C.3    92  ILE92       0.0023
     61  CD1       -0.1400   -2.0920  -18.3080 C.3    92  ILE92       0.0001
     62  N          0.0110    1.5960  -15.0660 N.am   93  TYR93      -0.1960
     63  CA        -0.1090    1.7780  -13.6230 C.3    93  TYR93       0.1756
     64  C         -1.4130    1.1700  -13.1070 C.2    93  TYR93       0.2461
     65  O         -2.4330    1.2990  -13.7570 O.2    93  TYR93      -0.2730
     66  CB        -0.0580    3.2790  -13.3080 C.3    93  TYR93       0.0574
     67  CG         1.2070    3.9310  -13.8190 C.ar   93  TYR93      -0.0198
     68  CD1        2.3480    3.9830  -13.0300 C.ar   93  TYR93      -0.0009
     69  CD2        1.2660    4.4640  -15.1060 C.ar   93  TYR93      -0.0009
     70  CE1        3.5240    4.5830  -13.5010 C.ar   93  TYR93       0.0417
     71  CE2        2.4220    5.0500  -15.5890 C.ar   93  TYR93       0.0417
     72  CZ         3.5410    5.1250  -14.7840 C.ar   93  TYR93       0.1957
     73  OH         4.6950    5.6900  -15.2790 O.3    93  TYR93      -0.2866
     74  N         -1.3890    0.5300  -11.9180 N.am   94  PRO94      -0.2727
     75  CA        -2.6300   -0.0570  -11.4160 C.3    94  PRO94       0.1402
     76  C         -3.7630    0.9660  -11.3220 C.2    94  PRO94       0.2269
     77  O         -3.5430    2.1180  -10.9670 O.2    94  PRO94      -0.2865
     78  CB        -2.2480   -0.5680  -10.0150 C.3    94  PRO94       0.0296
     79  CG        -0.7640   -0.6140   -9.9760 C.3    94  PRO94       0.0237
     80  CD        -0.2980    0.4400  -10.9350 C.3    94  PRO94       0.0939
@<TRIPOS>BOND
     1    44    43   ar
     2    45    43   ar
     3    43    42    1
     4    38    39    1
     5    39    42    1
     6    39    40    1
     7    40    46   am
     8    40    41    2
     9    46    47    1
    10    60    58    1
    11    49    48    2
    12    61    59    1
    13    47    48    1
    14    47    50    1
    15    48    54   am
    16    50    51    1
    17    58    59    1
    18    58    55    1
    19    51    52    1
    20    51    53    1
    21    54    55    1
    22    55    56    1
    23     7     5    1
    24    32    33    2
    25    32    31    1
    26    34    31    1
    27    34    35    1
    28    31    30    1
    29    35    37   ar
    30    35    36   ar
    31    56    62   am
    32    56    57    2
    33    71    69   ar
    34    71    72   ar
    35     5     6    1
    36     5     2    1
    37     1     2    1
    38    73    72    1
    39     2     3    1
    40    69    67   ar
    41    62    63    1
    42    72    70   ar
    43    29    28    2
    44    30    28   am
    45    28    27    1
    46    67    66    1
    47    67    68   ar
    48    65    64    2
    49     3     8   am
    50     3     4    2
    51    63    66    1
    52    63    64    1
    53     8     9    1
    54    70    68   ar
    55    64    74   am
    56    11    10    2
    57    27    26    1
    58     9    10    1
    59     9    12    1
    60    10    17   am
    61    12    13    1
    62    13    14    1
    63    15    14    2
    64    74    75    1
    65    74    80    1
    66    14    16   am
    67    26    19   am
    68    75    76    1
    69    75    78    1
    70    76    77    2
    71    19    20    2
    72    19    18    1
    73    80    79    1
    74    17    18    1
    75    18    21    1
    76    78    79    1
    77    21    22    1
    78    22    23    1
    79    23    25   am
    80    23    24    2
