@<TRIPOS>MOLECULE
tmp/5c8sD01.pdb
 208 204 0 0 0
SMALL
GASTEIGER

@<TRIPOS>ATOM
      1  N         -1.9810  -31.5100   14.6500 N.3   292  TRP292     -0.1241
      2  CA        -2.1770  -31.7980   13.2310 C.3   292  TRP292      0.1605
      3  C         -3.6200  -31.6740   12.7430 C.2   292  TRP292      0.2264
      4  O         -3.8680  -31.6890   11.5390 O.2   292  TRP292     -0.2867
      5  CB        -1.5990  -33.1740   12.8580 C.3   292  TRP292      0.0550
      6  CG        -0.1440  -33.1150   12.4580 C.ar  292  TRP292      0.0003
      7  CD1        0.3670  -33.0280   11.1870 C.ar  292  TRP292      0.0946
      8  CD2        0.9800  -33.1130   13.3390 C.ar  292  TRP292      0.0152
      9  NE1        1.7390  -32.9760   11.2290 N.ar  292  TRP292     -0.2442
     10  CE2        2.1400  -33.0270   12.5390 C.ar  292  TRP292      0.0810
     11  CE3        1.1200  -33.1740   14.7320 C.ar  292  TRP292      0.0012
     12  CZ2        3.4190  -33.0060   13.0850 C.ar  292  TRP292      0.0191
     13  CZ3        2.3910  -33.1560   15.2730 C.ar  292  TRP292      0.0001
     14  CH2        3.5240  -33.0720   14.4510 C.ar  292  TRP292      0.0015
     15  N          4.9890  -23.4900   -2.8110 N.3   305  VAL305     -0.1231
     16  CA         6.0400  -23.6270   -1.8140 C.3   305  VAL305      0.1692
     17  C          6.0930  -25.0500   -1.2610 C.2   305  VAL305      0.2592
     18  O          7.1480  -25.6730   -1.2350 O.2   305  VAL305     -0.2718
     19  CB         5.8600  -22.6200   -0.6670 C.3   305  VAL305      0.0266
     20  CG1        6.9730  -22.7710    0.3540 C.3   305  VAL305      0.0020
     21  CG2        5.8370  -21.2090   -1.2160 C.3   305  VAL305      0.0020
     22  N          4.9500  -25.5690   -0.8300 N.am  306  ASN306     -0.1974
     23  CA         4.9030  -26.9150   -0.2740 C.3   306  ASN306      0.1688
     24  C          5.3560  -27.9790   -1.2530 C.2   306  ASN306      0.2292
     25  O          5.8770  -29.0150   -0.8520 O.2   306  ASN306     -0.2864
     26  CB         3.5000  -27.2480    0.2240 C.3   306  ASN306      0.1181
     27  CG         3.1810  -26.5730    1.5290 C.2   306  ASN306      0.2629
     28  OD1        3.4640  -25.3920    1.7150 O.2   306  ASN306     -0.2716
     29  ND2        2.6120  -27.3270    2.4560 N.am  306  ASN306     -0.0877
     30  N          9.2440  -27.7350   -1.4740 N.3   309  CYS309     -0.1221
     31  CA         9.8060  -28.3800   -0.2970 C.3   309  CYS309      0.1808
     32  C          9.8820  -29.8670   -0.5490 C.2   309  CYS309      0.2601
     33  O         10.9640  -30.4320   -0.6650 O.2   309  CYS309     -0.2717
     34  CB         8.9590  -28.1100    0.9450 C.3   309  CYS309      0.0970
     35  SG         9.4170  -26.6260    1.8590 S.3   309  CYS309     -0.0800
     36  N          8.7170  -30.4880   -0.6600 N.am  310  ARG310     -0.1979
     37  CA         8.6140  -31.9260   -0.8280 C.3   310  ARG310      0.1597
     38  C          9.4300  -32.4200   -2.0260 C.2   310  ARG310      0.2287
     39  O          9.8520  -33.5770   -2.0590 O.2   310  ARG310     -0.2864
     40  CB         7.1460  -32.3050   -0.9930 C.3   310  ARG310      0.0334
     41  CG         6.6870  -33.5270   -0.2110 C.3   310  ARG310      0.0492
     42  CD         5.1890  -33.7660   -0.4460 C.3   310  ARG310      0.2205
     43  NE         4.8000  -33.3820   -1.8070 N.pl3 310  ARG310     -0.0865
     44  CZ         3.9990  -32.3610   -2.1060 C.cat 310  ARG310      0.5346
     45  NH1        3.4700  -31.6250   -1.1270 N.pl3 310  ARG310      0.1354
     46  NH2        3.7200  -32.0870   -3.3820 N.pl3 310  ARG310      0.1354
     47  N         13.1610  -31.9400   -1.0660 N.3   313  GLN313     -0.1245
     48  CA        13.3580  -33.0250   -0.1180 C.3   313  GLN313      0.1566
     49  C         13.7790  -34.2970   -0.8450 C.2   313  GLN313      0.2260
     50  O         14.8960  -34.7740   -0.6770 O.2   313  GLN313     -0.2867
     51  CB        12.0890  -33.2680    0.7040 C.3   313  GLN313      0.0367
     52  CG        12.0510  -34.6170    1.4040 C.3   313  GLN313      0.0905
     53  CD        11.4960  -34.5300    2.8030 C.2   313  GLN313      0.2608
     54  OE1       12.2470  -34.3680    3.7660 O.2   313  GLN313     -0.2717
     55  NE2       10.1740  -34.6360    2.9280 N.am  313  GLN313     -0.0878
     56  N          9.5710  -37.6590   12.1400 N.3   334  ASN334     -0.1240
     57  CA         8.6430  -38.0600   11.0860 C.3   334  ASN334      0.1653
     58  C          7.4600  -38.8330   11.6620 C.2   334  ASN334      0.2266
     59  O          7.4700  -40.0610   11.6860 O.2   334  ASN334     -0.2867
     60  CB         9.3580  -38.9000   10.0260 C.3   334  ASN334      0.1155
     61  CG         8.4080  -39.4560    8.9730 C.2   334  ASN334      0.2627
     62  OD1        8.2520  -38.8810    7.8950 O.2   334  ASN334     -0.2716
     63  ND2        7.7770  -40.5860    9.2780 N.am  334  ASN334     -0.0877
     64  N          4.1380  -39.3570   10.8140 N.3   336  LYS336     -0.1245
     65  CA         3.4290  -40.2680    9.9230 C.3   336  LYS336      0.1561
     66  C          4.4220  -41.2830    9.3710 C.2   336  LYS336      0.2260
     67  O          5.6350  -41.0770    9.4330 O.2   336  LYS336     -0.2867
     68  CB         2.7350  -39.5230    8.7790 C.3   336  LYS336      0.0271
     69  CG         2.0430  -38.2140    9.1670 C.3   336  LYS336      0.0035
     70  CD         2.8230  -37.0110    8.6270 C.3   336  LYS336      0.0206
     71  CE         1.9240  -35.8230    8.2780 C.3   336  LYS336      0.1093
     72  NZ         2.6950  -34.6720    7.6950 N.3   336  LYS336     -0.1314
     73  N          5.3290  -41.9350    6.5230 N.3   338  ILE338     -0.1245
     74  CA         5.7810  -41.5960    5.1650 C.3   338  ILE338      0.1561
     75  C          7.2800  -41.3480    4.9690 C.2   338  ILE338      0.2260
     76  O          7.8650  -40.4730    5.6150 O.2   338  ILE338     -0.2867
     77  CB         5.0300  -40.3590    4.6350 C.3   338  ILE338      0.0252
     78  CG1        3.6540  -40.7620    4.1000 C.3   338  ILE338      0.0019
     79  CG2        5.8440  -39.6610    3.5570 C.3   338  ILE338      0.0019
     80  CD1        2.7710  -41.4580    5.1220 C.3   338  ILE338      0.0001
     81  N         10.2430  -40.1410    2.2850 N.3   340  CYS340     -0.1235
     82  CA        10.3370  -39.2760    1.1050 C.3   340  CYS340      0.1677
     83  C         11.0360  -39.9200   -0.0920 C.2   340  CYS340      0.2270
     84  O         10.8050  -39.5130   -1.2280 O.2   340  CYS340     -0.2867
     85  CB        10.9800  -37.9260    1.4450 C.3   340  CYS340      0.0956
     86  SG        12.6150  -38.0270    2.1790 S.3   340  CYS340     -0.0801
     87  N         14.0690  -32.9170    8.9530 N.3   385  TRP385     -0.1227
     88  CA        13.3380  -32.0980    8.0160 C.3   385  TRP385      0.1737
     89  C         12.3500  -31.2640    8.8170 C.2   385  TRP385      0.2595
     90  O         11.3300  -31.7640    9.3040 O.2   385  TRP385     -0.2718
     91  CB        12.6240  -32.9810    6.9940 C.3   385  TRP385      0.0564
     92  CG        12.3040  -32.2900    5.7050 C.ar  385  TRP385      0.0003
     93  CD1       11.0640  -31.9830    5.2290 C.ar  385  TRP385      0.0946
     94  CD2       13.2380  -31.8200    4.7230 C.ar  385  TRP385      0.0152
     95  NE1       11.1690  -31.3550    4.0110 N.ar  385  TRP385     -0.2442
     96  CE2       12.4930  -31.2420    3.6800 C.ar  385  TRP385      0.0810
     97  CE3       14.6290  -31.8330    4.6260 C.ar  385  TRP385      0.0012
     98  CZ2       13.0920  -30.6820    2.5580 C.ar  385  TRP385      0.0191
     99  CZ3       15.2190  -31.2750    3.5110 C.ar  385  TRP385      0.0001
    100  CH2       14.4520  -30.7100    2.4920 C.ar  385  TRP385      0.0015
    101  N         12.6630  -29.9790    8.9410 N.am  386  ASN386     -0.1974
    102  CA        11.8570  -29.0710    9.7410 C.3   386  ASN386      0.1688
    103  C         11.5120  -29.6060   11.1290 C.2   386  ASN386      0.2292
    104  O         10.3930  -29.4430   11.6170 O.2   386  ASN386     -0.2864
    105  CB        10.5980  -28.6780    8.9850 C.3   386  ASN386      0.1181
    106  CG        10.8840  -27.7000    7.8790 C.2   386  ASN386      0.2629
    107  OD1       11.6010  -26.7100    8.0820 O.2   386  ASN386     -0.2716
    108  ND2       10.3470  -27.9750    6.6890 N.am  386  ASN386     -0.0877
    109  N         15.8940  -26.1490    7.6780 N.3   400  ARG400     -0.1231
    110  CA        15.5580  -25.2730    8.7910 C.3   400  ARG400      0.1694
    111  C         15.0260  -23.9450    8.2900 C.2   400  ARG400      0.2592
    112  O         15.6600  -23.3020    7.4510 O.2   400  ARG400     -0.2718
    113  CB        16.7820  -25.0160    9.6610 C.3   400  ARG400      0.0321
    114  CG        16.9550  -25.9860   10.8130 C.3   400  ARG400      0.0489
    115  CD        16.4240  -25.4180   12.1220 C.3   400  ARG400      0.2205
    116  NE        14.9740  -25.5720   12.2610 N.pl3 400  ARG400     -0.0865
    117  CZ        14.3230  -26.7360   12.2130 C.cat 400  ARG400      0.5346
    118  NH1       14.9880  -27.8710   12.0150 N.pl3 400  ARG400      0.1354
    119  NH2       13.0000  -26.7690   12.3640 N.pl3 400  ARG400      0.1354
    120  N         13.8730  -23.5260    8.8090 N.am  401  PHE401     -0.1976
    121  CA        13.3120  -22.2390    8.4260 C.3   401  PHE401      0.1639
    122  C         14.0640  -21.0820    9.0690 C.2   401  PHE401      0.2290
    123  O         14.4300  -21.1460   10.2370 O.2   401  PHE401     -0.2864
    124  CB        11.8430  -22.1550    8.7980 C.3   401  PHE401      0.0560
    125  CG        11.1680  -20.9150    8.2830 C.ar  401  PHE401     -0.0200
    126  CD1       11.2080  -19.7350    9.0080 C.ar  401  PHE401     -0.0042
    127  CD2       10.5000  -20.9260    7.0660 C.ar  401  PHE401     -0.0042
    128  CE1       10.5860  -18.5890    8.5330 C.ar  401  PHE401     -0.0003
    129  CE2        9.8800  -19.7830    6.5870 C.ar  401  PHE401     -0.0003
    130  CZ         9.9230  -18.6140    7.3200 C.ar  401  PHE401     -0.0000
    131  N          5.1190  -19.9860   11.9130 N.3   420  TYR420     -0.1241
    132  CA         4.9560  -20.1000   10.4800 C.3   420  TYR420      0.1605
    133  C          3.6680  -20.8690   10.2980 C.2   420  TYR420      0.2264
    134  O          3.6050  -22.0620   10.5850 O.2   420  TYR420     -0.2867
    135  CB         6.1600  -20.8440    9.8560 C.3   420  TYR420      0.0534
    136  CG         6.1110  -21.0080    8.3420 C.ar  420  TYR420     -0.0201
    137  CD1        6.3540  -19.9320    7.4940 C.ar  420  TYR420     -0.0009
    138  CD2        5.8260  -22.2450    7.7620 C.ar  420  TYR420     -0.0009
    139  CE1        6.2920  -20.0790    6.1110 C.ar  420  TYR420      0.0417
    140  CE2        5.7620  -22.4000    6.3820 C.ar  420  TYR420      0.0417
    141  CZ         5.9940  -21.3120    5.5650 C.ar  420  TYR420      0.1957
    142  OH         5.9370  -21.4510    4.2000 O.3   420  TYR420     -0.2866
    143  N          1.3170  -22.1430    7.5240 N.3   422  ASN422     -0.1225
    144  CA         1.2390  -22.3910    6.1010 C.3   422  ASN422      0.1785
    145  C          0.0350  -23.2700    5.8830 C.2   422  ASN422      0.2597
    146  O         -1.0220  -22.8430    5.3980 O.2   422  ASN422     -0.2718
    147  CB         2.4850  -23.1360    5.6660 C.3   422  ASN422      0.1169
    148  CG         2.4620  -23.4900    4.2120 C.2   422  ASN422      0.2627
    149  OD1        1.6180  -24.2690    3.7670 O.2   422  ASN422     -0.2716
    150  ND2        3.3970  -22.9290    3.4530 N.am  422  ASN422     -0.0877
    151  N          0.2260  -24.5190    6.2630 N.am  423  LYS423     -0.1966
    152  CA        -0.8600  -25.3790    6.6470 C.3   423  LYS423      0.1728
    153  C         -0.4460  -25.5970    8.0900 C.2   423  LYS423      0.2616
    154  O          0.7080  -25.3350    8.4210 O.2   423  LYS423     -0.2715
    155  CB        -0.7870  -26.6780    5.8500 C.3   423  LYS423      0.0311
    156  CG        -2.1320  -27.2510    5.4690 C.3   423  LYS423      0.0038
    157  CD        -2.2200  -27.4910    3.9700 C.3   423  LYS423      0.0206
    158  CE        -1.2940  -28.6050    3.5230 C.3   423  LYS423      0.1093
    159  NZ        -1.7270  -29.2020    2.2230 N.3   423  LYS423     -0.1314
    160  N         -1.3540  -25.9990    8.9700 N.am  424  HIS424     -0.1973
    161  CA        -0.9010  -26.5010   10.2650 C.3   424  HIS424      0.1656
    162  C          0.1780  -25.6340   10.9350 C.2   424  HIS424      0.2291
    163  O          1.3390  -26.0190   10.9330 O.2   424  HIS424     -0.2864
    164  CB        -0.2960  -27.8940   10.0890 C.3   424  HIS424      0.0771
    165  CG        -1.2070  -28.8830    9.4410 C.ar  424  HIS424      0.0820
    166  ND1       -2.2900  -28.5120    8.6740 N.ar  424  HIS424     -0.2267
    167  CD2       -1.1880  -30.2360    9.4420 C.ar  424  HIS424      0.1154
    168  CE1       -2.9040  -29.5960    8.2340 C.ar  424  HIS424      0.1986
    169  NE2       -2.2560  -30.6550    8.6860 N.ar  424  HIS424     -0.2212
    170  N          3.2080  -23.9370   12.5450 N.3   426  PHE426     -0.1227
    171  CA         4.3860  -24.5670   13.1430 C.3   426  PHE426      0.1736
    172  C          5.2490  -23.5280   13.8290 C.2   426  PHE426      0.2595
    173  O          5.8800  -22.7090   13.1530 O.2   426  PHE426     -0.2718
    174  CB         5.2850  -25.1690   12.0590 C.3   426  PHE426      0.0547
    175  CG         4.6090  -26.1520   11.1640 C.ar  426  PHE426     -0.0202
    176  CD1        4.5910  -27.4980   11.4790 C.ar  426  PHE426     -0.0042
    177  CD2        4.0290  -25.7390    9.9840 C.ar  426  PHE426     -0.0042
    178  CE1        3.9780  -28.4120   10.6470 C.ar  426  PHE426     -0.0003
    179  CE2        3.4160  -26.6450    9.1460 C.ar  426  PHE426     -0.0003
    180  CZ         3.3900  -27.9840    9.4800 C.ar  426  PHE426     -0.0000
    181  N          5.3450  -23.5730   15.1510 N.am  427  HIS427     -0.1961
    182  CA         6.2530  -22.6420   15.7940 C.3   427  HIS427      0.1787
    183  C          7.6830  -23.1120   15.5830 C.2   427  HIS427      0.2620
    184  O          8.0090  -24.2780   15.8140 O.2   427  HIS427     -0.2715
    185  CB         5.9570  -22.4630   17.2820 C.3   427  HIS427      0.0785
    186  CG         6.6340  -21.2690   17.8760 C.ar  427  HIS427      0.0821
    187  ND1        6.2380  -19.9780   17.6000 N.ar  427  HIS427     -0.2267
    188  CD2        7.6990  -21.1650   18.7030 C.ar  427  HIS427      0.1154
    189  CE1        7.0190  -19.1310   18.2450 C.ar  427  HIS427      0.1986
    190  NE2        7.9140  -19.8260   18.9220 N.ar  427  HIS427     -0.2212
    191  N          8.5330  -22.2050   15.1220 N.am  428  THR428     -0.1951
    192  CA         9.9420  -22.5330   14.9650 C.3   428  THR428      0.1897
    193  C         10.8040  -21.6610   15.8630 C.2   428  THR428      0.2313
    194  O         10.4670  -20.5010   16.1290 O.2   428  THR428     -0.2863
    195  CB        10.4220  -22.3730   13.5060 C.3   428  THR428      0.1794
    196  OG1       10.9440  -21.0520   13.3080 O.3   428  THR428     -0.2208
    197  CG2        9.2840  -22.6270   12.5390 C.3   428  THR428      0.0378
    198  N         13.6010  -20.8410    3.6370 N.3   495  PHE495     -0.1241
    199  CA        14.2090  -22.0430    4.1840 C.3   495  PHE495      0.1605
    200  C         15.6780  -22.0670    3.8150 C.2   495  PHE495      0.2264
    201  O         16.0680  -21.6060    2.7420 O.2   495  PHE495     -0.2867
    202  CB        13.5400  -23.2980    3.6500 C.3   495  PHE495      0.0534
    203  CG        12.1000  -23.4180    4.0210 C.ar  495  PHE495     -0.0203
    204  CD1       11.1690  -22.5070    3.5480 C.ar  495  PHE495     -0.0042
    205  CD2       11.6660  -24.4540    4.8280 C.ar  495  PHE495     -0.0042
    206  CE1        9.8360  -22.6220    3.8820 C.ar  495  PHE495     -0.0003
    207  CE2       10.3300  -24.5770    5.1650 C.ar  495  PHE495     -0.0003
    208  CZ         9.4170  -23.6610    4.6930 C.ar  495  PHE495     -0.0000
@<TRIPOS>BOND
     1    46    44    1
     2    15    16    1
     3    44    43    2
     4    44    45    1
     5    39    38    2
     6    38    37    1
     7    16    17    1
     8    16    19    1
     9    43    42    1
    10    30    31    1
    11    17    18    2
    12    17    22   am
    13    24    25    2
    14    24    23    1
    15    84    83    2
    16    21    19    1
    17    47    48    1
    18    40    37    1
    19    40    41    1
    20    49    50    2
    21    49    48    1
    22    22    23    1
    23    37    36    1
    24    19    20    1
    25    33    32    2
    26    36    32   am
    27    32    31    1
    28    42    41    1
    29    31    34    1
    30    23    26    1
    31    48    51    1
    32    83    82    1
    33    26    27    1
    34    51    52    1
    35    34    35    1
    36    82    85    1
    37    82    81    1
    38    52    53    1
    39    85    86    1
    40    27    28    2
    41    27    29   am
    42   159   158    1
    43   100    98   ar
    44   100    99   ar
    45    98    96   ar
    46   201   200    2
    47    53    55   am
    48    53    54    2
    49   150   148   am
    50    99    97   ar
    51   158   157    1
    52   204   206   ar
    53   204   203   ar
    54    79    77    1
    55   198   199    1
    56   202   203    1
    57   202   199    1
    58    96    95   ar
    59    96    94   ar
    60   149   148    2
    61   200   199    1
    62   206   208   ar
    63   157   156    1
    64    95    93   ar
    65   203   205   ar
    66    78    77    1
    67    78    80    1
    68   142   141    1
    69   148   147    1
    70    97    94   ar
    71    77    74    1
    72   208   207   ar
    73    94    92   ar
    74   205   207   ar
    75    75    74    1
    76    75    76    2
    77    74    73    1
    78    93    92   ar
    79   146   145    2
    80   156   155    1
    81   141   139   ar
    82   141   140   ar
    83   147   144    1
    84    92    91    1
    85   155   152    1
    86   145   144    1
    87   145   151   am
    88   144   143    1
    89   139   137   ar
    90   151   152    1
    91   140   138   ar
    92   129   127   ar
    93   129   130   ar
    94   152   153    1
    95   108   106   am
    96    91    88    1
    97   127   125   ar
    98   130   128   ar
    99   112   111    2
   100   137   136   ar
   101   109   110    1
   102    72    71    1
   103   138   136   ar
   104   106   107    2
   105   106   105    1
   106    62    61    2
   107    88    89    1
   108    88    87    1
   109   153   154    2
   110   153   160   am
   111   168   166   ar
   112   168   169   ar
   113    71    70    1
   114   125   124    1
   115   125   126   ar
   116   111   110    1
   117   111   120   am
   118   136   135    1
   119   121   124    1
   120   121   120    1
   121   121   122    1
   122   128   126   ar
   123    70    69    1
   124   166   165   ar
   125   169   167   ar
   126    68    69    1
   127    68    65    1
   128   110   113    1
   129    89   101   am
   130    89    90    2
   131   101   102    1
   132   160   161    1
   133    61    63   am
   134    61    60    1
   135   105   102    1
   136   122   123    2
   137   179   180   ar
   138   179   177   ar
   139    66    67    2
   140    66    65    1
   141   165   167   ar
   142   165   164    1
   143   180   178   ar
   144   113   114    1
   145   102   103    1
   146   135   132    1
   147    65    64    1
   148   177   175   ar
   149    60    57    1
   150   164   161    1
   151   161   162    1
   152   133   132    1
   153   133   134    2
   154   132   131    1
   155   178   176   ar
   156   114   115    1
   157   163   162    2
   158    57    58    1
   159    57    56    1
   160   103   104    2
   161   175   176   ar
   162   175   174    1
   163     7     9   ar
   164     7     6   ar
   165     9    10   ar
   166     4     3    2
   167    58    59    2
   168   118   117    1
   169   174   171    1
   170   115   116    1
   171   117   116    2
   172   117   119    1
   173     6     5    1
   174     6     8   ar
   175    10    12   ar
   176    10     8   ar
   177   197   195    1
   178   170   171    1
   179     3     2    1
   180     5     2    1
   181    12    14   ar
   182   171   172    1
   183   173   172    2
   184     2     1    1
   185   196   195    1
   186     8    11   ar
   187   195   192    1
   188   172   181   am
   189    14    13   ar
   190    11    13   ar
   191   192   191    1
   192   192   193    1
   193   191   183   am
   194   181   182    1
   195   183   182    1
   196   183   184    2
   197   182   185    1
   198   193   194    2
   199   185   186    1
   200   187   186   ar
   201   187   189   ar
   202   186   188   ar
   203   189   190   ar
   204   188   190   ar
