@<TRIPOS>MOLECULE
tmp/5c8tB00.pdb
 206 206 0 0 0
SMALL
GASTEIGER

@<TRIPOS>ATOM
      1  N        -13.3860  -42.7740    2.6050 N.3   289  ARG289     -0.1231
      2  CA       -12.8650  -42.8090    1.2380 C.3   289  ARG289      0.1694
      3  C        -11.9490  -43.9760    0.8900 C.2   289  ARG289      0.2591
      4  O        -10.8530  -44.1130    1.4300 O.2   289  ARG289     -0.2718
      5  CB       -12.1640  -41.4920    0.8810 C.3   289  ARG289      0.0321
      6  CG       -13.1030  -40.3560    0.5040 C.3   289  ARG289      0.0489
      7  CD       -13.9460  -39.9250    1.6890 C.3   289  ARG289      0.2205
      8  NE       -15.0140  -39.0020    1.3120 N.pl3 289  ARG289     -0.0865
      9  CZ       -15.0930  -37.7400    1.7210 C.cat 289  ARG289      0.5346
     10  NH1      -14.1660  -37.2430    2.5280 N.pl3 289  ARG289      0.1354
     11  NH2      -16.1040  -36.9760    1.3280 N.pl3 289  ARG289      0.1354
     12  N        -12.4410  -44.8130   -0.0180 N.am  290  VAL290     -0.1980
     13  CA       -11.6060  -45.6790   -0.8490 C.3   290  VAL290      0.1595
     14  C        -10.5510  -46.5390   -0.1410 C.2   290  VAL290      0.2287
     15  O         -9.3680  -46.4770   -0.4810 O.2   290  VAL290     -0.2864
     16  CB       -10.9300  -44.8660   -1.9820 C.3   290  VAL290      0.0276
     17  CG1      -10.6890  -45.7460   -3.1940 C.3   290  VAL290      0.0022
     18  CG2      -11.8000  -43.6830   -2.3700 C.3   290  VAL290      0.0022
     19  N         -8.3990  -49.4160   -0.0400 N.3   292  TRP292     -0.1241
     20  CA        -7.8960  -50.0800   -1.2410 C.3   292  TRP292      0.1605
     21  C         -7.5180  -51.5450   -1.0560 C.2   292  TRP292      0.2264
     22  O         -7.0640  -52.1920   -1.9950 O.2   292  TRP292     -0.2867
     23  CB        -6.7110  -49.3120   -1.8320 C.3   292  TRP292      0.0550
     24  CG        -7.0770  -48.4560   -3.0040 C.ar  292  TRP292      0.0003
     25  CD1       -7.4870  -48.8830   -4.2320 C.ar  292  TRP292      0.0946
     26  CD2       -7.0510  -47.0270   -3.0630 C.ar  292  TRP292      0.0152
     27  NE1       -7.7260  -47.8090   -5.0520 N.ar  292  TRP292     -0.2442
     28  CE2       -7.4650  -46.6570   -4.3580 C.ar  292  TRP292      0.0810
     29  CE3       -6.7210  -46.0230   -2.1450 C.ar  292  TRP292      0.0012
     30  CZ2       -7.5600  -45.3260   -4.7600 C.ar  292  TRP292      0.0191
     31  CZ3       -6.8160  -44.7030   -2.5470 C.ar  292  TRP292      0.0001
     32  CH2       -7.2330  -44.3670   -3.8440 C.ar  292  TRP292      0.0015
     33  N         -8.7090  -45.9000  -19.4180 N.3   310  ARG310     -0.1245
     34  CA        -7.3560  -45.3580  -19.4090 C.3   310  ARG310      0.1563
     35  C         -6.9310  -44.9700  -20.8160 C.2   310  ARG310      0.2260
     36  O         -6.3090  -43.9290  -21.0260 O.2   310  ARG310     -0.2867
     37  CB        -6.3710  -46.3730  -18.8200 C.3   310  ARG310      0.0307
     38  CG        -5.9650  -46.0710  -17.3910 C.3   310  ARG310      0.0489
     39  CD        -7.1680  -45.6130  -16.5800 C.3   310  ARG310      0.2205
     40  NE        -7.5560  -46.5710  -15.5500 N.pl3 310  ARG310     -0.0865
     41  CZ        -8.7490  -46.5890  -14.9640 C.cat 310  ARG310      0.5346
     42  NH1       -9.6750  -45.7080  -15.3160 N.pl3 310  ARG310      0.1354
     43  NH2       -9.0210  -47.4910  -14.0310 N.pl3 310  ARG310      0.1354
     44  N         -8.3140  -41.7870  -21.7780 N.3   313  GLN313     -0.1245
     45  CA        -7.6730  -40.7870  -20.9260 C.3   313  GLN313      0.1566
     46  C         -6.4080  -40.2530  -21.5910 C.2   313  GLN313      0.2260
     47  O         -6.2580  -39.0460  -21.7790 O.2   313  GLN313     -0.2867
     48  CB        -7.3230  -41.3760  -19.5550 C.3   313  GLN313      0.0367
     49  CG        -6.6270  -40.3940  -18.6120 C.3   313  GLN313      0.0905
     50  CD        -5.9460  -41.0790  -17.4380 C.2   313  GLN313      0.2608
     51  OE1       -5.3320  -42.1350  -17.5920 O.2   313  GLN313     -0.2717
     52  NE2       -6.0520  -40.4790  -16.2570 N.am  313  GLN313     -0.0878
     53  N         -2.7790  -32.1920  -11.7200 N.3   331  ASP331     -0.1225
     54  CA        -3.5310  -33.4320  -11.7270 C.3   331  ASP331      0.1805
     55  C         -4.0570  -33.6730  -10.3230 C.2   331  ASP331      0.2598
     56  O         -3.2890  -33.9450   -9.3980 O.2   331  ASP331     -0.2718
     57  CB        -2.6460  -34.5910  -12.1820 C.3   331  ASP331      0.1424
     58  CG        -3.4410  -35.8390  -12.4970 C.2   331  ASP331      0.3668
     59  OD1       -4.6890  -35.7650  -12.5120 O.co2 331  ASP331     -0.2456
     60  OD2       -2.8170  -36.8920  -12.7420 O.co2 331  ASP331     -0.2456
     61  N         -5.3710  -33.5620  -10.1720 N.am  332  ILE332     -0.1966
     62  CA        -6.0030  -33.6940   -8.8700 C.3   332  ILE332      0.1727
     63  C         -6.6960  -35.0460   -8.7640 C.2   332  ILE332      0.2617
     64  O         -7.3560  -35.4940   -9.6990 O.2   332  ILE332     -0.2715
     65  CB        -7.0100  -32.5520   -8.6170 C.3   332  ILE332      0.0290
     66  CG1       -6.3420  -31.1910   -8.8460 C.3   332  ILE332      0.0022
     67  CG2       -7.5730  -32.6290   -7.2060 C.3   332  ILE332      0.0023
     68  CD1       -7.1970  -30.0070   -8.4270 C.3   332  ILE332      0.0001
     69  N         -6.5490  -35.6860   -7.6100 N.am  333  GLY333     -0.1940
     70  CA        -7.0320  -37.0400   -7.4190 C.3   333  GLY333      0.2014
     71  C         -6.1310  -38.0780   -8.0620 C.2   333  GLY333      0.2639
     72  O         -6.6050  -38.9850   -8.7430 O.2   333  GLY333     -0.2714
     73  N         -4.8260  -37.9370   -7.8470 N.am  334  ASN334     -0.1958
     74  CA        -3.8580  -38.9280   -8.3050 C.3   334  ASN334      0.1804
     75  C         -2.9840  -39.4070   -7.1490 C.2   334  ASN334      0.2463
     76  O         -1.9410  -38.8130   -6.8610 O.2   334  ASN334     -0.2730
     77  CB        -2.9890  -38.3710   -9.4320 C.3   334  ASN334      0.1195
     78  CG        -2.5670  -39.4390  -10.4260 C.2   334  ASN334      0.2630
     79  OD1       -2.6770  -40.6370  -10.1580 O.2   334  ASN334     -0.2716
     80  ND2       -2.0750  -39.0080  -11.5810 N.am  334  ASN334     -0.0877
     81  N         -3.4150  -40.4890   -6.4800 N.am  335  PRO335     -0.2727
     82  CA        -2.7480  -41.0230   -5.2870 C.3   335  PRO335      0.1402
     83  C         -1.3610  -41.5570   -5.6080 C.2   335  PRO335      0.2269
     84  O         -0.5240  -41.7020   -4.7180 O.2   335  PRO335     -0.2865
     85  CB        -3.6500  -42.1940   -4.8700 C.3   335  PRO335      0.0296
     86  CG        -4.9160  -42.0310   -5.6370 C.3   335  PRO335      0.0237
     87  CD        -4.5390  -41.3370   -6.9020 C.3   335  PRO335      0.0939
     88  N         -2.0540  -33.8270   -6.8840 N.3   351  TYR351     -0.1227
     89  CA        -2.7700  -33.4870   -5.6560 C.3   351  TYR351      0.1736
     90  C         -3.7580  -34.5800   -5.3220 C.2   351  TYR351      0.2595
     91  O         -4.4170  -35.1180   -6.2090 O.2   351  TYR351     -0.2718
     92  CB        -3.5320  -32.1800   -5.8170 C.3   351  TYR351      0.0548
     93  CG        -2.7000  -31.0830   -6.3930 C.ar  351  TYR351     -0.0200
     94  CD1       -2.5390  -30.9690   -7.7620 C.ar  351  TYR351     -0.0009
     95  CD2       -2.0670  -30.1640   -5.5710 C.ar  351  TYR351     -0.0009
     96  CE1       -1.7780  -29.9700   -8.3000 C.ar  351  TYR351      0.0417
     97  CE2       -1.3020  -29.1580   -6.1010 C.ar  351  TYR351      0.0417
     98  CZ        -1.1620  -29.0660   -7.4680 C.ar  351  TYR351      0.1957
     99  OH        -0.4000  -28.0660   -8.0150 O.3   351  TYR351     -0.2866
    100  N         -3.8400  -34.9290   -4.0460 N.am  352  ASP352     -0.1960
    101  CA        -4.7190  -36.0050   -3.6230 C.3   352  ASP352      0.1840
    102  C         -5.0770  -35.8620   -2.1530 C.2   352  ASP352      0.2622
    103  O         -4.2830  -35.3740   -1.3420 O.2   352  ASP352     -0.2715
    104  CB        -4.0240  -37.3460   -3.8930 C.3   352  ASP352      0.1450
    105  CG        -4.9860  -38.5180   -4.0160 C.2   352  ASP352      0.3671
    106  OD1       -5.4720  -38.7920   -5.1380 O.co2 352  ASP352     -0.2456
    107  OD2       -5.2180  -39.2260   -3.0050 O.co2 352  ASP352     -0.2456
    108  N         -6.2710  -36.3100   -1.8070 N.am  353  ALA353     -0.1963
    109  CA        -6.6970  -36.2920   -0.4200 C.3   353  ALA353      0.1728
    110  C         -6.0900  -37.4680    0.3360 C.2   353  ALA353      0.2616
    111  O         -5.7420  -37.3450    1.5080 O.2   353  ALA353     -0.2715
    112  CB        -8.2020  -36.3190   -0.3430 C.3   353  ALA353      0.0334
    113  N         -5.9520  -38.6010   -0.3450 N.am  354  GLN354     -0.1977
    114  CA        -5.4490  -39.8130    0.2880 C.3   354  GLN354      0.1601
    115  C         -4.2920  -40.3940   -0.5160 C.2   354  GLN354      0.2287
    116  O         -4.3960  -41.5010   -1.0450 O.2   354  GLN354     -0.2864
    117  CB        -6.5710  -40.8480    0.4010 C.3   354  GLN354      0.0394
    118  CG        -6.5960  -41.6070    1.7160 C.3   354  GLN354      0.0908
    119  CD        -7.2720  -40.8270    2.8270 C.2   354  GLN354      0.2608
    120  OE1       -7.5270  -39.6290    2.6960 O.2   354  GLN354     -0.2717
    121  NE2       -7.5750  -41.5070    3.9270 N.am  354  GLN354     -0.0878
    122  N         -4.1750  -32.6610   -0.3250 N.3   366  LEU366     -0.1231
    123  CA        -5.1050  -31.5690   -0.5790 C.3   366  LEU366      0.1693
    124  C         -6.5210  -32.0930   -0.7600 C.2   366  LEU366      0.2592
    125  O         -6.7250  -33.1830   -1.2920 O.2   366  LEU366     -0.2718
    126  CB        -4.6630  -30.8060   -1.8330 C.3   366  LEU366      0.0284
    127  CG        -5.2350  -29.4190   -2.1580 C.3   366  LEU366      0.0019
    128  CD1       -6.5860  -29.5010   -2.8600 C.3   366  LEU366      0.0001
    129  CD2       -5.3100  -28.5440   -0.9110 C.3   366  LEU366      0.0001
    130  N         -7.4980  -31.3100   -0.3140 N.am  367  PHE367     -0.1962
    131  CA        -8.8930  -31.5860   -0.6260 C.3   367  PHE367      0.1771
    132  C         -9.4850  -30.4160   -1.4010 C.2   367  PHE367      0.2619
    133  O         -9.6230  -29.3100   -0.8740 O.2   367  PHE367     -0.2715
    134  CB        -9.7130  -31.8610    0.6360 C.3   367  PHE367      0.0574
    135  CG       -11.1190  -32.3140    0.3500 C.ar  367  PHE367     -0.0200
    136  CD1      -12.1270  -31.3880    0.1330 C.ar  367  PHE367     -0.0042
    137  CD2      -11.4310  -33.6630    0.2830 C.ar  367  PHE367     -0.0042
    138  CE1      -13.4220  -31.7970   -0.1400 C.ar  367  PHE367     -0.0003
    139  CE2      -12.7220  -34.0790    0.0120 C.ar  367  PHE367     -0.0003
    140  CZ       -13.7200  -33.1440   -0.2010 C.ar  367  PHE367     -0.0000
    141  N         -9.8300  -30.6680   -2.6590 N.am  368  TYR368     -0.1974
    142  CA       -10.3420  -29.6210   -3.5350 C.3   368  TYR368      0.1639
    143  C        -11.7960  -29.2550   -3.2580 C.2   368  TYR368      0.2290
    144  O        -12.6780  -30.1150   -3.2270 O.2   368  TYR368     -0.2864
    145  CB       -10.1890  -30.0120   -5.0030 C.3   368  TYR368      0.0560
    146  CG       -10.4000  -28.8480   -5.9430 C.ar  368  TYR368     -0.0198
    147  CD1       -9.3460  -28.0160   -6.2910 C.ar  368  TYR368     -0.0009
    148  CD2      -11.6550  -28.5690   -6.4700 C.ar  368  TYR368     -0.0009
    149  CE1       -9.5280  -26.9460   -7.1440 C.ar  368  TYR368      0.0417
    150  CE2      -11.8490  -27.4990   -7.3250 C.ar  368  TYR368      0.0417
    151  CZ       -10.7800  -26.6910   -7.6580 C.ar  368  TYR368      0.1957
    152  OH       -10.9560  -25.6220   -8.5080 O.3   368  TYR368     -0.2866
    153  N         -9.5990  -36.6630  -13.2110 N.3   385  TRP385     -0.1227
    154  CA       -10.0360  -37.8580  -13.9140 C.3   385  TRP385      0.1737
    155  C        -10.6910  -38.7810  -12.9100 C.2   385  TRP385      0.2595
    156  O        -10.0220  -39.3730  -12.0660 O.2   385  TRP385     -0.2718
    157  CB        -8.8650  -38.5550  -14.6060 C.3   385  TRP385      0.0564
    158  CG        -9.2940  -39.4820  -15.7040 C.ar  385  TRP385      0.0003
    159  CD1       -9.3350  -40.8460  -15.6570 C.ar  385  TRP385      0.0946
    160  CD2       -9.7440  -39.1130  -17.0150 C.ar  385  TRP385      0.0152
    161  NE1       -9.7790  -41.3480  -16.8560 N.ar  385  TRP385     -0.2442
    162  CE2      -10.0380  -40.3060  -17.7060 C.ar  385  TRP385      0.0810
    163  CE3       -9.9270  -37.8920  -17.6710 C.ar  385  TRP385      0.0012
    164  CZ2      -10.5040  -40.3130  -19.0190 C.ar  385  TRP385      0.0191
    165  CZ3      -10.3900  -37.9010  -18.9770 C.ar  385  TRP385      0.0001
    166  CH2      -10.6720  -39.1040  -19.6360 C.ar  385  TRP385      0.0015
    167  N        -12.0090  -38.8990  -13.0140 N.am  386  ASN386     -0.1960
    168  CA       -12.7980  -39.6160  -12.0240 C.3   386  ASN386      0.1819
    169  C        -12.5190  -39.1450  -10.6010 C.2   386  ASN386      0.2621
    170  O        -12.5510  -39.9340   -9.6600 O.2   386  ASN386     -0.2715
    171  CB       -12.6080  -41.1270  -12.1530 C.3   386  ASN386      0.1195
    172  CG       -12.9800  -41.6370  -13.5280 C.2   386  ASN386      0.2630
    173  OD1      -13.5820  -40.9170  -14.3230 O.2   386  ASN386     -0.2716
    174  ND2      -12.6200  -42.8820  -13.8190 N.am  386  ASN386     -0.0877
    175  N        -12.2390  -37.8530  -10.4560 N.am  387  CYS387     -0.1954
    176  CA       -12.2150  -37.2260   -9.1450 C.3   387  CYS387      0.1843
    177  C        -13.4310  -36.3110   -9.0830 C.2   387  CYS387      0.2625
    178  O        -13.4580  -35.2590   -9.7170 O.2   387  CYS387     -0.2714
    179  CB       -10.9180  -36.4300   -8.9520 C.3   387  CYS387      0.0997
    180  SG       -10.5420  -35.9910   -7.2350 S.3   387  CYS387     -0.0797
    181  N        -14.4290  -36.7210   -8.3060 N.am  388  ASN388     -0.1958
    182  CA       -15.7370  -36.0680   -8.2740 C.3   388  ASN388      0.1819
    183  C        -15.7550  -34.9710   -7.2280 C.2   388  ASN388      0.2621
    184  O        -15.5220  -35.2310   -6.0500 O.2   388  ASN388     -0.2715
    185  CB       -16.8300  -37.0910   -7.9590 C.3   388  ASN388      0.1195
    186  CG       -16.5280  -38.4630   -8.5320 C.2   388  ASN388      0.2630
    187  OD1      -16.9210  -38.7810   -9.6540 O.2   388  ASN388     -0.2716
    188  ND2      -15.8250  -39.2860   -7.7600 N.am  388  ASN388     -0.0877
    189  N        -16.0380  -33.7440   -7.6500 N.am  389  VAL389     -0.1977
    190  CA       -15.8350  -32.6040   -6.7680 C.3   389  VAL389      0.1596
    191  C        -16.9720  -31.5970   -6.7170 C.2   389  VAL389      0.2287
    192  O        -18.0110  -31.7420   -7.3650 O.2   389  VAL389     -0.2864
    193  CB       -14.5840  -31.7940   -7.1840 C.3   389  VAL389      0.0276
    194  CG1      -13.8220  -31.3300   -5.9610 C.3   389  VAL389      0.0022
    195  CG2      -13.6850  -32.6100   -8.0900 C.3   389  VAL389      0.0022
    196  N        -15.9560  -47.0760   -5.3320 N.3   426  PHE426     -0.1241
    197  CA       -15.9210  -45.6390   -5.0960 C.3   426  PHE426      0.1605
    198  C        -17.3430  -45.1050   -5.0020 C.2   426  PHE426      0.2264
    199  O        -18.1130  -45.2110   -5.9570 O.2   426  PHE426     -0.2867
    200  CB       -15.2100  -44.9150   -6.2450 C.3   426  PHE426      0.0534
    201  CG       -14.0000  -45.6320   -6.7710 C.ar  426  PHE426     -0.0203
    202  CD1      -12.7470  -45.4130   -6.2200 C.ar  426  PHE426     -0.0042
    203  CD2      -14.1140  -46.5090   -7.8370 C.ar  426  PHE426     -0.0042
    204  CE1      -11.6340  -46.0710   -6.7150 C.ar  426  PHE426     -0.0003
    205  CE2      -13.0080  -47.1670   -8.3360 C.ar  426  PHE426     -0.0003
    206  CZ       -11.7670  -46.9490   -7.7760 C.ar  426  PHE426     -0.0000
@<TRIPOS>BOND
     1    47    46    2
     2    44    45    1
     3    46    45    1
     4    36    35    2
     5    45    48    1
     6    35    34    1
     7   166   164   ar
     8   166   165   ar
     9    48    49    1
    10    33    34    1
    11    34    37    1
    12   164   162   ar
    13   165   163   ar
    14    37    38    1
    15    49    50    1
    16   162   160   ar
    17   162   161   ar
    18   163   160   ar
    19    51    50    2
    20    50    52   am
    21    38    39    1
    22   160   158   ar
    23   161   159   ar
    24    39    40    1
    25   158   159   ar
    26   158   157    1
    27    40    41    2
    28    42    41    1
    29    41    43    1
    30   157   154    1
    31   173   172    2
    32   154   153    1
    33   154   155    1
    34   174   172   am
    35   172   171    1
    36   167   155   am
    37   167   168    1
    38   155   156    2
    39    60    58   ar
    40    59    58   ar
    41    58    57    1
    42    57    54    1
    43   171   168    1
    44   168   169    1
    45    54    53    1
    46    54    55    1
    47    80    78   am
    48   169   175   am
    49   169   170    2
    50   175   176    1
    51    78    79    2
    52    78    77    1
    53    55    61   am
    54    55    56    2
    55    61    62    1
    56   178   177    2
    57    64    63    2
    58   187   186    2
    59    77    74    1
    60   176   177    1
    61   176   179    1
    62   177   181   am
    63   179   180    1
    64    62    63    1
    65    62    65    1
    66    66    65    1
    67    66    68    1
    68    63    69   am
    69    72    71    2
    70    65    67    1
    71   186   185    1
    72   186   188   am
    73   152   151    1
    74   205   203   ar
    75   205   206   ar
    76   181   182    1
    77    74    73    1
    78    74    75    1
    79    96    94   ar
    80    96    98   ar
    81   182   185    1
    82   182   183    1
    83   195   193    1
    84    71    73   am
    85    71    70    1
    86    99    98    1
    87   203   201   ar
    88   206   204   ar
    89    94    93   ar
    90   151   150   ar
    91   151   149   ar
    92   189   183   am
    93   189   190    1
    94    69    70    1
    95    98    97   ar
    96   192   191    2
    97   150   148   ar
    98   183   184    2
    99   193   190    1
   100   193   194    1
   101    75    76    2
   102    75    81   am
   103   149   147   ar
   104    87    81    1
   105    87    86    1
   106    88    89    1
   107   201   200    1
   108   201   202   ar
   109   190   191    1
   110   204   202   ar
   111    81    82    1
   112   148   146   ar
   113    93    92    1
   114    93    95   ar
   115   147   146   ar
   116   200   197    1
   117    91    90    2
   118    97    95   ar
   119   199   198    2
   120   146   145    1
   121    92    89    1
   122    89    90    1
   123    86    85    1
   124    83    82    1
   125    83    84    2
   126   196   197    1
   127    90   100   am
   128    82    85    1
   129   106   105   ar
   130   197   198    1
   131    27    28   ar
   132    27    25   ar
   133   145   142    1
   134    30    28   ar
   135    30    32   ar
   136    28    26   ar
   137    25    24   ar
   138   100   101    1
   139   105   104    1
   140   105   107   ar
   141   104   101    1
   142    32    31   ar
   143   101   102    1
   144   142   143    1
   145   142   141    1
   146   143   144    2
   147    17    16    1
   148    26    24   ar
   149    26    29   ar
   150    24    23    1
   151   128   127    1
   152   141   132   am
   153    31    29   ar
   154    18    16    1
   155   127   126    1
   156   127   129    1
   157   102   108   am
   158   102   103    2
   159    22    21    2
   160    16    13    1
   161   126   123    1
   162    23    20    1
   163   108   109    1
   164   132   133    2
   165   132   131    1
   166   125   124    2
   167    20    21    1
   168    20    19    1
   169   116   115    2
   170    13    14    1
   171    13    12    1
   172   124   123    1
   173   124   130   am
   174   131   130    1
   175   131   134    1
   176   123   122    1
   177   115   114    1
   178    15    14    2
   179   109   112    1
   180   109   110    1
   181   113   114    1
   182   113   110   am
   183   140   138   ar
   184   140   139   ar
   185   138   136   ar
   186    12     3   am
   187   139   137   ar
   188   136   135   ar
   189   137   135   ar
   190   114   117    1
   191   110   111    2
   192   135   134    1
   193   117   118    1
   194     6     5    1
   195     6     7    1
   196     5     2    1
   197     3     2    1
   198     3     4    2
   199     2     1    1
   200     8     7    1
   201     8     9    2
   202    11     9    1
   203   118   119    1
   204     9    10    1
   205   120   119    2
   206   119   121   am
