@<TRIPOS>MOLECULE
tmp/5c8wB01.pdb
 104 101 0 0 0
SMALL
GASTEIGER

@<TRIPOS>ATOM
      1  N         -3.0010  -16.2410   23.6620 N.3    41  ARG41      -0.1245
      2  CA        -3.4170  -17.5900   23.2640 C.3    41  ARG41       0.1563
      3  C         -2.2170  -18.5130   23.3110 C.2    41  ARG41       0.2260
      4  O         -1.2580  -18.3450   22.5580 O.2    41  ARG41      -0.2867
      5  CB        -4.0520  -17.6090   21.8740 C.3    41  ARG41       0.0307
      6  CG        -5.3130  -16.7910   21.8500 C.3    41  ARG41       0.0489
      7  CD        -6.2720  -17.1370   20.7440 C.3    41  ARG41       0.2205
      8  NE        -6.5480  -18.5680   20.4850 N.pl3  41  ARG41      -0.0865
      9  CZ        -7.7250  -19.1440   20.7300 C.cat  41  ARG41       0.5346
     10  NH1       -8.7140  -18.4640   21.3780 N.pl3  41  ARG41       0.1354
     11  NH2       -7.8980  -20.4430   20.3580 N.pl3  41  ARG41       0.1354
     12  N         -0.6280  -22.5210   23.2950 N.3    43  TYR43      -0.1241
     13  CA        -0.8090  -23.7910   22.6030 C.3    43  TYR43       0.1605
     14  C          0.1040  -24.8790   23.1370 C.2    43  TYR43       0.2264
     15  O          1.2910  -24.6620   23.3560 O.2    43  TYR43      -0.2867
     16  CB        -0.5550  -23.5820   21.0950 C.3    43  TYR43       0.0534
     17  CG        -1.5510  -22.6790   20.4390 C.ar   43  TYR43      -0.0201
     18  CD1       -1.3780  -21.3060   20.4410 C.ar   43  TYR43      -0.0009
     19  CD2       -2.6770  -23.1990   19.8210 C.ar   43  TYR43      -0.0009
     20  CE1       -2.2780  -20.4760   19.8370 C.ar   43  TYR43       0.0417
     21  CE2       -3.6050  -22.3720   19.2150 C.ar   43  TYR43       0.0417
     22  CZ        -3.3910  -21.0130   19.2030 C.ar   43  TYR43       0.1957
     23  OH        -4.3100  -20.1710   18.6300 O.3    43  TYR43      -0.2866
     24  N         -1.7110  -24.3510   15.3900 N.3    49  ILE49      -0.1231
     25  CA        -2.2520  -23.0160   15.5750 C.3    49  ILE49       0.1692
     26  C         -3.0880  -22.6440   14.3550 C.2    49  ILE49       0.2592
     27  O         -4.1520  -22.0220   14.4800 O.2    49  ILE49      -0.2718
     28  CB        -1.1230  -21.9820   15.7750 C.3    49  ILE49       0.0266
     29  CG1       -0.3140  -22.3490   17.0340 C.3    49  ILE49       0.0019
     30  CG2       -1.7070  -20.5540   15.8470 C.3    49  ILE49       0.0020
     31  CD1        0.5520  -21.2540   17.5670 C.3    49  ILE49       0.0001
     32  N         -2.5810  -23.0520   13.1930 N.am   50  ILE50      -0.1966
     33  CA        -3.2000  -22.8050   11.8790 C.3    50  ILE50       0.1727
     34  C         -3.1810  -24.0870   11.0870 C.2    50  ILE50       0.2616
     35  O         -2.1710  -24.7780   11.0650 O.2    50  ILE50      -0.2715
     36  CB        -2.4550  -21.7060   11.1140 C.3    50  ILE50       0.0290
     37  CG1       -2.6920  -20.3880   11.8120 C.3    50  ILE50       0.0022
     38  CG2       -2.9140  -21.6270    9.6510 C.3    50  ILE50       0.0023
     39  CD1       -1.8680  -19.2420   11.2720 C.3    50  ILE50       0.0001
     40  N         -4.2780  -24.3850   10.3880 N.am   51  LYS51      -0.1977
     41  CA        -4.3460  -25.5370    9.4870 C.3    51  LYS51       0.1596
     42  C         -4.5510  -25.0690    8.0720 C.2    51  LYS51       0.2287
     43  O         -5.4700  -24.3000    7.8230 O.2    51  LYS51      -0.2864
     44  CB        -5.4970  -26.4620    9.8670 C.3    51  LYS51       0.0298
     45  CG        -5.3220  -27.0760   11.2500 C.3    51  LYS51       0.0038
     46  CD        -6.3840  -28.1340   11.5900 C.3    51  LYS51       0.0206
     47  CE        -6.4010  -28.4370   13.1010 C.3    51  LYS51       0.1093
     48  NZ        -6.1740  -29.8820   13.4370 N.3    51  LYS51      -0.1314
     49  N         -7.9680  -23.7630    5.9250 N.3    54  GLU54      -0.1231
     50  CA        -9.0390  -23.2120    6.7540 C.3    54  GLU54       0.1684
     51  C         -9.1820  -21.7000    6.5220 C.2    54  GLU54       0.2434
     52  O         -8.3020  -21.0560    5.9590 O.2    54  GLU54      -0.2733
     53  CB        -8.7970  -23.4900    8.2420 C.3    54  GLU54       0.0402
     54  CG        -8.9700  -24.9460    8.6180 C.3    54  GLU54       0.1161
     55  CD        -8.9500  -25.2060   10.1260 C.2    54  GLU54       0.3649
     56  OE1       -8.6600  -24.2790   10.9440 O.co2  54  GLU54      -0.2457
     57  OE2       -9.2550  -26.3620   10.4800 O.co2  54  GLU54      -0.2457
     58  N        -10.3000  -21.1190    6.9590 N.am   55  PRO55      -0.2729
     59  CA       -10.3820  -19.6640    6.9140 C.3    55  PRO55       0.1401
     60  C         -9.4010  -19.0460    7.8920 C.2    55  PRO55       0.2269
     61  O         -9.0650  -19.6550    8.8970 O.2    55  PRO55      -0.2865
     62  CB       -11.8360  -19.3720    7.3060 C.3    55  PRO55       0.0296
     63  CG       -12.3190  -20.6030    7.9890 C.3    55  PRO55       0.0237
     64  CD       -11.5820  -21.7350    7.3590 C.3    55  PRO55       0.0939
     65  N         -8.7860  -16.6070   10.7690 N.3    57  ASN57      -0.1225
     66  CA        -9.6220  -15.8790   11.7120 C.3    57  ASN57       0.1785
     67  C         -8.8560  -15.0020   12.6990 C.2    57  ASN57       0.2597
     68  O         -9.4630  -14.2540   13.4570 O.2    57  ASN57      -0.2718
     69  CB       -10.4880  -16.8630   12.4880 C.3    57  ASN57       0.1169
     70  CG       -11.5350  -17.5270   11.6120 C.2    57  ASN57       0.2627
     71  OD1      -11.7270  -18.7350   11.6640 O.2    57  ASN57      -0.2716
     72  ND2      -12.2170  -16.7320   10.8100 N.am   57  ASN57      -0.0877
     73  N         -7.5270  -15.1180   12.6770 N.am   58  HIS58      -0.1975
     74  CA        -6.6700  -14.3850   13.5870 C.3    58  HIS58       0.1656
     75  C         -5.3600  -14.0060   12.9520 C.2    58  HIS58       0.2291
     76  O         -4.8530  -14.7240   12.0870 O.2    58  HIS58      -0.2864
     77  CB        -6.3290  -15.2110   14.8260 C.3    58  HIS58       0.0771
     78  CG        -7.5190  -15.7650   15.5450 C.ar   58  HIS58       0.0820
     79  ND1       -8.1160  -16.9550   15.1810 N.ar   58  HIS58      -0.2267
     80  CD2       -8.2240  -15.2960   16.5980 C.ar   58  HIS58       0.1154
     81  CE1       -9.1330  -17.1970   15.9860 C.ar   58  HIS58       0.1986
     82  NE2       -9.2170  -16.2100   16.8560 N.ar   58  HIS58      -0.2212
     83  N         -1.4390  -13.4110   14.4670 N.3    60  PHE60      -0.1241
     84  CA        -0.7040  -13.8580   15.6490 C.3    60  PHE60       0.1605
     85  C          0.6600  -13.2130   15.7190 C.2    60  PHE60       0.2264
     86  O          1.2520  -12.8800   14.6800 O.2    60  PHE60      -0.2867
     87  CB        -0.4620  -15.3710   15.6340 C.3    60  PHE60       0.0534
     88  CG        -1.7330  -16.2160   15.6730 C.ar   60  PHE60      -0.0203
     89  CD1       -2.3310  -16.6190   14.4920 C.ar   60  PHE60      -0.0042
     90  CD2       -2.2820  -16.6190   16.8640 C.ar   60  PHE60      -0.0042
     91  CE1       -3.4470  -17.4100   14.5000 C.ar   60  PHE60      -0.0003
     92  CE2       -3.3920  -17.4130   16.8930 C.ar   60  PHE60      -0.0003
     93  CZ        -3.9920  -17.8150   15.7020 C.ar   60  PHE60      -0.0000
     94  N         -5.9840  -20.2990    4.5730 N.3    96  ARG96      -0.1245
     95  CA        -4.6390  -20.5130    5.1490 C.3    96  ARG96       0.1563
     96  C         -3.7410  -21.2360    4.1660 C.2    96  ARG96       0.2260
     97  O         -4.0990  -22.3090    3.6440 O.2    96  ARG96      -0.2867
     98  CB        -4.7200  -21.3180    6.4460 C.3    96  ARG96       0.0307
     99  CG        -5.4950  -20.6060    7.5570 C.3    96  ARG96       0.0489
    100  CD        -4.7900  -19.3130    7.9700 C.3    96  ARG96       0.2205
    101  NE        -5.2180  -18.8110    9.2730 N.pl3  96  ARG96      -0.0865
    102  CZ        -4.9280  -17.5980    9.7330 C.cat  96  ARG96       0.5346
    103  NH1       -4.2230  -16.7640    9.0130 N.pl3  96  ARG96       0.1354
    104  NH2       -5.3300  -17.2130   10.9300 N.pl3  96  ARG96       0.1354
@<TRIPOS>BOND
     1    97    96    2
     2    96    95    1
     3    94    95    1
     4    95    98    1
     5    49    50    1
     6    52    51    2
     7    98    99    1
     8    51    50    1
     9    51    58   am
    10    50    53    1
    11    59    58    1
    12    59    62    1
    13    59    60    1
    14    58    64    1
    15    62    63    1
    16    64    63    1
    17    99   100    1
    18    43    42    2
    19    60    61    2
    20   100   101    1
    21    42    41    1
    22    53    54    1
    23    54    55    1
    24   103   102    1
    25   101   102    2
    26    41    44    1
    27    41    40    1
    28    38    36    1
    29   102   104    1
    30    44    45    1
    31    55    57   ar
    32    55    56   ar
    33    40    34   am
    34    65    66    1
    35    72    70   am
    36    35    34    2
    37    34    33    1
    38    36    37    1
    39    36    33    1
    40    45    46    1
    41    39    37    1
    42    46    47    1
    43    70    71    2
    44    70    69    1
    45    66    69    1
    46    66    67    1
    47    33    32    1
    48    76    75    2
    49    73    67   am
    50    73    74    1
    51    67    68    2
    52    75    74    1
    53    47    48    1
    54    32    26   am
    55    74    77    1
    56    26    27    2
    57    26    25    1
    58    83    84    1
    59    89    91   ar
    60    89    88   ar
    61    91    93   ar
    62    86    85    2
    63    77    78    1
    64    79    78   ar
    65    79    81   ar
    66    24    25    1
    67    78    80   ar
    68    25    28    1
    69    87    84    1
    70    87    88    1
    71    84    85    1
    72    88    90   ar
    73    93    92   ar
    74    28    30    1
    75    28    29    1
    76    81    82   ar
    77    80    82   ar
    78    90    92   ar
    79    29    31    1
    80    23    22    1
    81    22    21   ar
    82    22    20   ar
    83    21    19   ar
    84    19    17   ar
    85    20    18   ar
    86    11     9    1
    87    17    18   ar
    88    17    16    1
    89     8     9    2
    90     8     7    1
    91     9    10    1
    92     7     6    1
    93    16    13    1
    94     6     5    1
    95     5     2    1
    96     4     3    2
    97    13    14    1
    98    13    12    1
    99    14    15    2
   100     2     3    1
   101     2     1    1
