@<TRIPOS>MOLECULE
tmp/5c8wB02.pdb
 120 113 0 0 0
SMALL
GASTEIGER

@<TRIPOS>ATOM
      1  N         -2.5810  -23.0520   13.1930 N.3    50  ILE50      -0.1245
      2  CA        -3.2000  -22.8050   11.8790 C.3    50  ILE50       0.1561
      3  C         -3.1810  -24.0870   11.0870 C.2    50  ILE50       0.2260
      4  O         -2.1710  -24.7780   11.0650 O.2    50  ILE50      -0.2867
      5  CB        -2.4550  -21.7060   11.1140 C.3    50  ILE50       0.0252
      6  CG1       -2.6920  -20.3880   11.8120 C.3    50  ILE50       0.0019
      7  CG2       -2.9140  -21.6270    9.6510 C.3    50  ILE50       0.0019
      8  CD1       -1.8680  -19.2420   11.2720 C.3    50  ILE50       0.0001
      9  N          6.2460  -24.3990   10.1010 N.3    69  VAL69      -0.1245
     10  CA         5.3000  -24.2320    9.0050 C.3    69  VAL69       0.1561
     11  C          5.4470  -25.3770    8.0280 C.2    69  VAL69       0.2260
     12  O          6.5540  -25.6760    7.5710 O.2    69  VAL69      -0.2867
     13  CB         5.5280  -22.9010    8.3030 C.3    69  VAL69       0.0252
     14  CG1        4.5260  -22.7000    7.1620 C.3    69  VAL69       0.0019
     15  CG2        5.4350  -21.7610    9.3030 C.3    69  VAL69       0.0019
     16  N          3.4900  -27.6400    4.6280 N.3    71  GLN71      -0.1245
     17  CA         2.4370  -27.9690    3.6730 C.3    71  GLN71       0.1566
     18  C          2.4380  -29.4840    3.4970 C.2    71  GLN71       0.2260
     19  O          3.3520  -30.0700    2.8980 O.2    71  GLN71      -0.2867
     20  CB         2.6500  -27.2460    2.3470 C.3    71  GLN71       0.0367
     21  CG         2.4670  -25.7490    2.4620 C.3    71  GLN71       0.0905
     22  CD         2.6770  -25.0380    1.1440 C.2    71  GLN71       0.2608
     23  OE1        3.5540  -25.4170    0.3830 O.2    71  GLN71      -0.2717
     24  NE2        1.8910  -24.0010    0.8730 N.am   71  GLN71      -0.0878
     25  N          8.6270  -26.2030    5.7620 N.3    76  LEU76      -0.1231
     26  CA         9.0490  -25.0030    5.0420 C.3    76  LEU76       0.1693
     27  C          9.9030  -24.0320    5.8210 C.2    76  LEU76       0.2592
     28  O         10.7880  -23.4180    5.2430 O.2    76  LEU76      -0.2718
     29  CB         7.8220  -24.2310    4.5620 C.3    76  LEU76       0.0284
     30  CG         6.8890  -24.9590    3.5890 C.3    76  LEU76       0.0019
     31  CD1        5.7760  -23.9770    3.1650 C.3    76  LEU76       0.0001
     32  CD2        7.6330  -25.5050    2.4010 C.3    76  LEU76       0.0001
     33  N          9.5870  -23.8340    7.0990 N.am   77  SER77      -0.1952
     34  CA        10.2490  -22.8010    7.9060 C.3    77  SER77       0.1924
     35  C          9.9250  -22.9220    9.3640 C.2    77  SER77       0.2314
     36  O          9.0120  -23.6490    9.7360 O.2    77  SER77      -0.2863
     37  CB         9.8460  -21.4010    7.4220 C.3    77  SER77       0.2116
     38  OG         8.4920  -21.1420    7.7180 O.3    77  SER77      -0.2180
     39  N          9.1250  -20.2220   12.5680 N.3    79  ILE79      -0.1245
     40  CA         8.7540  -18.8160   12.7660 C.3    79  ILE79       0.1561
     41  C          9.6940  -18.2160   13.8240 C.2    79  ILE79       0.2260
     42  O          9.7530  -18.7300   14.9330 O.2    79  ILE79      -0.2867
     43  CB         7.2900  -18.7060   13.1720 C.3    79  ILE79       0.0252
     44  CG1        6.4270  -19.1900   11.9910 C.3    79  ILE79       0.0019
     45  CG2        6.9170  -17.2750   13.5160 C.3    79  ILE79       0.0019
     46  CD1        4.9760  -19.1700   12.2430 C.3    79  ILE79       0.0001
     47  N          5.2650  -11.7610   13.4590 N.3    84  THR84      -0.1203
     48  CA         3.8540  -11.8030   13.1110 C.3    84  THR84       0.1994
     49  C          3.6240  -12.9580   12.1290 C.2    84  THR84       0.2618
     50  O          4.4600  -13.1910   11.2520 O.2    84  THR84      -0.2717
     51  CB         3.4450  -10.4760   12.4720 C.3    84  THR84       0.1784
     52  OG1        3.7610   -9.4040   13.3490 O.3    84  THR84      -0.2211
     53  CG2        1.9750  -10.4510   12.1910 C.3    84  THR84       0.0376
     54  N          2.5250  -13.6890   12.2650 N.am   85  PHE85      -0.1961
     55  CA         2.1590  -14.7070   11.2620 C.3    85  PHE85       0.1771
     56  C          0.6410  -14.8330   11.2040 C.2    85  PHE85       0.2620
     57  O         -0.0790  -14.4140   12.1120 O.2    85  PHE85      -0.2715
     58  CB         2.8230  -16.0700   11.5540 C.3    85  PHE85       0.0574
     59  CG         2.3530  -16.7300   12.8230 C.ar   85  PHE85      -0.0200
     60  CD1        2.9200  -16.4140   14.0520 C.ar   85  PHE85      -0.0042
     61  CD2        1.3540  -17.6830   12.7880 C.ar   85  PHE85      -0.0042
     62  CE1        2.4670  -16.9970   15.1880 C.ar   85  PHE85      -0.0003
     63  CE2        0.9140  -18.2830   13.9560 C.ar   85  PHE85      -0.0003
     64  CZ         1.4710  -17.9430   15.1430 C.ar   85  PHE85      -0.0000
     65  N          0.1480  -15.3660   10.0950 N.am   86  GLY86      -0.1940
     66  CA        -1.2740  -15.5500    9.9280 C.3    86  GLY86       0.2014
     67  C         -1.9300  -14.3570    9.2990 C.2    86  GLY86       0.2639
     68  O         -3.1580  -14.3000    9.2250 O.2    86  GLY86      -0.2714
     69  N         -1.1410  -13.4100    8.8090 N.am   87  GLU87      -0.1963
     70  CA        -1.7490  -12.2440    8.1890 C.3    87  GLU87       0.1733
     71  C         -2.0900  -12.4900    6.7120 C.2    87  GLU87       0.2616
     72  O         -2.9290  -11.7840    6.1790 O.2    87  GLU87      -0.2715
     73  CB        -0.9020  -10.9790    8.3390 C.3    87  GLU87       0.0429
     74  CG         0.2640  -10.8310    7.4470 C.3    87  GLU87       0.1163
     75  CD         1.4320  -11.7120    7.8460 C.2    87  GLU87       0.3649
     76  OE1        1.3240  -12.4800    8.8210 O.co2  87  GLU87      -0.2457
     77  OE2        2.4810  -11.6420    7.1880 O.co2  87  GLU87      -0.2457
     78  N         -1.4660  -13.4710    6.0650 N.am   88  LEU88      -0.1963
     79  CA        -1.6720  -13.6300    4.6220 C.3    88  LEU88       0.1728
     80  C         -3.1180  -13.9330    4.2860 C.2    88  LEU88       0.2616
     81  O         -3.7120  -13.2620    3.4170 O.2    88  LEU88      -0.2715
     82  CB        -0.7590  -14.7310    4.0650 C.3    88  LEU88       0.0311
     83  CG         0.7360  -14.6080    4.3110 C.3    88  LEU88       0.0022
     84  CD1        1.4430  -15.6520    3.4750 C.3    88  LEU88       0.0001
     85  CD2        1.2270  -13.2200    4.0000 C.3    88  LEU88       0.0001
     86  N         -3.6970  -14.9360    4.9320 N.am   89  ALA89      -0.1977
     87  CA        -5.0940  -15.3130    4.5880 C.3    89  ALA89       0.1597
     88  C         -6.0190  -14.1060    4.6910 C.2    89  ALA89       0.2287
     89  O         -6.9180  -13.9120    3.8600 O.2    89  ALA89      -0.2864
     90  CB        -5.6040  -16.4370    5.4760 C.3    89  ALA89       0.0319
     91  N         -5.9840  -20.2990    4.5730 N.3    96  ARG96      -0.1231
     92  CA        -4.6390  -20.5130    5.1490 C.3    96  ARG96       0.1694
     93  C         -3.7410  -21.2360    4.1660 C.2    96  ARG96       0.2593
     94  O         -4.0990  -22.3090    3.6440 O.2    96  ARG96      -0.2718
     95  CB        -4.7200  -21.3180    6.4460 C.3    96  ARG96       0.0321
     96  CG        -5.4950  -20.6060    7.5570 C.3    96  ARG96       0.0489
     97  CD        -4.7900  -19.3130    7.9700 C.3    96  ARG96       0.2205
     98  NE        -5.2180  -18.8110    9.2730 N.pl3  96  ARG96      -0.0865
     99  CZ        -4.9280  -17.5980    9.7330 C.cat  96  ARG96       0.5346
    100  NH1       -4.2230  -16.7640    9.0130 N.pl3  96  ARG96       0.1354
    101  NH2       -5.3300  -17.2130   10.9300 N.pl3  96  ARG96       0.1354
    102  N         -2.5820  -20.6450    3.8870 N.am   97  THR97      -0.1939
    103  CA        -1.7140  -21.1910    2.8340 C.3    97  THR97       0.2028
    104  C         -0.8740  -22.3900    3.2430 C.2    97  THR97       0.2642
    105  O         -0.3400  -23.1010    2.3890 O.2    97  THR97      -0.2714
    106  CB        -0.7760  -20.1210    2.3010 C.3    97  THR97       0.1808
    107  OG1        0.1510  -19.7430    3.3300 O.3    97  THR97      -0.2208
    108  CG2       -1.5710  -18.9040    1.7770 C.3    97  THR97       0.0379
    109  N         -0.7920  -22.6220    4.5350 N.am   98  ALA98      -0.1977
    110  CA         0.0810  -23.6240    5.1380 C.3    98  ALA98       0.1597
    111  C         -0.3560  -23.8640    6.5620 C.2    98  ALA98       0.2287
    112  O         -1.0810  -23.0600    7.1240 O.2    98  ALA98      -0.2864
    113  CB         1.5420  -23.1520    5.1370 C.3    98  ALA98       0.0319
    114  N          0.6130  -24.4520   10.6830 N.3   100  VAL100     -0.1245
    115  CA         1.6000  -23.9390   11.6470 C.3   100  VAL100      0.1561
    116  C          1.4160  -24.7310   12.9380 C.2   100  VAL100      0.2260
    117  O          0.3170  -24.7640   13.5080 O.2   100  VAL100     -0.2867
    118  CB         1.4300  -22.4120   11.9200 C.3   100  VAL100      0.0252
    119  CG1        2.4310  -21.9040   12.9540 C.3   100  VAL100      0.0019
    120  CG2        1.5450  -21.6170   10.6190 C.3   100  VAL100      0.0019
@<TRIPOS>BOND
     1    23    22    2
     2    24    22   am
     3    22    21    1
     4   108   106    1
     5   106   103    1
     6   106   107    1
     7    20    21    1
     8    20    17    1
     9   105   104    2
    10    32    30    1
    11   103   104    1
    12   103   102    1
    13    19    18    2
    14    31    30    1
    15   104   109   am
    16    81    80    2
    17    84    83    1
    18    18    17    1
    19    30    29    1
    20    94    93    2
    21    17    16    1
    22    89    88    2
    23   102    93   am
    24    85    83    1
    25    82    83    1
    26    82    79    1
    27    93    92    1
    28    80    79    1
    29    80    86   am
    30   109   110    1
    31    29    26    1
    32    91    92    1
    33    87    88    1
    34    87    86    1
    35    87    90    1
    36    79    78    1
    37    26    25    1
    38    26    27    1
    39   113   110    1
    40   110   111    1
    41    92    95    1
    42    28    27    2
    43    27    33   am
    44    78    71   am
    45    72    71    2
    46    95    96    1
    47   111   112    2
    48    71    70    1
    49    33    34    1
    50    14    13    1
    51    77    75   ar
    52    37    38    1
    53    37    34    1
    54    74    75    1
    55    74    73    1
    56    96    97    1
    57    12    11    2
    58    75    76   ar
    59    34    35    1
    60    97    98    1
    61    11    10    1
    62    70    73    1
    63    70    69    1
    64    13    10    1
    65    13    15    1
    66    69    67   am
    67    10     9    1
    68   100    99    1
    69    68    67    2
    70    98    99    2
    71    67    66    1
    72    35    36    2
    73     7     5    1
    74    99   101    1
    75    66    65    1
    76    65    56   am
    77   120   118    1
    78   114   115    1
    79     4     3    2
    80     3     2    1
    81     5     6    1
    82     5     2    1
    83    56    55    1
    84    56    57    2
    85    50    49    2
    86    55    58    1
    87    55    54    1
    88     8     6    1
    89    58    59    1
    90   115   118    1
    91   115   116    1
    92     2     1    1
    93   118   119    1
    94    44    46    1
    95    44    43    1
    96    49    54   am
    97    49    48    1
    98    53    51    1
    99    51    48    1
   100    51    52    1
   101    39    40    1
   102    40    43    1
   103    40    41    1
   104    61    59   ar
   105    61    63   ar
   106    59    60   ar
   107   116   117    2
   108    48    47    1
   109    43    45    1
   110    41    42    2
   111    63    64   ar
   112    60    62   ar
   113    64    62   ar
