@<TRIPOS>MOLECULE
tmp/5c8yD01.pdb
 184 171 0 0 0
SMALL
GASTEIGER

@<TRIPOS>ATOM
      1  N        -22.4120  -12.6150  -34.4440 N.3     4  ILE4       -0.1245
      2  CA       -22.7620  -11.2020  -34.3520 C.3     4  ILE4        0.1561
      3  C        -23.2660  -10.7090  -35.7040 C.2     4  ILE4        0.2260
      4  O        -22.7110  -11.0580  -36.7470 O.2     4  ILE4       -0.2867
      5  CB       -21.5620  -10.3360  -33.9170 C.3     4  ILE4        0.0252
      6  CG1      -21.0120  -10.8240  -32.5740 C.3     4  ILE4        0.0019
      7  CG2      -21.9720   -8.8630  -33.8330 C.3     4  ILE4        0.0019
      8  CD1      -19.7550  -10.1040  -32.1140 C.3     4  ILE4        0.0001
      9  N        -18.4910  -13.4350  -37.3400 N.3    50  TYR50      -0.1241
     10  CA       -18.7520  -12.3420  -38.2740 C.3    50  TYR50       0.1605
     11  C        -18.9720  -12.8190  -39.7100 C.2    50  TYR50       0.2264
     12  O        -19.2550  -12.0090  -40.5940 O.2    50  TYR50      -0.2867
     13  CB       -17.5940  -11.3430  -38.2430 C.3    50  TYR50       0.0534
     14  CG       -17.6000  -10.4300  -37.0390 C.ar   50  TYR50      -0.0201
     15  CD1      -18.4660   -9.3460  -36.9710 C.ar   50  TYR50      -0.0009
     16  CD2      -16.7350  -10.6440  -35.9750 C.ar   50  TYR50      -0.0009
     17  CE1      -18.4740   -8.5070  -35.8760 C.ar   50  TYR50       0.0417
     18  CE2      -16.7360   -9.8090  -34.8750 C.ar   50  TYR50       0.0417
     19  CZ       -17.6070   -8.7420  -34.8300 C.ar   50  TYR50       0.1957
     20  OH       -17.6100   -7.9080  -33.7360 O.3    50  TYR50      -0.2866
     21  N        -24.0280   -5.2000  -33.6680 N.3   134  GLN134     -0.1245
     22  CA       -23.1390   -4.0480  -33.5530 C.3   134  GLN134      0.1566
     23  C        -23.4110   -3.0720  -34.6920 C.2   134  GLN134      0.2260
     24  O        -23.5230   -3.4700  -35.8530 O.2   134  GLN134     -0.2867
     25  CB       -21.6690   -4.4790  -33.5470 C.3   134  GLN134      0.0367
     26  CG       -21.1590   -5.0850  -34.8400 C.3   134  GLN134      0.0905
     27  CD       -19.6820   -5.4160  -34.7660 C.2   134  GLN134      0.2608
     28  OE1      -19.1470   -5.6850  -33.6910 O.2   134  GLN134     -0.2717
     29  NE2      -19.0100   -5.3840  -35.9090 N.am  134  GLN134     -0.0878
     30  N        -24.7900   -3.1850  -29.2380 N.3   165  ASN165     -0.1240
     31  CA       -23.6370   -2.3010  -29.1300 C.3   165  ASN165      0.1653
     32  C        -23.5440   -1.3830  -30.3400 C.2   165  ASN165      0.2266
     33  O        -24.0950   -1.6840  -31.3980 O.2   165  ASN165     -0.2867
     34  CB       -22.3540   -3.1180  -28.9810 C.3   165  ASN165      0.1155
     35  CG       -22.2470   -3.7820  -27.6240 C.2   165  ASN165      0.2627
     36  OD1      -23.1840   -3.7470  -26.8270 O.2   165  ASN165     -0.2716
     37  ND2      -21.1010   -4.3910  -27.3530 N.am  165  ASN165     -0.0877
     38  N        -20.8120    1.5300  -32.4450 N.3   167  PHE167     -0.1241
     39  CA       -19.5910    2.3010  -32.6460 C.3   167  PHE167      0.1605
     40  C        -19.9490    3.6970  -33.1430 C.2   167  PHE167      0.2264
     41  O        -19.7730    4.0150  -34.3200 O.2   167  PHE167     -0.2867
     42  CB       -18.6630    1.6030  -33.6390 C.3   167  PHE167      0.0534
     43  CG       -18.1450    0.2780  -33.1580 C.ar  167  PHE167     -0.0203
     44  CD1      -17.0090    0.2090  -32.3680 C.ar  167  PHE167     -0.0042
     45  CD2      -18.7900   -0.8980  -33.4980 C.ar  167  PHE167     -0.0042
     46  CE1      -16.5280   -1.0090  -31.9270 C.ar  167  PHE167     -0.0003
     47  CE2      -18.3130   -2.1190  -33.0600 C.ar  167  PHE167     -0.0003
     48  CZ       -17.1810   -2.1740  -32.2740 C.ar  167  PHE167     -0.0000
     49  N        -23.6680   -1.0850  -24.9130 N.3   198  GLU198     -0.1245
     50  CA       -22.3230   -0.5230  -24.9540 C.3   198  GLU198      0.1567
     51  C        -22.1610    0.4040  -26.1540 C.2   198  GLU198      0.2260
     52  O        -22.3270   -0.0170  -27.2980 O.2   198  GLU198     -0.2867
     53  CB       -21.2710   -1.6280  -25.0180 C.3   198  GLU198      0.0388
     54  CG       -21.5030   -2.7830  -24.0690 C.3   198  GLU198      0.1160
     55  CD       -20.3630   -3.7790  -24.1040 C.2   198  GLU198      0.3649
     56  OE1      -20.6240   -4.9890  -24.2700 O.co2 198  GLU198     -0.2457
     57  OE2      -19.1990   -3.3460  -23.9730 O.co2 198  GLU198     -0.2457
     58  N        -19.4850    3.0150  -28.0670 N.3   200  TYR200     -0.1241
     59  CA       -18.0880    3.4210  -28.1980 C.3   200  TYR200      0.1605
     60  C        -17.9740    4.7680  -28.8800 C.2   200  TYR200      0.2264
     61  O        -18.2680    4.9090  -30.0660 O.2   200  TYR200     -0.2867
     62  CB       -17.2990    2.3690  -28.9690 C.3   200  TYR200      0.0534
     63  CG       -17.1520    1.1100  -28.1690 C.ar  200  TYR200     -0.0201
     64  CD1      -18.1120    0.1160  -28.2320 C.ar  200  TYR200     -0.0009
     65  CD2      -16.0840    0.9400  -27.3060 C.ar  200  TYR200     -0.0009
     66  CE1      -17.9990   -1.0350  -27.4770 C.ar  200  TYR200      0.0417
     67  CE2      -15.9550   -0.2000  -26.5520 C.ar  200  TYR200      0.0417
     68  CZ       -16.9100   -1.1920  -26.6350 C.ar  200  TYR200      0.1957
     69  OH       -16.7570   -2.3230  -25.8610 O.3   200  TYR200     -0.2866
     70  N        -11.0390   -3.9900  -30.2160 N.3   236  VAL236     -0.1231
     71  CA       -12.0700   -4.2750  -29.2230 C.3   236  VAL236      0.1692
     72  C        -12.8910   -5.5100  -29.5990 C.2   236  VAL236      0.2592
     73  O        -13.7370   -5.9580  -28.8240 O.2   236  VAL236     -0.2718
     74  CB       -13.0210   -3.0660  -29.0260 C.3   236  VAL236      0.0266
     75  CG1      -12.2200   -1.7860  -28.8120 C.3   236  VAL236      0.0020
     76  CG2      -13.9750   -2.9070  -30.2080 C.3   236  VAL236      0.0020
     77  N        -12.6350   -6.0530  -30.7870 N.am  237  THR237     -0.1953
     78  CA       -13.3210   -7.2530  -31.2630 C.3   237  THR237      0.1897
     79  C        -12.3750   -8.4530  -31.3070 C.2   237  THR237      0.2313
     80  O        -12.8120   -9.5890  -31.4970 O.2   237  THR237     -0.2863
     81  CB       -13.9150   -7.0450  -32.6730 C.3   237  THR237      0.1794
     82  OG1      -12.8560   -6.8930  -33.6270 O.3   237  THR237     -0.2208
     83  CG2      -14.8080   -5.8160  -32.7050 C.3   237  THR237      0.0378
     84  N        -10.8270  -10.0720  -29.0940 N.3   239  CYS239     -0.1221
     85  CA       -11.0220  -11.0770  -28.0570 C.3   239  CYS239      0.1808
     86  C        -12.1910  -12.0070  -28.3780 C.2   239  CYS239      0.2601
     87  O        -12.3250  -13.0750  -27.7790 O.2   239  CYS239     -0.2717
     88  CB       -11.2440  -10.4010  -26.7030 C.3   239  CYS239      0.0970
     89  SG       -12.8280   -9.5540  -26.5300 S.3   239  CYS239     -0.0800
     90  N        -13.0350  -11.5960  -29.3210 N.am  240  LEU240     -0.1979
     91  CA       -14.1380  -12.4320  -29.7840 C.3   240  LEU240      0.1596
     92  C        -13.7360  -13.1970  -31.0390 C.2   240  LEU240      0.2287
     93  O        -14.2080  -14.3080  -31.2800 O.2   240  LEU240     -0.2864
     94  CB       -15.3800  -11.5840  -30.0640 C.3   240  LEU240      0.0297
     95  CG       -15.9610  -10.8010  -28.8860 C.3   240  LEU240      0.0022
     96  CD1      -17.1920  -10.0490  -29.3400 C.3   240  LEU240      0.0001
     97  CD2      -16.3110  -11.7130  -27.7240 C.3   240  LEU240      0.0001
     98  N         -9.7560  -17.1340  -22.9680 N.3   246  LEU246     -0.1245
     99  CA       -10.8860  -16.2680  -22.6590 C.3   246  LEU246      0.1561
    100  C        -12.1890  -16.8800  -23.1660 C.2   246  LEU246      0.2260
    101  O        -12.3050  -17.2300  -24.3410 O.2   246  LEU246     -0.2867
    102  CB       -10.6740  -14.8810  -23.2660 C.3   246  LEU246      0.0270
    103  CG       -11.7850  -13.8610  -23.0170 C.3   246  LEU246      0.0019
    104  CD1      -11.9340  -13.5490  -21.5370 C.3   246  LEU246      0.0001
    105  CD2      -11.5000  -12.5990  -23.7950 C.3   246  LEU246      0.0001
    106  N        -20.5340  -11.1640  -25.7330 N.3   250  LEU250     -0.1245
    107  CA       -20.8580   -9.7460  -25.5950 C.3   250  LEU250      0.1561
    108  C        -21.4960   -9.4260  -24.2450 C.2   250  LEU250      0.2260
    109  O        -21.2240   -8.3790  -23.6580 O.2   250  LEU250     -0.2867
    110  CB       -21.7960   -9.2970  -26.7190 C.3   250  LEU250      0.0270
    111  CG       -21.2050   -9.1440  -28.1220 C.3   250  LEU250      0.0019
    112  CD1      -22.3070   -8.8010  -29.1110 C.3   250  LEU250      0.0001
    113  CD2      -20.1170   -8.0810  -28.1560 C.3   250  LEU250      0.0001
    114  N        -19.0130   -9.6150  -21.1130 N.3   253  LEU253     -0.1245
    115  CA       -18.1360   -8.4540  -21.1290 C.3   253  LEU253      0.1561
    116  C        -18.9010   -7.2040  -20.6980 C.2   253  LEU253      0.2260
    117  O        -18.3570   -6.3380  -20.0120 O.2   253  LEU253     -0.2867
    118  CB       -17.5300   -8.2600  -22.5210 C.3   253  LEU253      0.0270
    119  CG       -16.6640   -9.4030  -23.0590 C.3   253  LEU253      0.0019
    120  CD1      -16.2310   -9.1180  -24.4860 C.3   253  LEU253      0.0001
    121  CD2      -15.4490   -9.6070  -22.1800 C.3   253  LEU253      0.0001
    122  N        -19.4480   -7.0210  -16.8990 N.3   256  ASN256     -0.1225
    123  CA       -18.2530   -6.6400  -16.1550 C.3   256  ASN256      0.1785
    124  C        -17.8510   -5.1800  -16.3630 C.2   256  ASN256      0.2597
    125  O        -17.0920   -4.6250  -15.5680 O.2   256  ASN256     -0.2718
    126  CB       -17.0810   -7.5450  -16.5430 C.3   256  ASN256      0.1169
    127  CG       -17.3090   -8.9960  -16.1660 C.2   256  ASN256      0.2627
    128  OD1      -17.9040   -9.2970  -15.1310 O.2   256  ASN256     -0.2716
    129  ND2      -16.8320   -9.9060  -17.0080 N.am  256  ASN256     -0.0877
    130  N        -18.3610   -4.5640  -17.4270 N.am  257  MET257     -0.1979
    131  CA       -17.9380   -3.2180  -17.8140 C.3   257  MET257      0.1605
    132  C        -18.9610   -2.1340  -17.4800 C.2   257  MET257      0.2287
    133  O        -18.6010   -0.9660  -17.3230 O.2   257  MET257     -0.2864
    134  CB       -17.6400   -3.1810  -19.3140 C.3   257  MET257      0.0413
    135  CG       -16.2900   -3.7750  -19.6920 C.3   257  MET257      0.0598
    136  SD       -14.8910   -2.8540  -19.0180 S.3   257  MET257     -0.1393
    137  CE       -15.0840   -1.2720  -19.8380 C.3   257  MET257      0.0692
    138  N        -10.9380   -2.0060  -19.4790 N.3   304  ALA304     -0.1231
    139  CA       -10.5390   -3.2200  -20.1780 C.3   304  ALA304      0.1694
    140  C         -9.4000   -2.9020  -21.1380 C.2   304  ALA304      0.2592
    141  O         -9.4200   -1.8730  -21.8150 O.2   304  ALA304     -0.2718
    142  CB       -11.7170   -3.8190  -20.9250 C.3   304  ALA304      0.0304
    143  N         -8.4100   -3.7870  -21.1890 N.am  305  ALA305     -0.1966
    144  CA        -7.2450   -3.5950  -22.0450 C.3   305  ALA305      0.1728
    145  C         -6.8770   -4.9000  -22.7410 C.2   305  ALA305      0.2616
    146  O         -6.8200   -5.9530  -22.1070 O.2   305  ALA305     -0.2715
    147  CB        -6.0710   -3.0760  -21.2330 C.3   305  ALA305      0.0334
    148  N         -6.6310   -4.8190  -24.0470 N.am  306  ILE306     -0.1977
    149  CA        -6.3080   -5.9940  -24.8490 C.3   306  ILE306      0.1596
    150  C         -4.9610   -5.8320  -25.5440 C.2   306  ILE306      0.2287
    151  O         -4.8410   -5.1020  -26.5280 O.2   306  ILE306     -0.2864
    152  CB        -7.3890   -6.2690  -25.9160 C.3   306  ILE306      0.0276
    153  CG1       -8.7860   -6.2040  -25.2970 C.3   306  ILE306      0.0022
    154  CG2       -7.1590   -7.6240  -26.5680 C.3   306  ILE306      0.0022
    155  CD1       -9.4360   -4.8380  -25.3930 C.3   306  ILE306      0.0001
    156  N         -9.2010   -4.9780  -15.8900 N.3   340  LYS340     -0.1231
    157  CA        -8.9940   -6.3380  -16.3740 C.3   340  LYS340      0.1693
    158  C         -8.1930   -6.3070  -17.6760 C.2   340  LYS340      0.2593
    159  O         -8.2180   -5.3120  -18.4030 O.2   340  LYS340     -0.2718
    160  CB       -10.3380   -7.0440  -16.5840 C.3   340  LYS340      0.0285
    161  CG       -11.3950   -6.7760  -15.5010 C.3   340  LYS340      0.0035
    162  CD       -11.3980   -7.8240  -14.3960 C.3   340  LYS340      0.0206
    163  CE       -10.0740   -7.9010  -13.6530 C.3   340  LYS340      0.1093
    164  NZ       -10.1210   -8.8900  -12.5410 N.3   340  LYS340     -0.1314
    165  N         -7.4900   -7.4000  -17.9640 N.am  341  THR341     -0.1939
    166  CA        -6.5870   -7.4600  -19.1110 C.3   341  THR341      0.2028
    167  C         -6.6820   -8.7920  -19.8530 C.2   341  THR341      0.2642
    168  O         -6.8970   -9.8420  -19.2470 O.2   341  THR341     -0.2714
    169  CB        -5.1210   -7.2370  -18.6690 C.3   341  THR341      0.1808
    170  OG1       -5.0000   -5.9560  -18.0380 O.3   341  THR341     -0.2208
    171  CG2       -4.1640   -7.3050  -19.8590 C.3   341  THR341      0.0379
    172  N         -6.5250   -8.7280  -21.1730 N.am  342  ALA342     -0.1977
    173  CA        -6.4280   -9.9180  -22.0100 C.3   342  ALA342      0.1597
    174  C         -5.2140   -9.8050  -22.9210 C.2   342  ALA342      0.2287
    175  O         -4.7210   -8.7050  -23.1760 O.2   342  ALA342     -0.2864
    176  CB        -7.6900  -10.1030  -22.8300 C.3   342  ALA342      0.0319
    177  N        -10.1020    0.1950  -23.5190 N.3   358  ILE358     -0.1245
    178  CA       -11.5280    0.4650  -23.3550 C.3   358  ILE358      0.1561
    179  C        -11.7740    0.9360  -21.9260 C.2   358  ILE358      0.2260
    180  O        -11.5490    0.1880  -20.9740 O.2   358  ILE358     -0.2867
    181  CB       -12.3980   -0.7760  -23.6390 C.3   358  ILE358      0.0252
    182  CG1      -12.0110   -1.4230  -24.9720 C.3   358  ILE358      0.0019
    183  CG2      -13.8740   -0.3920  -23.6410 C.3   358  ILE358      0.0019
    184  CD1      -12.6160   -2.7980  -25.1810 C.3   358  ILE358      0.0001
@<TRIPOS>BOND
     1    12    11    2
     2    11    10    1
     3    10    13    1
     4    10     9    1
     5    13    14    1
     6    14    15   ar
     7    14    16   ar
     8    15    17   ar
     9     4     3    2
    10    16    18   ar
    11    29    27   am
    12    17    19   ar
    13    24    23    2
    14     3     2    1
    15    18    19   ar
    16    26    27    1
    17    26    25    1
    18    19    20    1
    19    27    28    2
    20    23    22    1
    21     1     2    1
    22     2     5    1
    23    41    40    2
    24     5     7    1
    25     5     6    1
    26    21    22    1
    27    42    43    1
    28    42    39    1
    29    82    81    1
    30    22    25    1
    31    45    43   ar
    32    45    47   ar
    33    43    44   ar
    34    40    39    1
    35    47    48   ar
    36    83    81    1
    37    81    78    1
    38    39    38    1
    39     6     8    1
    40    44    46   ar
    41    48    46   ar
    42    80    79    2
    43    33    32    2
    44    79    78    1
    45    93    92    2
    46    78    77    1
    47    92    91    1
    48    77    72   am
    49    32    31    1
    50    70    71    1
    51    76    74    1
    52    61    60    2
    53    94    91    1
    54    94    95    1
    55    91    90    1
    56    72    71    1
    57    72    73    2
    58    96    95    1
    59    90    86   am
    60    30    31    1
    61    71    74    1
    62    31    34    1
    63   112   111    1
    64    84    85    1
    65    74    75    1
    66    34    35    1
    67    62    59    1
    68    62    63    1
    69    95    97    1
    70    60    59    1
    71    86    85    1
    72    86    87    2
    73    64    63   ar
    74    64    66   ar
    75    59    58    1
    76    63    65   ar
    77   113   111    1
    78   111   110    1
    79    85    88    1
    80    35    37   am
    81    35    36    2
    82    66    68   ar
    83    65    67   ar
    84    52    51    2
    85   110   107    1
    86    88    89    1
    87    68    67   ar
    88    68    69    1
    89   154   152    1
    90   151   150    2
    91    51    50    1
    92   152   153    1
    93   152   149    1
    94   106   107    1
    95   107   108    1
    96   150   149    1
    97   155   153    1
    98   184   182    1
    99    53    50    1
   100    53    54    1
   101   182   181    1
   102    50    49    1
   103   149   148    1
   104   120   119    1
   105   101   100    2
   106    56    55   ar
   107   108   109    2
   108    55    54    1
   109    55    57   ar
   110   148   145   am
   111   105   103    1
   112   183   181    1
   113   181   178    1
   114   177   178    1
   115   178   179    1
   116   102   103    1
   117   102    99    1
   118   175   174    2
   119   100    99    1
   120   119   118    1
   121   119   121    1
   122   103   104    1
   123    98    99    1
   124   174   173    1
   125   176   173    1
   126   145   146    2
   127   145   144    1
   128   118   115    1
   129   144   147    1
   130   144   143    1
   131   173   172    1
   132   179   180    2
   133   141   140    2
   134   143   140   am
   135   172   167   am
   136   140   139    1
   137   115   114    1
   138   115   116    1
   139   142   139    1
   140   116   117    2
   141   139   138    1
   142   171   169    1
   143   167   168    2
   144   167   166    1
   145   137   136    1
   146   135   134    1
   147   135   136    1
   148   134   131    1
   149   166   169    1
   150   166   165    1
   151   169   170    1
   152   159   158    2
   153   165   158   am
   154   131   132    1
   155   131   130    1
   156   158   157    1
   157   132   133    2
   158   130   124   am
   159   129   127   am
   160   122   123    1
   161   160   157    1
   162   160   161    1
   163   126   127    1
   164   126   123    1
   165   157   156    1
   166   124   123    1
   167   124   125    2
   168   127   128    2
   169   161   162    1
   170   162   163    1
   171   163   164    1
