@<TRIPOS>MOLECULE
tmp/5c8zA00.pdb
 174 169 0 0 0
SMALL
GASTEIGER

@<TRIPOS>ATOM
      1  N         14.9150    0.5710    7.6500 N.3    30  ASP30      -0.1225
      2  CA        13.8850    1.2190    6.8600 C.3    30  ASP30       0.1805
      3  C         12.5470    0.5000    7.0520 C.2    30  ASP30       0.2598
      4  O         12.4430   -0.4420    7.8560 O.2    30  ASP30      -0.2718
      5  CB        14.3050    1.1790    5.4020 C.3    30  ASP30       0.1424
      6  CG        14.6470   -0.2360    4.9720 C.2    30  ASP30       0.3668
      7  OD1       13.7160   -1.0010    4.6570 O.co2  30  ASP30      -0.2456
      8  OD2       15.8310   -0.6190    5.0070 O.co2  30  ASP30      -0.2456
      9  N         11.5320    0.9160    6.2950 N.am   31  GLY31      -0.1942
     10  CA        10.1930    0.3690    6.4590 C.3    31  GLY31       0.2014
     11  C         10.0740   -1.1330    6.2920 C.2    31  GLY31       0.2638
     12  O          9.1940   -1.7470    6.8920 O.2    31  GLY31      -0.2714
     13  N         10.9610   -1.7280    5.4940 N.am   32  LEU32      -0.1977
     14  CA        10.8880   -3.1740    5.2690 C.3    32  LEU32       0.1596
     15  C         11.3250   -3.9510    6.5120 C.2    32  LEU32       0.2287
     16  O         11.0730   -5.1510    6.6160 O.2    32  LEU32      -0.2864
     17  CB        11.7310   -3.5740    4.0610 C.3    32  LEU32       0.0297
     18  CG        11.3270   -2.8440    2.7730 C.3    32  LEU32       0.0022
     19  CD1       12.2270   -3.2900    1.6210 C.3    32  LEU32       0.0001
     20  CD2        9.8540   -3.0660    2.4310 C.3    32  LEU32       0.0001
     21  N         14.3130    6.3340    5.8340 N.3   101  SER101     -0.1202
     22  CA        12.9120    6.2220    5.4380 C.3   101  SER101      0.2020
     23  C         12.0460    6.3230    6.7010 C.2   101  SER101      0.2619
     24  O         12.2240    7.2660    7.4700 O.2   101  SER101     -0.2717
     25  CB        12.6980    4.9270    4.6540 C.3   101  SER101      0.2103
     26  OG        11.7120    5.1330    3.6570 O.3   101  SER101     -0.2182
     27  N         11.1200    5.3910    6.9350 N.am  102  SER102     -0.1951
     28  CA        10.3920    5.4130    8.2060 C.3   102  SER102      0.1924
     29  C         11.3530    5.3440    9.3930 C.2   102  SER102      0.2314
     30  O         11.0520    5.8560   10.4730 O.2   102  SER102     -0.2863
     31  CB         9.3850    4.2650    8.2810 C.3   102  SER102      0.2116
     32  OG        10.0470    3.0330    8.0470 O.3   102  SER102     -0.2180
     33  N         10.6200   10.4380    4.6000 N.3   127  PRO127     -0.2116
     34  CA         9.4510   10.7500    3.7690 C.3   127  PRO127      0.1372
     35  C          8.4780   11.7020    4.4550 C.2   127  PRO127      0.2244
     36  O          7.9910   11.4140    5.5500 O.2   127  PRO127     -0.2868
     37  CB         8.8070    9.3740    3.5420 C.3   127  PRO127      0.0268
     38  CG         9.1890    8.5830    4.7720 C.3   127  PRO127      0.0207
     39  CD        10.5760    9.0680    5.1550 C.3   127  PRO127      0.0892
     40  N          5.9310   13.4660    2.4800 N.3   129  LYS129     -0.1245
     41  CA         4.7630   13.6670    1.6190 C.3   129  LYS129      0.1561
     42  C          4.0650   12.3650    1.2940 C.2   129  LYS129      0.2260
     43  O          4.7090   11.3510    1.0220 O.2   129  LYS129     -0.2867
     44  CB         5.1680   14.3570    0.3140 C.3   129  LYS129      0.0271
     45  CG         5.8460   15.7020    0.5020 C.3   129  LYS129      0.0035
     46  CD         6.2190   16.2970   -0.8450 C.3   129  LYS129      0.0206
     47  CE         7.0310   17.5710   -0.6830 C.3   129  LYS129      0.1093
     48  NZ         6.2990   18.5830    0.1200 N.3   129  LYS129     -0.1314
     49  N          2.4100    9.7890   -0.9810 N.3   131  LEU131     -0.1245
     50  CA         2.5210    9.4080   -2.3840 C.3   131  LEU131      0.1561
     51  C          1.4030    8.4330   -2.7070 C.2   131  LEU131      0.2260
     52  O          1.3930    7.3070   -2.2080 O.2   131  LEU131     -0.2867
     53  CB         3.8840    8.7860   -2.6780 C.3   131  LEU131      0.0270
     54  CG         5.0820    9.6690   -2.3220 C.3   131  LEU131      0.0019
     55  CD1        6.3840    8.9480   -2.6310 C.3   131  LEU131      0.0001
     56  CD2        5.0060   11.0110   -3.0480 C.3   131  LEU131      0.0001
     57  N          2.0390    4.7560   -3.8350 N.3   134  LEU134     -0.1245
     58  CA         2.4350    3.8090   -2.7930 C.3   134  LEU134      0.1561
     59  C          1.2690    3.5110   -1.8570 C.2   134  LEU134      0.2260
     60  O          1.0260    2.3570   -1.4980 O.2   134  LEU134     -0.2867
     61  CB         3.6290    4.3450   -2.0000 C.3   134  LEU134      0.0270
     62  CG         4.9520    4.4460   -2.7570 C.3   134  LEU134      0.0019
     63  CD1        6.0150    5.0340   -1.8510 C.3   134  LEU134      0.0001
     64  CD2        5.3760    3.0720   -3.2560 C.3   134  LEU134      0.0001
     65  N          6.2390   -4.3070   -5.2390 N.3   149  LEU149     -0.1245
     66  CA         7.2380   -3.6320   -4.4270 C.3   149  LEU149      0.1561
     67  C          8.6170   -4.2840   -4.5600 C.2   149  LEU149      0.2260
     68  O          9.6260   -3.5770   -4.5180 O.2   149  LEU149     -0.2867
     69  CB         6.7900   -3.5750   -2.9640 C.3   149  LEU149      0.0270
     70  CG         5.5920   -2.6450   -2.7180 C.3   149  LEU149      0.0019
     71  CD1        5.2420   -2.6110   -1.2400 C.3   149  LEU149      0.0001
     72  CD2        5.8540   -1.2260   -3.2420 C.3   149  LEU149      0.0001
     73  N         10.0000   -2.5840   -7.5400 N.3   152  VAL152     -0.1231
     74  CA        10.3610   -1.1990   -7.2500 C.3   152  VAL152      0.1692
     75  C         11.6930   -1.1540   -6.5030 C.2   152  VAL152      0.2591
     76  O         12.5620   -0.3380   -6.8050 O.2   152  VAL152     -0.2718
     77  CB         9.2820   -0.4860   -6.4160 C.3   152  VAL152      0.0266
     78  CG1        9.7770    0.8820   -5.9560 C.3   152  VAL152      0.0020
     79  CG2        7.9920   -0.3370   -7.2310 C.3   152  VAL152      0.0020
     80  N         11.8660   -2.0460   -5.5320 N.am  153  MET153     -0.1979
     81  CA        13.1110   -2.0380   -4.7730 C.3   153  MET153      0.1605
     82  C         14.2940   -2.3630   -5.6680 C.2   153  MET153      0.2287
     83  O         15.2920   -1.6460   -5.6730 O.2   153  MET153     -0.2864
     84  CB        13.0620   -3.0370   -3.6120 C.3   153  MET153      0.0413
     85  CG        11.9660   -2.7750   -2.5810 C.3   153  MET153      0.0598
     86  SD        11.9640   -1.1070   -1.8860 S.3   153  MET153     -0.1393
     87  CE        10.4690   -0.4380   -2.5950 C.3   153  MET153      0.0692
     88  N         14.8960    1.8830   -6.5820 N.3   157  VAL157     -0.1245
     89  CA        15.4730    2.6110   -5.4540 C.3   157  VAL157      0.1561
     90  C         16.6040    1.9040   -4.7060 C.2   157  VAL157      0.2260
     91  O         17.1350    2.4710   -3.7450 O.2   157  VAL157     -0.2867
     92  CB        14.3940    2.9900   -4.4150 C.3   157  VAL157      0.0252
     93  CG1       13.3730    3.9510   -5.0280 C.3   157  VAL157      0.0019
     94  CG2       13.7040    1.7560   -3.8680 C.3   157  VAL157      0.0019
     95  N          4.1160   -3.8280    5.2440 N.3   182  TRP182     -0.1241
     96  CA         4.5210   -2.4410    5.0710 C.3   182  TRP182      0.1605
     97  C          3.4400   -1.6480    4.3140 C.2   182  TRP182      0.2264
     98  O          3.0380   -0.5660    4.7400 O.2   182  TRP182     -0.2867
     99  CB         5.8670   -2.3540    4.3310 C.3   182  TRP182      0.0550
    100  CG         6.2360   -0.9320    4.0720 C.ar  182  TRP182      0.0003
    101  CD1        6.9140   -0.0950    4.9210 C.ar  182  TRP182      0.0946
    102  CD2        5.9080   -0.1470    2.9130 C.ar  182  TRP182      0.0152
    103  NE1        7.0370    1.1550    4.3540 N.ar  182  TRP182     -0.2442
    104  CE2        6.4240    1.1480    3.1260 C.ar  182  TRP182      0.0810
    105  CE3        5.2340   -0.4160    1.7160 C.ar  182  TRP182      0.0012
    106  CZ2        6.2890    2.1740    2.1850 C.ar  182  TRP182      0.0191
    107  CZ3        5.0940    0.6050    0.7840 C.ar  182  TRP182      0.0001
    108  CH2        5.6210    1.8830    1.0230 C.ar  182  TRP182      0.0015
    109  N          2.0850    1.3940    6.6030 N.3   186  TYR186     -0.1228
    110  CA         3.0420    2.5120    6.6160 C.3   186  TYR186      0.1721
    111  C          2.7410    3.7300    5.7120 C.2   186  TYR186      0.2437
    112  O          2.7270    4.8520    6.2060 O.2   186  TYR186     -0.2733
    113  CB         4.4400    1.9890    6.2640 C.3   186  TYR186      0.0547
    114  CG         5.1690    1.3330    7.4220 C.ar  186  TYR186     -0.0200
    115  CD1        4.6570    0.1950    8.0430 C.ar  186  TYR186     -0.0009
    116  CD2        6.3820    1.8390    7.8720 C.ar  186  TYR186     -0.0009
    117  CE1        5.3360   -0.4070    9.1020 C.ar  186  TYR186      0.0417
    118  CE2        7.0680    1.2370    8.9180 C.ar  186  TYR186      0.0417
    119  CZ         6.5280    0.1270    9.5360 C.ar  186  TYR186      0.1957
    120  OH         7.2120   -0.4630   10.5850 O.3   186  TYR186     -0.2866
    121  N          2.5510    3.5340    4.3910 N.am  187  PRO187     -0.2729
    122  CA         2.6160    4.7330    3.5350 C.3   187  PRO187      0.1401
    123  C          1.5050    5.7630    3.7570 C.2   187  PRO187      0.2269
    124  O          1.7280    6.9400    3.4380 O.2   187  PRO187     -0.2865
    125  CB         2.5330    4.1590    2.1080 C.3   187  PRO187      0.0296
    126  CG         1.9290    2.7860    2.2640 C.3   187  PRO187      0.0237
    127  CD         2.4120    2.2940    3.5990 C.3   187  PRO187      0.0939
    128  N          2.8450    7.2060    7.8320 N.3   190  ILE190     -0.1231
    129  CA         4.2090    7.6360    8.1450 C.3   190  ILE190      0.1678
    130  C          4.4860    9.0800    7.6800 C.2   190  ILE190      0.2434
    131  O          4.9500    9.8860    8.4800 O.2   190  ILE190     -0.2733
    132  CB         5.2350    6.6320    7.5730 C.3   190  ILE190      0.0265
    133  CG1        5.3570    5.4220    8.5100 C.3   190  ILE190      0.0019
    134  CG2        6.5920    7.2730    7.3460 C.3   190  ILE190      0.0020
    135  CD1        6.0810    5.7260    9.8260 C.3   190  ILE190      0.0001
    136  N          4.1690    9.4380    6.4180 N.am  191  PRO191     -0.2729
    137  CA         4.5610   10.8080    6.0370 C.3   191  PRO191      0.1401
    138  C          3.8860   11.9410    6.8520 C.2   191  PRO191      0.2269
    139  O          4.6130   12.8770    7.2220 O.2   191  PRO191     -0.2865
    140  CB         4.1770   10.8770    4.5490 C.3   191  PRO191      0.0296
    141  CG         4.2610    9.4560    4.0860 C.3   191  PRO191      0.0237
    142  CD         3.7610    8.6380    5.2490 C.3   191  PRO191      0.0939
    143  N         13.6770   13.5290   -2.5360 N.3   220  PHE220     -0.1241
    144  CA        13.8910   14.0470   -1.1860 C.3   220  PHE220      0.1605
    145  C         14.4110   15.4770   -1.1960 C.2   220  PHE220      0.2264
    146  O         15.0740   15.9260   -0.2710 O.2   220  PHE220     -0.2867
    147  CB        14.7990   13.0730   -0.4120 C.3   220  PHE220      0.0534
    148  CG        14.1180   11.7640   -0.1640 C.ar  220  PHE220     -0.0203
    149  CD1       13.2020   11.6530    0.8750 C.ar  220  PHE220     -0.0042
    150  CD2       14.3010   10.6880   -1.0180 C.ar  220  PHE220     -0.0042
    151  CE1       12.4960   10.4800    1.0770 C.ar  220  PHE220     -0.0003
    152  CE2       13.6000    9.5090   -0.8200 C.ar  220  PHE220     -0.0003
    153  CZ        12.7050    9.4020    0.2310 C.ar  220  PHE220     -0.0000
    154  N         18.3890    4.6460   -1.8710 N.3   241  HIS241     -0.1226
    155  CA        17.6370    4.5140   -0.6170 C.3   241  HIS241      0.1752
    156  C         18.2370    3.5270    0.3870 C.2   241  HIS241      0.2596
    157  O         17.8270    3.5040    1.5510 O.2   241  HIS241     -0.2718
    158  CB        16.1970    4.1000   -0.9400 C.3   241  HIS241      0.0759
    159  CG        15.2010    4.4890    0.1080 C.ar  241  HIS241      0.0818
    160  ND1       15.0730    5.7810    0.5750 N.ar  241  HIS241     -0.2268
    161  CD2       14.2490    3.7630    0.7430 C.ar  241  HIS241      0.1154
    162  CE1       14.1000    5.8280    1.4700 C.ar  241  HIS241      0.1986
    163  NE2       13.5780    4.6170    1.5820 N.ar  241  HIS241     -0.2212
    164  N         19.2030    2.7210   -0.0430 N.am  242  PHE242     -0.1976
    165  CA        19.7540    1.6850    0.8340 C.3   242  PHE242      0.1639
    166  C         21.2840    1.7010    0.8420 C.2   242  PHE242      0.2290
    167  O         21.9290    0.7340    0.4300 O.2   242  PHE242     -0.2864
    168  CB        19.2660    0.2870    0.4030 C.3   242  PHE242      0.0560
    169  CG        17.7720    0.0960    0.4720 C.ar  242  PHE242     -0.0200
    170  CD1       16.9680    0.3780   -0.6260 C.ar  242  PHE242     -0.0042
    171  CD2       17.1720   -0.3880    1.6300 C.ar  242  PHE242     -0.0042
    172  CE1       15.5890    0.1780   -0.5700 C.ar  242  PHE242     -0.0003
    173  CE2       15.7970   -0.5900    1.6910 C.ar  242  PHE242     -0.0003
    174  CZ        15.0060   -0.2930    0.5940 C.ar  242  PHE242     -0.0000
@<TRIPOS>BOND
     1    73    74    1
     2    74    75    1
     3    74    77    1
     4    79    77    1
     5    76    75    2
     6    88    89    1
     7    75    80   am
     8    77    78    1
     9    83    82    2
    10    82    81    1
    11    80    81    1
    12    89    90    1
    13    89    92    1
    14    65    66    1
    15    93    92    1
    16    81    84    1
    17    90    91    2
    18    67    68    2
    19    67    66    1
    20    66    69    1
    21    92    94    1
    22    57    58    1
    23    84    85    1
    24    64    62    1
    25    72    70    1
    26    56    54    1
    27    69    70    1
    28    58    61    1
    29    58    59    1
    30    62    61    1
    31    62    63    1
    32    70    71    1
    33    51    50    1
    34    51    52    2
    35    53    50    1
    36    53    54    1
    37    55    54    1
    38    87    86    1
    39    85    86    1
    40   143   144    1
    41    50    49    1
    42   154   155    1
    43    59    60    2
    44   145   144    1
    45   145   146    2
    46   144   147    1
    47   150   152   ar
    48   150   148   ar
    49   158   155    1
    50   158   159    1
    51    46    47    1
    52    46    45    1
    53   152   153   ar
    54    47    48    1
    55   170   172   ar
    56   170   169   ar
    57   155   156    1
    58   172   174   ar
    59   147   148    1
    60   148   149   ar
    61   164   156   am
    62   164   165    1
    63   159   160   ar
    64   159   161   ar
    65   153   151   ar
    66    44    45    1
    67    44    41    1
    68   156   157    2
    69   168   169    1
    70   168   165    1
    71   167   166    2
    72   169   171   ar
    73   160   162   ar
    74   174   173   ar
    75   161   163   ar
    76   107   108   ar
    77   107   105   ar
    78   165   166    1
    79   149   151   ar
    80    43    42    2
    81   108   106   ar
    82    42    41    1
    83   162   163   ar
    84    41    40    1
    85    19    18    1
    86   171   173   ar
    87   105   102   ar
    88   125   126    1
    89   125   122    1
    90   106   104   ar
    91   126   127    1
    92    20    18    1
    93    18    17    1
    94   102   104   ar
    95   102   100   ar
    96   104   103   ar
    97   124   123    2
    98   122   123    1
    99   122   121    1
   100    37    34    1
   101    37    38    1
   102   127   121    1
   103    26    25    1
   104    34    35    1
   105    34    33    1
   106    17    14    1
   107   100    99    1
   108   100   101   ar
   109   141   140    1
   110   141   142    1
   111    97    98    2
   112    97    96    1
   113    99    96    1
   114   103   101   ar
   115   121   111   am
   116    35    36    2
   117   140   137    1
   118    33    39    1
   119    25    22    1
   120     7     6   ar
   121    38    39    1
   122     6     8   ar
   123     6     5    1
   124    96    95    1
   125   142   136    1
   126    14    13    1
   127    14    15    1
   128     5     2    1
   129    22    21    1
   130    22    23    1
   131    13    11   am
   132   111   112    2
   133   111   110    1
   134   137   136    1
   135   137   138    1
   136   113   110    1
   137   113   114    1
   138    11    10    1
   139    11    12    2
   140     9    10    1
   141     9     3   am
   142   136   130   am
   143    15    16    2
   144   109   110    1
   145    23    27   am
   146    23    24    2
   147   138   139    2
   148     2     3    1
   149     2     1    1
   150    27    28    1
   151     3     4    2
   152   134   132    1
   153   114   116   ar
   154   114   115   ar
   155   132   129    1
   156   132   133    1
   157   130   129    1
   158   130   131    2
   159   128   129    1
   160   116   118   ar
   161   115   117   ar
   162    32    31    1
   163    28    31    1
   164    28    29    1
   165   133   135    1
   166   118   119   ar
   167   117   119   ar
   168    29    30    2
   169   119   120    1
