@<TRIPOS>MOLECULE
tmp/5c90I00.pdb
 107 102 0 0 0
SMALL
GASTEIGER

@<TRIPOS>ATOM
      1  N        -11.3510    1.3680   28.3940 N.3    56  GLY56      -0.1225
      2  CA       -10.7220    2.4060   29.1860 C.3    56  GLY56       0.1811
      3  C         -9.2310    2.3150   29.0610 C.2    56  GLY56       0.2280
      4  O         -8.7010    2.0640   27.9850 O.2    56  GLY56      -0.2866
      5  N         -5.5000    1.4630   28.7580 N.3    58  VAL58      -0.1245
      6  CA        -4.7630    0.2930   28.2900 C.3    58  VAL58       0.1561
      7  C         -3.8510   -0.2480   29.3830 C.2    58  VAL58       0.2260
      8  O         -3.7800   -1.4450   29.6020 O.2    58  VAL58      -0.2867
      9  CB        -3.9850    0.5990   27.0050 C.3    58  VAL58       0.0252
     10  CG1       -3.0540   -0.5350   26.6280 C.3    58  VAL58       0.0019
     11  CG2       -4.9450    0.8970   25.8610 C.3    58  VAL58       0.0019
     12  N        -13.3190   -2.3180   23.1230 N.3    85  SER85      -0.1202
     13  CA       -11.9630   -1.8170   23.2480 C.3    85  SER85       0.2020
     14  C        -11.1910   -2.6640   24.2700 C.2    85  SER85       0.2618
     15  O        -11.1490   -3.8780   24.1410 O.2    85  SER85      -0.2717
     16  CB       -12.0170   -0.3080   23.5640 C.3    85  SER85       0.2103
     17  OG       -12.8810    0.3920   22.6870 O.3    85  SER85      -0.2182
     18  N        -10.5990   -2.0710   25.3130 N.am   86  MET86      -0.1979
     19  CA        -9.8930   -2.9130   26.2700 C.3    86  MET86       0.1605
     20  C        -10.7820   -3.9930   26.9410 C.2    86  MET86       0.2287
     21  O        -10.2810   -5.0060   27.4130 O.2    86  MET86      -0.2864
     22  CB        -9.1610   -2.0680   27.3390 C.3    86  MET86       0.0413
     23  CG        -7.9460   -2.7400   27.9080 C.3    86  MET86       0.0598
     24  SD        -6.6320   -3.0640   26.6830 S.3    86  MET86      -0.1393
     25  CE        -5.5130   -3.8850   27.7580 C.3    86  MET86       0.0692
     26  N        -13.0190   -5.8300   25.3130 N.3    88  SER88      -0.1202
     27  CA       -12.9630   -6.9770   24.3990 C.3    88  SER88       0.2020
     28  C        -11.6070   -7.6750   24.4630 C.2    88  SER88       0.2618
     29  O        -11.5230   -8.8910   24.3320 O.2    88  SER88      -0.2717
     30  CB       -13.3310   -6.5760   22.9700 C.3    88  SER88       0.2103
     31  OG       -12.3610   -5.7470   22.3970 O.3    88  SER88      -0.2182
     32  N        -10.5460   -6.9130   24.7100 N.am   89  PHE89      -0.1975
     33  CA        -9.2480   -7.5000   24.9120 C.3    89  PHE89       0.1639
     34  C         -9.2480   -8.4150   26.1400 C.2    89  PHE89       0.2290
     35  O         -8.7050   -9.5260   26.0830 O.2    89  PHE89      -0.2864
     36  CB        -8.1780   -6.3890   25.0470 C.3    89  PHE89       0.0560
     37  CG        -6.7560   -6.8820   25.1030 C.ar   89  PHE89      -0.0200
     38  CD1       -6.0480   -7.1420   23.9520 C.ar   89  PHE89      -0.0042
     39  CD2       -6.1100   -7.0130   26.3150 C.ar   89  PHE89      -0.0042
     40  CE1       -4.7480   -7.5900   23.9960 C.ar   89  PHE89      -0.0003
     41  CE2       -4.8030   -7.4450   26.3830 C.ar   89  PHE89      -0.0003
     42  CZ        -4.1090   -7.7330   25.2190 C.ar   89  PHE89      -0.0000
     43  N        -14.1280   -3.9290   18.6550 N.3   109  ILE109     -0.1231
     44  CA       -12.6410   -3.8350   18.6410 C.3   109  ILE109      0.1692
     45  C        -12.2670   -2.5870   17.8370 C.2   109  ILE109      0.2592
     46  O        -12.9310   -2.2280   16.8670 O.2   109  ILE109     -0.2718
     47  CB       -11.9610   -5.1090   18.0940 C.3   109  ILE109      0.0266
     48  CG1      -12.3820   -5.4100   16.6570 C.3   109  ILE109      0.0019
     49  CG2      -12.2720   -6.2930   19.0330 C.3   109  ILE109      0.0020
     50  CD1      -11.6680   -6.5920   16.0370 C.3   109  ILE109      0.0001
     51  N        -11.1930   -1.9180   18.2520 N.am  110  HIS110     -0.1962
     52  CA       -10.7300   -0.7310   17.5640 C.3   110  HIS110      0.1787
     53  C         -9.3260   -0.4080   18.0590 C.2   110  HIS110      0.2620
     54  O         -8.8730   -0.9440   19.0520 O.2   110  HIS110     -0.2715
     55  CB       -11.7010    0.4640   17.6860 C.3   110  HIS110      0.0785
     56  CG       -11.7220    1.1660   19.0070 C.ar  110  HIS110      0.0821
     57  ND1      -12.6020    2.2000   19.2580 N.ar  110  HIS110     -0.2267
     58  CD2      -10.9750    1.0320   20.1260 C.ar  110  HIS110      0.1154
     59  CE1      -12.4170    2.6460   20.4890 C.ar  110  HIS110      0.1986
     60  NE2      -11.4150    1.9700   21.0270 N.ar  110  HIS110     -0.2212
     61  N         -8.6550    0.4750   17.3700 N.am  111  GLN111     -0.1964
     62  CA        -7.3090    0.8300   17.7860 C.3   111  GLN111      0.1718
     63  C         -7.3100    1.7300   19.0370 C.2   111  GLN111      0.2463
     64  O         -8.2680    2.4020   19.3810 O.2   111  GLN111     -0.2730
     65  CB        -6.5110    1.4320   16.6190 C.3   111  GLN111      0.0407
     66  CG        -7.1870    2.5860   15.9330 C.3   111  GLN111      0.0908
     67  CD        -6.2350    3.3290   14.9910 C.2   111  GLN111      0.2608
     68  OE1       -5.1350    3.7020   15.3970 O.2   111  GLN111     -0.2717
     69  NE2       -6.6570    3.5470   13.7480 N.am  111  GLN111     -0.0878
     70  N         -6.1720    1.7340   19.7520 N.am  112  PRO112     -0.2651
     71  CA        -6.0970    2.5850   20.9320 C.3   112  PRO112      0.1628
     72  C         -6.2020    4.0700   20.6170 C.2   112  PRO112      0.2315
     73  O         -5.8210    4.5130   19.5300 O.2   112  PRO112     -0.2861
     74  CB        -4.7170    2.2800   21.5400 C.2   112  PRO112     -0.0016
     75  CG        -4.0160    1.3890   20.6180 C.2   112  PRO112     -0.0072
     76  CD        -4.9450    0.9630   19.5160 C.3   112  PRO112      0.1203
     77  N         -0.7460   -4.8400   21.7620 N.3   137  LEU137     -0.1231
     78  CA        -2.1430   -5.2860   21.8110 C.3   137  LEU137      0.1693
     79  C         -2.4560   -6.2480   20.6620 C.2   137  LEU137      0.2592
     80  O         -3.0660   -7.3110   20.8740 O.2   137  LEU137     -0.2718
     81  CB        -3.1060   -4.1120   21.7470 C.3   137  LEU137      0.0284
     82  CG        -3.1570   -3.2580   23.0210 C.3   137  LEU137      0.0019
     83  CD1       -3.6480   -1.8750   22.6750 C.3   137  LEU137      0.0001
     84  CD2       -4.0170   -3.9130   24.0950 C.3   137  LEU137      0.0001
     85  N         -2.0290   -5.8870   19.4620 N.am  138  ASN138     -0.1974
     86  CA        -2.3630   -6.6890   18.2870 C.3   138  ASN138      0.1688
     87  C         -1.6540   -8.0370   18.3370 C.2   138  ASN138      0.2292
     88  O         -2.2350   -9.0260   17.9160 O.2   138  ASN138     -0.2864
     89  CB        -1.9860   -5.9550   16.9850 C.3   138  ASN138      0.1181
     90  CG        -2.9140   -4.7930   16.6430 C.2   138  ASN138      0.2629
     91  OD1       -2.6680   -4.0750   15.6340 O.2   138  ASN138     -0.2716
     92  ND2       -3.8950   -4.5500   17.4180 N.am  138  ASN138     -0.0877
     93  N         -3.5650  -10.1250   20.8460 N.3   141  LEU141     -0.1245
     94  CA        -4.8320  -10.5060   20.2720 C.3   141  LEU141      0.1561
     95  C         -4.6490  -11.5970   19.2110 C.2   141  LEU141      0.2260
     96  O         -5.5100  -12.4740   19.0390 O.2   141  LEU141     -0.2867
     97  CB        -5.5740   -9.3050   19.6600 C.3   141  LEU141      0.0270
     98  CG        -6.8740   -8.7070   20.1820 C.3   141  LEU141      0.0019
     99  CD1       -7.8040   -8.0840   19.1090 C.3   141  LEU141      0.0001
    100  CD2       -7.6830   -9.6640   21.0300 C.3   141  LEU141      0.0001
    101  N         -9.1510   -3.3270   13.0080 N.3   156  THR156     -0.1218
    102  CA        -9.2790   -2.4170   14.1360 C.3   156  THR156      0.1862
    103  C         -9.0090   -0.9710   13.7370 C.2   156  THR156      0.2287
    104  O         -8.9230   -0.1080   14.6050 O.2   156  THR156     -0.2866
    105  CB        -8.3190   -2.8110   15.2950 C.3   156  THR156      0.1770
    106  OG1       -6.9720   -2.9260   14.8390 O.3   156  THR156     -0.2211
    107  CG2       -8.7560   -4.1520   15.9200 C.3   156  THR156      0.0375
@<TRIPOS>BOND
     1   101   102    1
     2   103   102    1
     3   103   104    2
     4    69    67   am
     5   102   105    1
     6   106   105    1
     7    67    68    2
     8    67    66    1
     9   105   107    1
    10    91    90    2
    11    66    65    1
    12    50    48    1
    13    65    62    1
    14    90    89    1
    15    90    92   am
    16    48    47    1
    17    46    45    2
    18    89    86    1
    19    61    62    1
    20    61    53   am
    21    52    55    1
    22    52    53    1
    23    52    51    1
    24    55    56    1
    25    62    63    1
    26    45    51   am
    27    45    44    1
    28    88    87    2
    29    53    54    2
    30    47    44    1
    31    47    49    1
    32    86    87    1
    33    86    85    1
    34    44    43    1
    35    56    57   ar
    36    56    58   ar
    37    63    64    2
    38    63    70   am
    39    96    95    2
    40    99    98    1
    41    95    94    1
    42    57    59   ar
    43    85    79   am
    44    76    70    1
    45    76    75    1
    46    73    72    2
    47    97    98    1
    48    97    94    1
    49    70    71    1
    50    58    60   ar
    51    98   100    1
    52    94    93    1
    53    59    60   ar
    54    72    71    1
    55    75    74    2
    56    79    80    2
    57    79    78    1
    58    71    74    1
    59    81    78    1
    60    81    82    1
    61    77    78    1
    62    31    30    1
    63    83    82    1
    64    17    16    1
    65    30    27    1
    66    82    84    1
    67    12    13    1
    68    13    16    1
    69    13    14    1
    70    38    40   ar
    71    38    37   ar
    72    40    42   ar
    73    15    14    2
    74    14    18   am
    75    29    28    2
    76    27    28    1
    77    27    26    1
    78    28    32   am
    79    32    33    1
    80    33    36    1
    81    33    34    1
    82    36    37    1
    83    37    39   ar
    84    42    41   ar
    85    18    19    1
    86    11     9    1
    87    35    34    2
    88    19    20    1
    89    19    22    1
    90    39    41   ar
    91    10     9    1
    92    24    25    1
    93    24    23    1
    94    20    21    2
    95     9     6    1
    96    22    23    1
    97     4     3    2
    98     6     5    1
    99     6     7    1
   100     1     2    1
   101     3     2    1
   102     7     8    2
