@<TRIPOS>MOLECULE
tmp/5c91A00.pdb
 126 124 0 0 0
SMALL
GASTEIGER

@<TRIPOS>ATOM
      1  N        -26.6590    1.3120  -10.4040 N.3    35  LEU35      -0.1231
      2  CA       -27.8310    0.8620   -9.6590 C.3    35  LEU35       0.1693
      3  C        -28.8880    0.2750  -10.5940 C.2    35  LEU35       0.2591
      4  O        -29.3810   -0.8250  -10.3720 O.2    35  LEU35      -0.2718
      5  CB       -28.4110    2.0210   -8.8440 C.3    35  LEU35       0.0284
      6  CG       -29.5970    1.7340   -7.9240 C.3    35  LEU35       0.0019
      7  CD1      -29.2680    0.6480   -6.9150 C.3    35  LEU35       0.0001
      8  CD2      -30.0040    3.0110   -7.2080 C.3    35  LEU35       0.0001
      9  N        -29.2190    1.0160  -11.6410 N.am   36  GLU36      -0.1979
     10  CA       -30.2440    0.6000  -12.5980 C.3    36  GLU36       0.1602
     11  C        -29.8500   -0.6760  -13.3490 C.2    36  GLU36       0.2287
     12  O        -30.6850   -1.5510  -13.5690 O.2    36  GLU36      -0.2864
     13  CB       -30.5070    1.7170  -13.6070 C.3    36  GLU36       0.0415
     14  CG       -31.0020    3.0220  -12.9960 C.3    36  GLU36       0.1163
     15  CD       -32.5090    3.0740  -12.8390 C.2    36  GLU36       0.3649
     16  OE1      -33.1170    2.0140  -12.5640 O.co2  36  GLU36      -0.2457
     17  OE2      -33.0820    4.1790  -12.9870 O.co2  36  GLU36      -0.2457
     18  N        -28.9240    7.7600    1.2360 N.3    85  PRO85      -0.2102
     19  CA       -30.2300    8.3180    1.5980 C.3    85  PRO85       0.1504
     20  C        -30.9150    9.1040    0.4930 C.2    85  PRO85       0.2576
     21  O        -32.1390    9.1980    0.4860 O.2    85  PRO85      -0.2718
     22  CB       -29.9080    9.2280    2.7860 C.3    85  PRO85       0.0282
     23  CG       -28.7300    8.5950    3.4170 C.3    85  PRO85       0.0208
     24  CD       -27.9190    8.0280    2.2820 C.3    85  PRO85       0.0893
     25  N        -30.1500    9.6590   -0.4390 N.am   86  TYR86      -0.1963
     26  CA       -30.7560   10.3210   -1.5960 C.3    86  TYR86       0.1771
     27  C        -31.8800    9.4970   -2.2360 C.2    86  TYR86       0.2620
     28  O        -32.8920   10.0570   -2.6360 O.2    86  TYR86      -0.2715
     29  CB       -29.7030   10.6790   -2.6420 C.3    86  TYR86       0.0574
     30  CG       -30.2850   11.0930   -3.9830 C.ar   86  TYR86      -0.0198
     31  CD1      -31.0690   12.2400   -4.1070 C.ar   86  TYR86      -0.0009
     32  CD2      -30.0540   10.3290   -5.1260 C.ar   86  TYR86      -0.0009
     33  CE1      -31.6040   12.6110   -5.3350 C.ar   86  TYR86       0.0417
     34  CE2      -30.5800   10.6920   -6.3580 C.ar   86  TYR86       0.0417
     35  CZ       -31.3490   11.8260   -6.4630 C.ar   86  TYR86       0.1957
     36  OH       -31.8630   12.1650   -7.6920 O.3    86  TYR86      -0.2866
     37  N        -31.7160    8.1780   -2.3240 N.am   87  TYR87      -0.1960
     38  CA       -32.7030    7.3340   -3.0170 C.3    87  TYR87       0.1771
     39  C        -33.9530    7.0320   -2.1930 C.2    87  TYR87       0.2620
     40  O        -35.0090    6.7720   -2.7600 O.2    87  TYR87      -0.2715
     41  CB       -32.0650    6.0260   -3.5100 C.3    87  TYR87       0.0574
     42  CG       -30.9960    6.2440   -4.5520 C.ar   87  TYR87      -0.0198
     43  CD1      -31.3190    6.6870   -5.8310 C.ar   87  TYR87      -0.0009
     44  CD2      -29.6600    6.0140   -4.2560 C.ar   87  TYR87      -0.0009
     45  CE1      -30.3350    6.8950   -6.7930 C.ar   87  TYR87       0.0417
     46  CE2      -28.6700    6.2120   -5.2050 C.ar   87  TYR87       0.0417
     47  CZ       -29.0130    6.6580   -6.4730 C.ar   87  TYR87       0.1957
     48  OH       -28.0200    6.8670   -7.3990 O.3    87  TYR87      -0.2866
     49  N        -33.8400    7.0460   -0.8680 N.am   88  GLY88      -0.1940
     50  CA       -35.0060    6.8930   -0.0060 C.3    88  GLY88       0.2014
     51  C        -35.3770    5.4640    0.3620 C.2    88  GLY88       0.2638
     52  O        -36.4660    5.2330    0.9000 O.2    88  GLY88      -0.2714
     53  N        -34.4880    4.5080    0.0880 N.am   89  LEU89      -0.1977
     54  CA       -34.6680    3.1420    0.5800 C.3    89  LEU89       0.1596
     55  C        -34.2310    3.0580    2.0390 C.2    89  LEU89       0.2287
     56  O        -34.9870    2.6100    2.9000 O.2    89  LEU89      -0.2864
     57  CB       -33.8690    2.1530   -0.2690 C.3    89  LEU89       0.0297
     58  CG       -34.3330    2.0760   -1.7240 C.3    89  LEU89       0.0022
     59  CD1      -33.3160    1.3750   -2.5960 C.3    89  LEU89       0.0001
     60  CD2      -35.6730    1.3810   -1.8190 C.3    89  LEU89       0.0001
     61  N        -36.0180    3.4530    5.4890 N.3   103  ASN103     -0.1240
     62  CA       -36.9010    4.6110    5.4420 C.3   103  ASN103      0.1653
     63  C        -38.3370    4.1330    5.2810 C.2   103  ASN103      0.2266
     64  O        -38.6370    3.4360    4.3180 O.2   103  ASN103     -0.2867
     65  CB       -36.5240    5.5390    4.2850 C.3   103  ASN103      0.1155
     66  CG       -37.2970    6.8510    4.3060 C.2   103  ASN103      0.2627
     67  OD1      -38.2090    7.0340    5.1060 O.2   103  ASN103     -0.2716
     68  ND2      -36.9420    7.7680    3.4100 N.am  103  ASN103     -0.0877
     69  N        -40.9130    5.8610    4.4970 N.3   105  ASN105     -0.1225
     70  CA       -41.5480    6.5770    3.3850 C.3   105  ASN105      0.1785
     71  C        -40.9480    6.1920    2.0310 C.2   105  ASN105      0.2597
     72  O        -41.0880    6.9240    1.0460 O.2   105  ASN105     -0.2718
     73  CB       -41.4320    8.0920    3.5920 C.3   105  ASN105      0.1169
     74  CG       -41.8010    8.5170    5.0040 C.2   105  ASN105      0.2627
     75  OD1      -42.8560    8.1410    5.5220 O.2   105  ASN105     -0.2716
     76  ND2      -40.9220    9.2830    5.6440 N.am  105  ASN105     -0.0877
     77  N        -40.2890    5.0370    1.9900 N.am  106  SER106     -0.1952
     78  CA       -39.6830    4.5190    0.7640 C.3   106  SER106      0.1924
     79  C        -40.6630    4.4630   -0.4060 C.2   106  SER106      0.2314
     80  O        -40.2860    4.7320   -1.5270 O.2   106  SER106     -0.2863
     81  CB       -39.0960    3.1260    1.0310 C.3   106  SER106      0.2116
     82  OG       -39.9420    2.3890    1.8990 O.3   106  SER106     -0.2180
     83  N        -43.0330    6.4440   -1.2870 N.3   108  LEU108     -0.1231
     84  CA       -43.3400    7.7470   -1.8840 C.3   108  LEU108      0.1693
     85  C        -42.4230    8.1210   -3.0450 C.2   108  LEU108      0.2592
     86  O        -42.8730    8.7570   -3.9910 O.2   108  LEU108     -0.2718
     87  CB       -43.2990    8.8540   -0.8240 C.3   108  LEU108      0.0284
     88  CG       -44.4330    8.8900    0.2020 C.3   108  LEU108      0.0019
     89  CD1      -44.1840   10.0020    1.2050 C.3   108  LEU108      0.0001
     90  CD2      -45.7810    9.0870   -0.4690 C.3   108  LEU108      0.0001
     91  N        -41.1440    7.7590   -2.9710 N.am  109  CYS109     -0.1956
     92  CA       -40.2440    7.8970   -4.1260 C.3   109  CYS109      0.1843
     93  C        -40.7110    7.0080   -5.2590 C.2   109  CYS109      0.2625
     94  O        -40.8570    7.4440   -6.4010 O.2   109  CYS109     -0.2714
     95  CB       -38.8380    7.4030   -3.8070 C.3   109  CYS109      0.0997
     96  SG       -37.9160    8.4080   -2.7270 S.3   109  CYS109     -0.0797
     97  N        -40.9020    5.7390   -4.9100 N.am  110  ASN110     -0.1972
     98  CA       -41.0920    4.6790   -5.8710 C.3   110  ASN110      0.1688
     99  C        -42.1650    3.7420   -5.3650 C.2   110  ASN110      0.2292
    100  O        -41.9770    3.0700   -4.3550 O.2   110  ASN110     -0.2864
    101  CB       -39.7740    3.9170   -6.0410 C.3   110  ASN110      0.1181
    102  CG       -39.8370    2.8750   -7.1310 C.2   110  ASN110      0.2629
    103  OD1      -40.9080    2.5630   -7.6470 O.2   110  ASN110     -0.2716
    104  ND2      -38.6870    2.3240   -7.4860 N.am  110  ASN110     -0.0877
    105  N        -40.9530    0.3250   -4.7530 N.3   113  HIS113     -0.1241
    106  CA       -39.8640    0.2440   -3.7760 C.3   113  HIS113      0.1621
    107  C        -39.5760   -1.1540   -3.2460 C.2   113  HIS113      0.2264
    108  O        -38.4160   -1.5010   -3.0420 O.2   113  HIS113     -0.2867
    109  CB       -40.1140    1.2080   -2.5990 C.3   113  HIS113      0.0745
    110  CG       -41.2140    0.7820   -1.6730 C.ar  113  HIS113      0.0817
    111  ND1      -42.4870    0.4720   -2.1050 N.ar  113  HIS113     -0.2268
    112  CD2      -41.2330    0.6450   -0.3270 C.ar  113  HIS113      0.1154
    113  CE1      -43.2350    0.1420   -1.0670 C.ar  113  HIS113      0.1986
    114  NE2      -42.4990    0.2410    0.0230 N.ar  113  HIS113     -0.2212
    115  N        -37.1130   -3.2650   -5.0970 N.3   116  TYR116     -0.1241
    116  CA       -35.7630   -2.7600   -4.8170 C.3   116  TYR116      0.1605
    117  C        -35.1900   -3.2540   -3.4740 C.2   116  TYR116      0.2264
    118  O        -33.9770   -3.4010   -3.3350 O.2   116  TYR116     -0.2867
    119  CB       -35.7240   -1.2280   -4.8980 C.3   116  TYR116      0.0534
    120  CG       -35.2400   -0.7080   -6.2290 C.ar  116  TYR116     -0.0201
    121  CD1      -36.0940   -0.5910   -7.3160 C.ar  116  TYR116     -0.0009
    122  CD2      -33.9160   -0.3390   -6.3960 C.ar  116  TYR116     -0.0009
    123  CE1      -35.6350   -0.1200   -8.5410 C.ar  116  TYR116      0.0417
    124  CE2      -33.4430    0.1300   -7.6110 C.ar  116  TYR116      0.0417
    125  CZ       -34.3000    0.2420   -8.6810 C.ar  116  TYR116      0.1957
    126  OH       -33.7920    0.7310   -9.8740 O.3   116  TYR116     -0.2866
@<TRIPOS>BOND
     1    13    14    1
     2    13    10    1
     3    12    11    2
     4    11    10    1
     5    14    15    1
     6    17    15   ar
     7    15    16   ar
     8    10     9    1
     9     9     3   am
    10     3     4    2
    11     3     2    1
    12     1     2    1
    13   126   125    1
    14     2     5    1
    15     5     6    1
    16   125   123   ar
    17   125   124   ar
    18   123   121   ar
    19     6     8    1
    20     6     7    1
    21    36    35    1
    22   103   102    2
    23   124   122   ar
    24   104   102   am
    25    48    47    1
    26   121   120   ar
    27   102   101    1
    28    45    47   ar
    29    45    43   ar
    30    47    46   ar
    31    35    34   ar
    32    35    33   ar
    33    94    93    2
    34   122   120   ar
    35    34    32   ar
    36   120   119    1
    37   101    98    1
    38    98    99    1
    39    98    97    1
    40    43    42   ar
    41    99   100    2
    42    33    31   ar
    43    93    97   am
    44    93    92    1
    45    46    44   ar
    46    32    30   ar
    47   115   116    1
    48   119   116    1
    49   116   117    1
    50   105   106    1
    51    42    44   ar
    52    42    41    1
    53    92    95    1
    54    92    91    1
    55    31    30   ar
    56    86    85    2
    57    30    29    1
    58    95    96    1
    59   106   107    1
    60   106   109    1
    61    41    38    1
    62   117   118    2
    63   107   108    2
    64    85    91   am
    65    85    84    1
    66    38    37    1
    67    38    39    1
    68    40    39    2
    69    29    26    1
    70    28    27    2
    71   109   110    1
    72    59    58    1
    73    37    27   am
    74    27    26    1
    75    39    49   am
    76   111   110   ar
    77   111   113   ar
    78    84    83    1
    79    84    87    1
    80    60    58    1
    81    58    57    1
    82   110   112   ar
    83    26    25    1
    84    80    79    2
    85   113   114   ar
    86    49    50    1
    87    87    88    1
    88    90    88    1
    89    25    20   am
    90    79    78    1
    91   112   114   ar
    92    57    54    1
    93    50    51    1
    94    53    51   am
    95    53    54    1
    96    88    89    1
    97    51    52    2
    98    21    20    2
    99    20    19    1
   100    54    55    1
   101    78    81    1
   102    78    77    1
   103    81    82    1
   104    72    71    2
   105    18    19    1
   106    18    24    1
   107    19    22    1
   108    77    71   am
   109    71    70    1
   110    55    56    2
   111    24    23    1
   112    22    23    1
   113    70    73    1
   114    70    69    1
   115    68    66   am
   116    73    74    1
   117    65    66    1
   118    65    62    1
   119    66    67    2
   120    64    63    2
   121    74    75    2
   122    74    76   am
   123    63    62    1
   124    62    61    1
