@<TRIPOS>MOLECULE
tmp/5c93A00.pdb
 171 162 0 0 0
SMALL
GASTEIGER

@<TRIPOS>ATOM
      1  N         10.4970  -14.9000  -17.5940 N.3    67  GLU67      -0.1245
      2  CA        10.8530  -15.7190  -18.7470 C.3    67  GLU67       0.1567
      3  C         12.3590  -15.7290  -18.9470 C.2    67  GLU67       0.2260
      4  O         12.9390  -16.7590  -19.2870 O.2    67  GLU67      -0.2867
      5  CB        10.1630  -15.2200  -20.0180 C.3    67  GLU67       0.0388
      6  CG         8.6620  -15.4610  -20.0660 C.3    67  GLU67       0.1160
      7  CD         8.0160  -14.8630  -21.3010 C.2    67  GLU67       0.3649
      8  OE1        8.6750  -14.0420  -21.9700 O.co2  67  GLU67      -0.2457
      9  OE2        6.8620  -15.2300  -21.6130 O.co2  67  GLU67      -0.2457
     10  N          1.6340  -22.4180  -24.9860 N.3   139  ASN139     -0.1240
     11  CA         2.2960  -21.4310  -25.8210 C.3   139  ASN139      0.1653
     12  C          1.8950  -21.5870  -27.2880 C.2   139  ASN139      0.2266
     13  O          1.5810  -20.6050  -27.9680 O.2   139  ASN139     -0.2867
     14  CB         3.8130  -21.5390  -25.6570 C.3   139  ASN139      0.1155
     15  CG         4.5700  -20.6160  -26.5930 C.2   139  ASN139      0.2627
     16  OD1        5.5840  -21.0020  -27.1720 O.2   139  ASN139     -0.2716
     17  ND2        4.0770  -19.3910  -26.7500 N.am  139  ASN139     -0.0877
     18  N         -1.9010  -20.9340  -27.6290 N.3   142  ASN142     -0.1225
     19  CA        -2.1140  -19.4920  -27.5900 C.3   142  ASN142      0.1785
     20  C         -1.7980  -18.8760  -28.9390 C.2   142  ASN142      0.2597
     21  O         -2.5710  -18.0770  -29.4590 O.2   142  ASN142     -0.2718
     22  CB        -1.2630  -18.8400  -26.5000 C.3   142  ASN142      0.1169
     23  CG        -1.8360  -19.0470  -25.1170 C.2   142  ASN142      0.2627
     24  OD1       -3.0530  -19.0830  -24.9370 O.2   142  ASN142     -0.2716
     25  ND2       -0.9610  -19.1840  -24.1270 N.am  142  ASN142     -0.0877
     26  N         -0.6640  -19.2700  -29.5080 N.am  143  ASN143     -0.1960
     27  CA        -0.2560  -18.7930  -30.8230 C.3   143  ASN143      0.1819
     28  C         -1.2780  -19.1750  -31.8840 C.2   143  ASN143      0.2621
     29  O         -1.6790  -18.3420  -32.6990 O.2   143  ASN143     -0.2715
     30  CB         1.1160  -19.3520  -31.1900 C.3   143  ASN143      0.1195
     31  CG         2.2440  -18.6490  -30.4690 C.2   143  ASN143      0.2630
     32  OD1        2.1060  -17.5010  -30.0530 O.2   143  ASN143     -0.2716
     33  ND2        3.3650  -19.3410  -30.3050 N.am  143  ASN143     -0.0877
     34  N         -1.6930  -20.4410  -31.8670 N.am  144  ALA144     -0.1977
     35  CA        -2.6480  -20.9570  -32.8430 C.3   144  ALA144      0.1597
     36  C         -3.9630  -20.1830  -32.7910 C.2   144  ALA144      0.2287
     37  O         -4.5650  -19.8950  -33.8250 O.2   144  ALA144     -0.2864
     38  CB        -2.8980  -22.4350  -32.6070 C.3   144  ALA144      0.0319
     39  N         -4.3180  -17.0450  -31.3840 N.3   146  LYS146     -0.1231
     40  CA        -4.0160  -15.6420  -31.6260 C.3   146  LYS146      0.1693
     41  C         -3.8540  -15.3260  -33.1180 C.2   146  LYS146      0.2592
     42  O         -4.2470  -14.2560  -33.5790 O.2   146  LYS146     -0.2718
     43  CB        -2.7500  -15.2650  -30.8470 C.3   146  LYS146      0.0285
     44  CG        -2.2220  -13.8610  -31.0530 C.3   146  LYS146      0.0035
     45  CD        -1.2700  -13.5070  -29.9130 C.3   146  LYS146      0.0206
     46  CE        -0.4350  -12.2740  -30.2100 C.3   146  LYS146      0.1093
     47  NZ         0.6550  -12.5780  -31.1750 N.3   146  LYS146     -0.1314
     48  N         -3.2840  -16.2660  -33.8670 N.am  147  TYR147     -0.1976
     49  CA        -3.0350  -16.0790  -35.2970 C.3   147  TYR147      0.1639
     50  C         -4.0060  -16.8280  -36.2010 C.2   147  TYR147      0.2290
     51  O         -3.6640  -17.1640  -37.3330 O.2   147  TYR147     -0.2864
     52  CB        -1.6060  -16.4900  -35.6400 C.3   147  TYR147      0.0560
     53  CG        -0.5720  -15.5940  -35.0080 C.ar  147  TYR147     -0.0198
     54  CD1       -0.3890  -14.2920  -35.4540 C.ar  147  TYR147     -0.0009
     55  CD2        0.2200  -16.0480  -33.9660 C.ar  147  TYR147     -0.0009
     56  CE1        0.5520  -13.4670  -34.8760 C.ar  147  TYR147      0.0417
     57  CE2        1.1650  -15.2300  -33.3840 C.ar  147  TYR147      0.0417
     58  CZ         1.3280  -13.9430  -33.8430 C.ar  147  TYR147      0.1957
     59  OH         2.2710  -13.1300  -33.2610 O.3   147  TYR147     -0.2866
     60  N         -3.2140  -24.0070  -37.5490 N.3   171  ASP171     -0.1239
     61  CA        -4.0390  -22.8080  -37.5820 C.3   171  ASP171      0.1674
     62  C         -4.2910  -22.4500  -39.0390 C.2   171  ASP171      0.2266
     63  O         -3.5460  -22.8630  -39.9240 O.2   171  ASP171     -0.2867
     64  CB        -3.3670  -21.6420  -36.8490 C.3   171  ASP171      0.1410
     65  CG        -2.0560  -21.2290  -37.4920 C.2   171  ASP171      0.3668
     66  OD1       -2.0940  -20.4830  -38.4930 O.co2 171  ASP171     -0.2456
     67  OD2       -0.9900  -21.6570  -37.0060 O.co2 171  ASP171     -0.2456
     68  N         -4.1300  -19.3300  -40.3430 N.3   173  GLY173     -0.1225
     69  CA        -3.7520  -17.9350  -40.4540 C.3   173  GLY173      0.1811
     70  C         -3.0150  -17.6390  -41.7460 C.2   173  GLY173      0.2280
     71  O         -3.0470  -18.4340  -42.6850 O.2   173  GLY173     -0.2866
     72  N          0.1440  -17.5580  -41.9930 N.3   175  GLY175     -0.1210
     73  CA         1.3330  -18.3850  -42.0210 C.3   175  GLY175      0.1956
     74  C          2.6490  -17.7130  -41.6910 C.2   175  GLY175      0.2611
     75  O          2.6910  -16.5950  -41.1800 O.2   175  GLY175     -0.2717
     76  N          3.7330  -18.4130  -42.0070 N.am  176  ILE176     -0.1979
     77  CA         5.0860  -17.9410  -41.7400 C.3   176  ILE176      0.1595
     78  C          5.9710  -18.0870  -42.9710 C.2   176  ILE176      0.2287
     79  O          5.9930  -19.1470  -43.5930 O.2   176  ILE176     -0.2864
     80  CB         5.7280  -18.7270  -40.5680 C.3   176  ILE176      0.0276
     81  CG1        4.8750  -18.6180  -39.3030 C.3   176  ILE176      0.0022
     82  CG2        7.1520  -18.2610  -40.3050 C.3   176  ILE176      0.0022
     83  CD1        5.2340  -19.6340  -38.2420 C.3   176  ILE176      0.0001
     84  N         11.5350  -18.3600  -35.7830 N.3   184  VAL184     -0.1245
     85  CA        10.4210  -18.1050  -34.8710 C.3   184  VAL184      0.1561
     86  C         10.6980  -18.6510  -33.4690 C.2   184  VAL184      0.2260
     87  O         10.0170  -18.2880  -32.5100 O.2   184  VAL184     -0.2867
     88  CB         9.1010  -18.7100  -35.3930 C.3   184  VAL184      0.0252
     89  CG1        8.5930  -17.9310  -36.6000 C.3   184  VAL184      0.0019
     90  CG2        9.2780  -20.1860  -35.7160 C.3   184  VAL184      0.0019
     91  N         12.3520  -12.9070  -31.0890 N.3   189  PHE189     -0.1227
     92  CA        11.7420  -12.8130  -32.4120 C.3   189  PHE189      0.1736
     93  C         10.2350  -12.7030  -32.2460 C.2   189  PHE189      0.2595
     94  O          9.5870  -13.6070  -31.7180 O.2   189  PHE189     -0.2718
     95  CB        12.0790  -14.0310  -33.2800 C.3   189  PHE189      0.0547
     96  CG        11.4990  -13.9660  -34.6730 C.ar  189  PHE189     -0.0202
     97  CD1       10.1850  -14.3480  -34.9160 C.ar  189  PHE189     -0.0042
     98  CD2       12.2690  -13.5300  -35.7370 C.ar  189  PHE189     -0.0042
     99  CE1        9.6500  -14.2820  -36.1870 C.ar  189  PHE189     -0.0003
    100  CE2       11.7390  -13.4650  -37.0180 C.ar  189  PHE189     -0.0003
    101  CZ        10.4290  -13.8420  -37.2410 C.ar  189  PHE189     -0.0000
    102  N          9.6820  -11.5880  -32.7020 N.am  190  ARG190     -0.1966
    103  CA         8.2420  -11.3950  -32.7180 C.3   190  ARG190      0.1729
    104  C          7.8390  -10.6160  -33.9570 C.2   190  ARG190      0.2616
    105  O          8.6420   -9.8670  -34.5150 O.2   190  ARG190     -0.2715
    106  CB         7.7660  -10.6960  -31.4430 C.3   190  ARG190      0.0348
    107  CG         8.6830   -9.6030  -30.9490 C.3   190  ARG190      0.0492
    108  CD         8.2720   -9.1530  -29.5670 C.3   190  ARG190      0.2205
    109  NE         9.1240   -8.0800  -29.0690 N.pl3 190  ARG190     -0.0865
    110  CZ         8.7280   -6.8200  -28.9310 C.cat 190  ARG190      0.5346
    111  NH1        7.4870   -6.4740  -29.2490 N.pl3 190  ARG190      0.1354
    112  NH2        9.5710   -5.9070  -28.4670 N.pl3 190  ARG190      0.1354
    113  N          6.5950  -10.7990  -34.3840 N.am  191  VAL191     -0.1977
    114  CA         6.0900  -10.1260  -35.5710 C.3   191  VAL191      0.1596
    115  C          6.3540   -8.6490  -35.3050 C.2   191  VAL191      0.2287
    116  O          6.3540   -8.1940  -34.1590 O.2   191  VAL191     -0.2864
    117  CB         4.6620  -10.6030  -35.9200 C.3   191  VAL191      0.0276
    118  CG1        3.7560  -10.5660  -34.6830 C.3   191  VAL191      0.0022
    119  CG2        4.0830   -9.7800  -37.0570 C.3   191  VAL191      0.0022
    120  N          3.4170   -9.4460  -24.8970 N.3   197  GLY197     -0.1210
    121  CA         4.0420  -10.2270  -25.9560 C.3   197  GLY197      0.1956
    122  C          5.5460  -10.0250  -26.0600 C.2   197  GLY197      0.2613
    123  O          6.0100   -9.0580  -26.6640 O.2   197  GLY197     -0.2717
    124  N          6.3100  -10.9510  -25.4870 N.am  198  THR198     -0.1938
    125  CA         7.7630  -10.8030  -25.3750 C.3   198  THR198      0.2028
    126  C          8.5400  -11.3210  -26.5840 C.2   198  THR198      0.2643
    127  O          9.5430  -10.7360  -26.9860 O.2   198  THR198     -0.2714
    128  CB         8.2940  -11.5370  -24.1270 C.3   198  THR198      0.1808
    129  OG1        7.9240  -12.9200  -24.1950 O.3   198  THR198     -0.2208
    130  CG2        7.7260  -10.9190  -22.8500 C.3   198  THR198      0.0379
    131  N          8.0790  -12.4310  -27.1460 N.am  199  GLY199     -0.1939
    132  CA         8.8000  -13.1220  -28.1990 C.3   199  GLY199      0.2014
    133  C          9.8340  -14.0720  -27.6240 C.2   199  GLY199      0.2639
    134  O         10.8530  -14.3530  -28.2500 O.2   199  GLY199     -0.2714
    135  N          9.5620  -14.5640  -26.4200 N.am  200  LEU200     -0.1963
    136  CA        10.4420  -15.5030  -25.7360 C.3   200  LEU200      0.1728
    137  C          9.7730  -16.8610  -25.5850 C.2   200  LEU200      0.2617
    138  O         10.4240  -17.8430  -25.2340 O.2   200  LEU200     -0.2715
    139  CB        10.8630  -14.9690  -24.3650 C.3   200  LEU200      0.0311
    140  CG        11.7390  -13.7190  -24.3350 C.3   200  LEU200      0.0022
    141  CD1       11.9680  -13.2610  -22.8970 C.3   200  LEU200      0.0001
    142  CD2       13.0610  -13.9890  -25.0350 C.3   200  LEU200      0.0001
    143  N          8.4630  -16.8920  -25.8170 N.am  201  GLY201     -0.1940
    144  CA         7.6570  -18.0860  -25.6220 C.3   201  GLY201      0.2014
    145  C          8.1530  -19.3150  -26.3690 C.2   201  GLY201      0.2638
    146  O          8.3630  -20.3690  -25.7670 O.2   201  GLY201     -0.2714
    147  N          8.3370  -19.1850  -27.6800 N.am  202  LEU202     -0.1977
    148  CA         8.7600  -20.3090  -28.5090 C.3   202  LEU202      0.1596
    149  C         10.2160  -20.6640  -28.2350 C.2   202  LEU202      0.2287
    150  O         10.6370  -21.8030  -28.4320 O.2   202  LEU202     -0.2864
    151  CB         8.5660  -19.9880  -29.9930 C.3   202  LEU202      0.0297
    152  CG         7.1140  -19.8920  -30.4610 C.3   202  LEU202      0.0022
    153  CD1        7.0400  -19.5420  -31.9380 C.3   202  LEU202      0.0001
    154  CD2        6.3860  -21.1980  -30.1860 C.3   202  LEU202      0.0001
    155  N         -0.4090  -22.5190  -40.4820 N.3   226  SER226     -0.1217
    156  CA         0.8160  -23.0680  -39.9220 C.3   226  SER226      0.1889
    157  C          0.5050  -24.3470  -39.1600 C.2   226  SER226      0.2288
    158  O         -0.5790  -24.5060  -38.6000 O.2   226  SER226     -0.2866
    159  CB         1.5030  -22.0620  -38.9950 C.3   226  SER226      0.2089
    160  OG         1.6580  -20.8010  -39.6230 O.3   226  SER226     -0.2183
    161  N          2.5030  -26.6370  -36.1970 N.3   228  PHE228     -0.1241
    162  CA         3.6350  -26.8510  -35.3150 C.3   228  PHE228      0.1605
    163  C          3.7110  -28.3220  -34.9400 C.2   228  PHE228      0.2264
    164  O          2.6870  -28.9720  -34.7440 O.2   228  PHE228     -0.2867
    165  CB         3.5140  -25.9740  -34.0640 C.3   228  PHE228      0.0534
    166  CG         3.8910  -24.5380  -34.2960 C.ar  228  PHE228     -0.0203
    167  CD1        3.0380  -23.6840  -34.9780 C.ar  228  PHE228     -0.0042
    168  CD2        5.1000  -24.0430  -33.8350 C.ar  228  PHE228     -0.0042
    169  CE1        3.3860  -22.3660  -35.1980 C.ar  228  PHE228     -0.0003
    170  CE2        5.4540  -22.7260  -34.0510 C.ar  228  PHE228     -0.0003
    171  CZ         4.5940  -21.8850  -34.7340 C.ar  228  PHE228     -0.0000
@<TRIPOS>BOND
     1    79    78    2
     2    78    77    1
     3    71    70    2
     4    73    72    1
     5    73    74    1
     6    76    77    1
     7    76    74   am
     8    70    69    1
     9    77    80    1
    10    74    75    2
    11    80    82    1
    12    80    81    1
    13   155   156    1
    14    69    68    1
    15    63    62    2
    16   156   157    1
    17   156   159    1
    18   160   159    1
    19    81    83    1
    20   157   158    2
    21    62    61    1
    22    66    65   ar
    23    61    60    1
    24    61    64    1
    25    65    67   ar
    26    65    64    1
    27    51    50    2
    28   101   100   ar
    29   101    99   ar
    30   119   117    1
    31   100    98   ar
    32    89    88    1
    33    50    49    1
    34   161   162    1
    35    99    97   ar
    36   117   114    1
    37   117   118    1
    38    84    85    1
    39    98    96   ar
    40    90    88    1
    41    52    49    1
    42    52    53    1
    43   114   115    1
    44   114   113    1
    45    54    53   ar
    46    54    56   ar
    47    88    85    1
    48   162   163    1
    49   162   165    1
    50   115   116    2
    51    49    48    1
    52   169   167   ar
    53   169   171   ar
    54    53    55   ar
    55   167   166   ar
    56   163   164    2
    57    97    96   ar
    58    56    58   ar
    59    85    86    1
    60   171   170   ar
    61    96    95    1
    62   105   104    2
    63   113   104   am
    64   166   165    1
    65   166   168   ar
    66   170   168   ar
    67    55    57   ar
    68   104   103    1
    69    48    41   am
    70    58    57   ar
    71    58    59    1
    72    37    36    2
    73    42    41    2
    74    86    87    2
    75    95    92    1
    76    41    40    1
    77    35    36    1
    78    35    38    1
    79    35    34    1
    80   103   102    1
    81   103   106    1
    82   102    93   am
    83    29    28    2
    84    92    93    1
    85    92    91    1
    86    93    94    2
    87   153   152    1
    88    28    34   am
    89    28    27    1
    90    40    39    1
    91    40    43    1
    92   106   107    1
    93    30    27    1
    94    30    31    1
    95    47    46    1
    96    44    43    1
    97    44    45    1
    98   107   108    1
    99    27    26    1
   100    31    33   am
   101    31    32    2
   102   152   154    1
   103   152   151    1
   104    46    45    1
   105   151   148    1
   106   108   109    1
   107    26    20   am
   108    21    20    2
   109   111   110    1
   110   109   110    2
   111    20    19    1
   112   110   112    1
   113   148   149    1
   114   148   147    1
   115   150   149    2
   116   134   133    2
   117   132   133    1
   118   132   131    1
   119    13    12    2
   120   147   145   am
   121    18    19    1
   122   133   135   am
   123    19    22    1
   124    12    11    1
   125    16    15    2
   126   131   126   am
   127   127   126    2
   128    17    15   am
   129   123   122    2
   130    15    14    1
   131   126   125    1
   132    22    23    1
   133   135   136    1
   134   145   146    2
   135   145   144    1
   136   122   121    1
   137   122   124   am
   138   121   120    1
   139    11    14    1
   140    11    10    1
   141   143   144    1
   142   143   137   am
   143   136   137    1
   144   136   139    1
   145   137   138    2
   146   124   125    1
   147   125   128    1
   148    23    24    2
   149    23    25   am
   150   142   140    1
   151   139   140    1
   152   140   141    1
   153   129   128    1
   154   128   130    1
   155     8     7   ar
   156     9     7   ar
   157     7     6    1
   158     6     5    1
   159     5     2    1
   160     4     3    2
   161     3     2    1
   162     2     1    1
