@<TRIPOS>MOLECULE
tmp/5c9cB00.pdb
 219 210 0 0 0
SMALL
GASTEIGER

@<TRIPOS>ATOM
      1  N        -30.8700   42.7820   -4.7900 N.3    15  ILE15      -0.1245
      2  CA       -31.4650   42.0830   -3.6740 C.3    15  ILE15       0.1561
      3  C        -32.1970   43.1050   -2.8180 C.2    15  ILE15       0.2260
      4  O        -33.2250   42.7850   -2.2310 O.2    15  ILE15      -0.2867
      5  CB       -30.4090   41.2750   -2.8400 C.3    15  ILE15       0.0252
      6  CG1      -29.5770   40.3580   -3.7440 C.3    15  ILE15       0.0019
      7  CG2      -31.0830   40.3870   -1.7710 C.3    15  ILE15       0.0019
      8  CD1      -30.2590   38.9990   -4.1180 C.3    15  ILE15       0.0001
      9  N        -27.6880   46.3560   -2.8980 N.3    23  VAL23      -0.1245
     10  CA       -27.0570   45.0890   -2.6370 C.3    23  VAL23       0.1561
     11  C        -27.3650   44.1340   -3.7530 C.2    23  VAL23       0.2260
     12  O        -28.5290   43.9300   -4.0840 O.2    23  VAL23      -0.2867
     13  CB       -27.4980   44.5220   -1.2860 C.3    23  VAL23       0.0252
     14  CG1      -26.8310   43.2090   -1.0240 C.3    23  VAL23       0.0019
     15  CG2      -27.1210   45.5150   -0.1970 C.3    23  VAL23       0.0019
     16  N        -21.6490   38.8200   -2.3550 N.3    33  ALA33      -0.1231
     17  CA       -22.6050   39.8960   -2.2690 C.3    33  ALA33       0.1694
     18  C        -21.8010   41.1660   -2.4180 C.2    33  ALA33       0.2592
     19  O        -20.6460   41.2540   -1.9800 O.2    33  ALA33      -0.2718
     20  CB       -23.3340   39.8700   -0.9480 C.3    33  ALA33       0.0304
     21  N        -22.4220   42.1400   -3.0670 N.am   34  VAL34      -0.1966
     22  CA       -21.7810   43.4000   -3.3450 C.3    34  VAL34       0.1727
     23  C        -22.7400   44.4710   -2.9180 C.2    34  VAL34       0.2616
     24  O        -23.9040   44.4070   -3.2660 O.2    34  VAL34      -0.2715
     25  CB       -21.4740   43.5640   -4.8580 C.3    34  VAL34       0.0290
     26  CG1      -20.8360   44.9350   -5.1450 C.3    34  VAL34       0.0023
     27  CG2      -20.5560   42.4380   -5.3660 C.3    34  VAL34       0.0023
     28  N        -22.2470   45.4270   -2.1430 N.am   35  LYS35      -0.1977
     29  CA       -22.9890   46.6170   -1.7790 C.3    35  LYS35       0.1596
     30  C        -22.3020   47.8380   -2.3910 C.2    35  LYS35       0.2287
     31  O        -21.1290   48.1260   -2.0980 O.2    35  LYS35      -0.2864
     32  CB       -23.0700   46.7580   -0.2610 C.3    35  LYS35       0.0298
     33  CG       -23.8240   47.9970    0.1810 C.3    35  LYS35       0.0038
     34  CD       -24.1420   47.9850    1.6670 C.3    35  LYS35       0.0206
     35  CE       -23.2550   48.9580    2.4080 C.3    35  LYS35       0.1093
     36  NZ       -22.9760   48.4940    3.7730 N.3    35  LYS35      -0.1314
     37  N        -16.5910   51.4240    7.0980 N.3    53  GLU53      -0.1245
     38  CA       -17.0790   50.0640    7.0030 C.3    53  GLU53       0.1567
     39  C        -16.0440   49.0500    6.5270 C.2    53  GLU53       0.2260
     40  O        -15.9800   47.9540    7.0570 O.2    53  GLU53      -0.2867
     41  CB       -18.3340   49.9660    6.1760 C.3    53  GLU53       0.0388
     42  CG       -19.3120   48.9530    6.7490 C.3    53  GLU53       0.1160
     43  CD       -20.5800   48.8530    5.9240 C.2    53  GLU53       0.3649
     44  OE1      -20.7080   49.5750    4.8900 O.co2  53  GLU53      -0.2457
     45  OE2      -21.4510   48.0370    6.3170 O.co2  53  GLU53      -0.2457
     46  N        -13.6790   48.4820    9.6400 N.3    56  VAL56      -0.1231
     47  CA       -14.1730   47.5840   10.6640 C.3    56  VAL56       0.1692
     48  C        -14.2130   46.1790   10.0840 C.2    56  VAL56       0.2591
     49  O        -13.7120   45.2450   10.7080 O.2    56  VAL56      -0.2718
     50  CB       -15.6200   47.9540   11.1180 C.3    56  VAL56       0.0266
     51  CG1      -16.1020   47.0160   12.1960 C.3    56  VAL56       0.0020
     52  CG2      -15.6770   49.3620   11.6090 C.3    56  VAL56       0.0020
     53  N        -14.8290   46.0360    8.9020 N.am   57  LEU57      -0.1980
     54  CA       -14.9340   44.7360    8.2530 C.3    57  LEU57       0.1596
     55  C        -13.5780   44.0440    8.1650 C.2    57  LEU57       0.2287
     56  O        -13.4570   42.8790    8.5500 O.2    57  LEU57      -0.2864
     57  CB       -15.6080   44.8210    6.8870 C.3    57  LEU57       0.0297
     58  CG       -17.1460   44.8100    6.9880 C.3    57  LEU57       0.0022
     59  CD1      -17.8170   45.3310    5.7140 C.3    57  LEU57       0.0001
     60  CD2      -17.7130   43.4280    7.4130 C.3    57  LEU57       0.0001
     61  N        -12.0920   41.8900   10.9800 N.3    60  THR60      -0.1218
     62  CA       -12.8370   40.6950   11.3910 C.3    60  THR60       0.1862
     63  C        -12.5150   39.4260   10.5920 C.2    60  THR60       0.2287
     64  O        -12.6050   39.4330    9.3510 O.2    60  THR60      -0.2866
     65  CB       -14.3830   40.9210   11.2900 C.3    60  THR60       0.1770
     66  OG1      -14.7390   41.1560    9.9260 O.3    60  THR60      -0.2211
     67  CG2      -14.8200   42.0890   12.1430 C.3    60  THR60       0.0375
     68  N        -19.1500   35.7870   11.8310 N.3    65  ILE65      -0.1231
     69  CA       -19.2500   37.1340   11.3530 C.3    65  ILE65       0.1692
     70  C        -19.1900   37.1210    9.8230 C.2    65  ILE65       0.2591
     71  O        -18.3280   36.4690    9.2460 O.2    65  ILE65      -0.2718
     72  CB       -18.1270   38.0030   11.9270 C.3    65  ILE65       0.0266
     73  CG1      -18.1270   37.9590   13.4640 C.3    65  ILE65       0.0019
     74  CG2      -18.2180   39.4260   11.3920 C.3    65  ILE65       0.0020
     75  CD1      -19.3160   38.5930   14.1220 C.3    65  ILE65       0.0001
     76  N        -20.1050   37.8480    9.1760 N.am   66  LEU66      -0.1980
     77  CA       -20.1080   37.9660    7.7240 C.3    66  LEU66       0.1596
     78  C        -18.6740   38.1420    7.1820 C.2    66  LEU66       0.2287
     79  O        -17.8690   38.8940    7.7370 O.2    66  LEU66      -0.2864
     80  CB       -21.0160   39.1220    7.3240 C.3    66  LEU66       0.0297
     81  CG       -21.2690   39.3610    5.8460 C.3    66  LEU66       0.0022
     82  CD1      -22.2720   38.4080    5.3290 C.3    66  LEU66       0.0001
     83  CD2      -21.7630   40.7700    5.6620 C.3    66  LEU66       0.0001
     84  N        -18.4390   47.3770   -1.5220 N.3    79  ILE79      -0.1245
     85  CA       -17.8690   46.4440   -0.5350 C.3    79  ILE79       0.1561
     86  C        -18.3080   45.0160   -0.8590 C.2    79  ILE79       0.2260
     87  O        -19.5120   44.7260   -0.9500 O.2    79  ILE79      -0.2867
     88  CB       -18.2760   46.8170    0.9020 C.3    79  ILE79       0.0252
     89  CG1      -17.7120   48.2060    1.2400 C.3    79  ILE79       0.0019
     90  CG2      -17.7860   45.7560    1.9300 C.3    79  ILE79       0.0019
     91  CD1      -18.4630   48.9360    2.3190 C.3    79  ILE79       0.0001
     92  N        -18.5320   41.0880    0.0230 N.3    81  THR81      -0.1203
     93  CA       -18.5030   40.0410    1.0440 C.3    81  THR81       0.1994
     94  C        -18.9120   38.6700    0.4930 C.2    81  THR81       0.2618
     95  O        -19.3900   38.5370   -0.6480 O.2    81  THR81      -0.2717
     96  CB       -19.4880   40.3490    2.1920 C.3    81  THR81       0.1784
     97  OG1      -20.8340   40.0180    1.7980 O.3    81  THR81      -0.2211
     98  CG2      -19.3950   41.7890    2.6240 C.3    81  THR81       0.0376
     99  N        -18.7880   37.6510    1.3340 N.am   82  GLN82      -0.1965
    100  CA       -19.3850   36.3610    1.0200 C.3    82  GLN82       0.1733
    101  C        -20.8830   36.5140    0.7600 C.2    82  GLN82       0.2616
    102  O        -21.5230   37.4900    1.2160 O.2    82  GLN82      -0.2715
    103  CB       -19.1470   35.3620    2.1540 C.3    82  GLN82       0.0408
    104  CG       -19.9950   35.5410    3.4050 C.3    82  GLN82       0.0908
    105  CD       -19.9330   34.3300    4.3000 C.2    82  GLN82       0.2608
    106  OE1      -19.5280   34.3950    5.4590 O.2    82  GLN82      -0.2717
    107  NE2      -20.3180   33.2070    3.7540 N.am   82  GLN82      -0.0878
    108  N        -21.4230   35.5590    0.0140 N.am   83  TRP83      -0.1960
    109  CA       -22.8490   35.4770   -0.2430 C.3    83  TRP83       0.1771
    110  C        -23.5070   34.6120    0.7930 C.2    83  TRP83       0.2619
    111  O        -23.0000   33.5440    1.1330 O.2    83  TRP83      -0.2715
    112  CB       -23.1020   34.8250   -1.5890 C.3    83  TRP83       0.0590
    113  CG       -24.5580   34.5390   -1.8030 C.ar   83  TRP83       0.0006
    114  CD1      -25.1670   33.3060   -1.8200 C.ar   83  TRP83       0.0946
    115  CD2      -25.6020   35.5070   -2.0060 C.ar   83  TRP83       0.0152
    116  NE1      -26.5160   33.4490   -2.0370 N.ar   83  TRP83      -0.2442
    117  CE2      -26.8140   34.7880   -2.1530 C.ar   83  TRP83       0.0810
    118  CE3      -25.6300   36.9100   -2.0840 C.ar   83  TRP83       0.0012
    119  CZ2      -28.0560   35.4330   -2.3790 C.ar   83  TRP83       0.0191
    120  CZ3      -26.8470   37.5470   -2.3020 C.ar   83  TRP83       0.0001
    121  CH2      -28.0490   36.8060   -2.4470 C.ar   83  TRP83       0.0015
    122  N        -24.6530   35.0340    1.2970 N.am   84  CYS84      -0.1968
    123  CA       -25.3500   34.1850    2.2620 C.3    84  CYS84       0.1712
    124  C        -26.5760   33.5590    1.6530 C.2    84  CYS84       0.2296
    125  O        -27.4390   34.2400    1.1020 O.2    84  CYS84      -0.2864
    126  CB       -25.6710   34.9330    3.5500 C.3    84  CYS84       0.0983
    127  SG       -24.1670   35.3640    4.4590 S.3    84  CYS84      -0.0798
    128  N        -29.9280   31.5600    2.3060 N.3    86  GLY86      -0.1225
    129  CA       -30.8670   31.2670    3.3570 C.3    86  GLY86       0.1811
    130  C        -31.6630   32.5050    3.6560 C.2    86  GLY86       0.2280
    131  O        -31.9110   33.3530    2.7660 O.2    86  GLY86      -0.2866
    132  N        -16.6010   40.2680   18.2820 N.3   119  LEU119     -0.1245
    133  CA       -16.6320   41.6920   17.9260 C.3   119  LEU119      0.1561
    134  C        -16.2080   42.5400   19.1150 C.2   119  LEU119      0.2260
    135  O        -15.5170   43.5420   18.9470 O.2   119  LEU119     -0.2867
    136  CB       -18.0040   42.1470   17.4240 C.3   119  LEU119      0.0270
    137  CG       -18.4800   41.5630   16.0900 C.3   119  LEU119      0.0019
    138  CD1      -19.8400   42.1120   15.6540 C.3   119  LEU119      0.0001
    139  CD2      -17.4270   41.8440   15.0440 C.3   119  LEU119      0.0001
    140  N        -15.2980   46.2190   18.8370 N.3   124  ILE124     -0.1231
    141  CA       -16.3300   46.5960   17.8790 C.3   124  ILE124      0.1692
    142  C        -17.6940   46.5010   18.5370 C.2   124  ILE124      0.2592
    143  O        -18.0850   45.4590   19.0230 O.2   124  ILE124     -0.2718
    144  CB       -16.2790   45.7240   16.6100 C.3   124  ILE124      0.0266
    145  CG1      -14.9150   45.9130   15.9320 C.3   124  ILE124      0.0019
    146  CG2      -17.4380   46.0860   15.6500 C.3   124  ILE124      0.0020
    147  CD1      -14.4710   44.8180   14.9400 C.3   124  ILE124      0.0001
    148  N        -18.4120   47.6060   18.5580 N.am  125  ILE125     -0.1966
    149  CA       -19.7540   47.5780   19.0290 C.3   125  ILE125      0.1727
    150  C        -20.6030   47.5120   17.7800 C.2   125  ILE125      0.2616
    151  O        -20.3790   48.2640   16.8390 O.2   125  ILE125     -0.2715
    152  CB       -20.0880   48.8280   19.8460 C.3   125  ILE125      0.0290
    153  CG1      -19.1430   48.9330   21.0460 C.3   125  ILE125      0.0022
    154  CG2      -21.5760   48.7900   20.2940 C.3   125  ILE125      0.0023
    155  CD1      -19.0940   50.3070   21.6930 C.3   125  ILE125      0.0001
    156  N        -21.5660   46.6010   17.7570 N.am  126  HIS126     -0.1973
    157  CA       -22.3490   46.3970   16.5790 C.3   126  HIS126      0.1656
    158  C        -23.3070   47.5520   16.3340 C.2   126  HIS126      0.2291
    159  O        -23.4660   47.9830   15.1930 O.2   126  HIS126     -0.2864
    160  CB       -23.1250   45.1040   16.6930 C.3   126  HIS126      0.0771
    161  CG       -23.8870   44.7620   15.4490 C.ar  126  HIS126      0.0820
    162  ND1      -25.0300   45.4300   15.0730 N.ar  126  HIS126     -0.2267
    163  CD2      -23.6460   43.8440   14.4810 C.ar  126  HIS126      0.1154
    164  CE1      -25.4690   44.9230   13.9350 C.ar  126  HIS126      0.1986
    165  NE2      -24.6450   43.9640   13.5500 N.ar  126  HIS126     -0.2212
    166  N        -27.9730   36.1670   10.2520 N.3   135  PHE135     -0.1241
    167  CA       -28.2900   35.3830    9.0880 C.3   135  PHE135      0.1605
    168  C        -28.0510   33.9310    9.3880 C.2   135  PHE135      0.2264
    169  O        -27.0780   33.5860   10.0410 O.2   135  PHE135     -0.2867
    170  CB       -27.4440   35.8170    7.8980 C.3   135  PHE135      0.0534
    171  CG       -28.1150   35.5810    6.6020 C.ar  135  PHE135     -0.0203
    172  CD1      -28.8030   36.6230    5.9680 C.ar  135  PHE135     -0.0042
    173  CD2      -28.1160   34.3010    6.0250 C.ar  135  PHE135     -0.0042
    174  CE1      -29.4710   36.4100    4.7560 C.ar  135  PHE135     -0.0003
    175  CE2      -28.7960   34.0540    4.8160 C.ar  135  PHE135     -0.0003
    176  CZ       -29.4670   35.1130    4.1810 C.ar  135  PHE135     -0.0000
    177  N        -23.3200   37.2400   11.6070 N.3   144  ILE144     -0.1231
    178  CA       -23.7340   38.5460   12.0630 C.3   144  ILE144      0.1692
    179  C        -23.1610   39.5220   11.0680 C.2   144  ILE144      0.2593
    180  O        -22.0090   39.3840   10.6220 O.2   144  ILE144     -0.2718
    181  CB       -23.2310   38.8400   13.4910 C.3   144  ILE144      0.0266
    182  CG1      -23.9580   37.9390   14.4850 C.3   144  ILE144      0.0019
    183  CG2      -23.4250   40.3000   13.8510 C.3   144  ILE144      0.0020
    184  CD1      -23.2180   37.7300   15.8020 C.3   144  ILE144      0.0001
    185  N        -23.9960   40.4810   10.7100 N.am  145  GLY145     -0.1942
    186  CA       -23.6530   41.5240    9.8150 C.3   145  GLY145      0.2014
    187  C        -24.6680   42.6220    9.9060 C.2   145  GLY145      0.2639
    188  O        -25.3230   42.8100   10.9220 O.2   145  GLY145     -0.2714
    189  N        -24.7640   43.3900    8.8400 N.am  146  ASP146     -0.1957
    190  CA       -25.7320   44.4600    8.7770 C.3   146  ASP146      0.1840
    191  C        -26.3970   44.3110    7.4480 C.2   146  ASP146      0.2622
    192  O        -25.8000   44.5980    6.4080 O.2   146  ASP146     -0.2715
    193  CB       -25.0600   45.8140    8.8770 C.3   146  ASP146      0.1450
    194  CG       -26.0260   46.8920    9.2740 C.2   146  ASP146      0.3671
    195  OD1      -25.8220   47.4910   10.3560 O.co2 146  ASP146     -0.2456
    196  OD2      -27.0160   47.1200    8.5320 O.co2 146  ASP146     -0.2456
    197  N        -27.6240   43.8350    7.4870 N.am  147  PHE147     -0.1960
    198  CA       -28.2650   43.3460    6.2970 C.3   147  PHE147      0.1771
    199  C        -29.3340   44.3310    5.7790 C.2   147  PHE147      0.2620
    200  O        -30.1260   44.0060    4.8730 O.2   147  PHE147     -0.2715
    201  CB       -28.7970   41.9380    6.5600 C.3   147  PHE147      0.0574
    202  CG       -27.7100   40.9260    6.8750 C.ar  147  PHE147     -0.0200
    203  CD1      -27.4170   40.5820    8.1790 C.ar  147  PHE147     -0.0042
    204  CD2      -26.9770   40.3200    5.8600 C.ar  147  PHE147     -0.0042
    205  CE1      -26.4250   39.6520    8.4690 C.ar  147  PHE147     -0.0003
    206  CE2      -25.9760   39.3940    6.1490 C.ar  147  PHE147     -0.0003
    207  CZ       -25.7060   39.0640    7.4630 C.ar  147  PHE147     -0.0000
    208  N        -29.3100   45.5490    6.3450 N.am  148  GLY148     -0.1940
    209  CA       -30.1420   46.6670    5.8710 C.3   148  GLY148      0.2014
    210  C        -29.4320   47.9360    5.3510 C.2   148  GLY148      0.2638
    211  O        -28.1910   48.0790    5.4480 O.2   148  GLY148     -0.2714
    212  N        -30.2450   48.8650    4.8130 N.am  149  LEU149     -0.1977
    213  CA       -29.7750   50.0920    4.1110 C.3   149  LEU149      0.1596
    214  C        -30.5960   51.3330    4.4980 C.2   149  LEU149      0.2287
    215  O        -30.6460   51.7370    5.6670 O.2   149  LEU149     -0.2864
    216  CB       -29.8500   49.8860    2.5820 C.3   149  LEU149      0.0297
    217  CG       -29.3320   48.5300    2.0610 C.3   149  LEU149      0.0022
    218  CD1      -30.2320   47.9210    0.9530 C.3   149  LEU149      0.0001
    219  CD2      -27.8790   48.6460    1.6220 C.3   149  LEU149      0.0001
@<TRIPOS>BOND
     1    27    25    1
     2    26    25    1
     3    25    22    1
     4     1     2    1
     5     8     6    1
     6    12    11    2
     7    11    10    1
     8     6     5    1
     9     2     5    1
    10     2     3    1
    11    22    21    1
    12    22    23    1
    13    24    23    2
    14    21    18   am
    15    23    28   am
    16     9    10    1
    17     5     7    1
    18     3     4    2
    19    10    13    1
    20   121   119   ar
    21   121   120   ar
    22    18    17    1
    23    18    19    2
    24    30    31    2
    25    30    29    1
    26   119   117   ar
    27    16    17    1
    28   120   118   ar
    29    17    20    1
    30   117   116   ar
    31   117   115   ar
    32    28    29    1
    33   118   115   ar
    34   116   114   ar
    35   115   113   ar
    36   114   113   ar
    37   113   112    1
    38    29    32    1
    39   112   109    1
    40    84    85    1
    41    13    14    1
    42    13    15    1
    43    87    86    2
    44    86    85    1
    45    95    94    2
    46    85    88    1
    47    32    33    1
    48   109   108    1
    49   109   110    1
    50   108   101   am
    51    92    93    1
    52    33    34    1
    53    94    93    1
    54    94    99   am
    55   101   100    1
    56   101   102    2
    57   110   111    2
    58   110   122   am
    59    88    89    1
    60    88    90    1
    61   218   217    1
    62   100    99    1
    63   100   103    1
    64    93    96    1
    65   125   124    2
    66    89    91    1
    67   122   123    1
    68   219   217    1
    69   124   123    1
    70    34    35    1
    71    97    96    1
    72   217   216    1
    73   103   104    1
    74    96    98    1
    75   123   126    1
    76   128   129    1
    77    35    36    1
    78   216   213    1
    79   131   130    2
    80   129   130    1
    81   104   105    1
    82   126   127    1
    83   107   105   am
    84   213   214    1
    85   213   212    1
    86   176   174   ar
    87   176   175   ar
    88   105   106    2
    89   214   215    2
    90   174   172   ar
    91   212   210   am
    92   175   173   ar
    93   200   199    2
    94    44    43   ar
    95    82    81    1
    96   210   211    2
    97   210   209    1
    98    83    81    1
    99    59    58    1
   100   199   198    1
   101   199   208   am
   102    81    80    1
   103   204   206   ar
   104   204   202   ar
   105   209   208    1
   106    43    45   ar
   107    43    42    1
   108   172   171   ar
   109   173   171   ar
   110   206   207   ar
   111    41    42    1
   112    41    38    1
   113   198   201    1
   114   198   197    1
   115   192   191    2
   116    39    38    1
   117    39    40    2
   118   201   202    1
   119   171   170    1
   120   202   203   ar
   121    57    58    1
   122    57    54    1
   123    58    60    1
   124    38    37    1
   125    78    77    1
   126    78    79    2
   127    80    77    1
   128   191   197   am
   129   191   190    1
   130   207   205   ar
   131    77    76    1
   132   170   167    1
   133    55    54    1
   134    55    56    2
   135   203   205   ar
   136    54    53    1
   137   196   194   ar
   138   190   189    1
   139   190   193    1
   140   189   187   am
   141   193   194    1
   142    53    48   am
   143   167   168    1
   144   167   166    1
   145    76    70   am
   146    71    70    2
   147   194   195   ar
   148    64    63    2
   149   168   169    2
   150    46    47    1
   151   186   187    1
   152   186   185    1
   153    70    69    1
   154   187   188    2
   155    66    65    1
   156    48    47    1
   157    48    49    2
   158    63    62    1
   159   180   179    2
   160    47    50    1
   161   185   179   am
   162    61    62    1
   163   179   178    1
   164    50    52    1
   165    50    51    1
   166    65    62    1
   167    65    67    1
   168    69    68    1
   169    69    72    1
   170    74    72    1
   171   177   178    1
   172    72    73    1
   173   178   181    1
   174    73    75    1
   175   181   183    1
   176   181   182    1
   177   165   164   ar
   178   165   163   ar
   179   164   162   ar
   180   163   161   ar
   181   182   184    1
   182   147   145    1
   183   139   137    1
   184   162   161   ar
   185   159   158    2
   186   161   160    1
   187   146   144    1
   188   138   137    1
   189   145   144    1
   190   137   136    1
   191   158   157    1
   192   157   160    1
   193   157   156    1
   194   144   141    1
   195   151   150    2
   196   136   133    1
   197   156   150   am
   198   150   149    1
   199   141   142    1
   200   141   140    1
   201   133   132    1
   202   133   134    1
   203   142   148   am
   204   142   143    2
   205   148   149    1
   206   135   134    2
   207   149   152    1
   208   152   154    1
   209   152   153    1
   210   153   155    1
