@<TRIPOS>MOLECULE
tmp/5c9cA00.pdb
 219 210 0 0 0
SMALL
GASTEIGER

@<TRIPOS>ATOM
      1  N         -5.3320   16.7770   18.2030 N.3    15  ILE15      -0.1245
      2  CA        -5.9650   16.1400   17.0510 C.3    15  ILE15       0.1561
      3  C         -4.9460   15.3120   16.2730 C.2    15  ILE15       0.2260
      4  O         -5.2280   14.1790   15.8990 O.2    15  ILE15      -0.2867
      5  CB        -6.6360   17.1860   16.1310 C.3    15  ILE15       0.0252
      6  CG1       -7.9230   17.7390   16.7670 C.3    15  ILE15       0.0019
      7  CG2       -6.8830   16.6310   14.7330 C.3    15  ILE15       0.0019
      8  CD1       -8.8710   16.7240   17.3670 C.3    15  ILE15       0.0001
      9  N         -1.4380   19.6790   16.2340 N.3    23  VAL23      -0.1245
     10  CA        -2.6960   20.3740   16.0640 C.3    23  VAL23       0.1561
     11  C         -3.6840   20.0140   17.1760 C.2    23  VAL23       0.2260
     12  O         -3.8640   18.8320   17.5270 O.2    23  VAL23      -0.2867
     13  CB        -3.2730   20.1290   14.6590 C.3    23  VAL23       0.0252
     14  CG1       -4.6130   20.8330   14.4760 C.3    23  VAL23       0.0019
     15  CG2       -2.2750   20.6230   13.6210 C.3    23  VAL23       0.0019
     16  N         -9.1080   25.7170   15.4230 N.3    33  ALA33      -0.1231
     17  CA        -8.0420   24.7480   15.2770 C.3    33  ALA33       0.1694
     18  C         -6.7690   25.5130   15.6110 C.2    33  ALA33       0.2592
     19  O         -6.6340   26.6750   15.2120 O.2    33  ALA33      -0.2718
     20  CB        -8.0030   24.2160   13.8830 C.3    33  ALA33       0.0304
     21  N         -5.8750   24.8830   16.3800 N.am   34  VAL34      -0.1966
     22  CA        -4.5530   25.4640   16.6940 C.3    34  VAL34       0.1727
     23  C         -3.3980   24.5410   16.2870 C.2    34  VAL34       0.2616
     24  O         -3.3730   23.3660   16.6050 O.2    34  VAL34      -0.2715
     25  CB        -4.4110   25.8490   18.1970 C.3    34  VAL34       0.0290
     26  CG1       -3.1300   26.6570   18.4280 C.3    34  VAL34       0.0023
     27  CG2       -5.6230   26.6130   18.6750 C.3    34  VAL34       0.0023
     28  N         -2.4650   25.0940   15.5440 N.am   35  LYS35      -0.1977
     29  CA        -1.3110   24.3590   15.0950 C.3    35  LYS35       0.1596
     30  C         -0.1320   25.0380   15.7400 C.2    35  LYS35       0.2287
     31  O          0.0800   26.2550   15.5950 O.2    35  LYS35      -0.2864
     32  CB        -1.2110   24.3690   13.5750 C.3    35  LYS35       0.0298
     33  CG        -0.0180   23.6410   12.9890 C.3    35  LYS35       0.0038
     34  CD         0.4490   24.4020   11.7700 C.3    35  LYS35       0.0206
     35  CE         1.0960   23.5410   10.7270 C.3    35  LYS35       0.1093
     36  NZ         1.0160   24.2810    9.4220 N.3    35  LYS35      -0.1314
     37  N          3.8660   30.9320    6.4570 N.3    51  GLU51      -0.1245
     38  CA         2.5160   30.4160    6.4930 C.3    51  GLU51       0.1567
     39  C          1.5380   31.5150    6.9480 C.2    51  GLU51       0.2260
     40  O          0.4610   31.6970    6.3510 O.2    51  GLU51      -0.2867
     41  CB         2.4180   29.1450    7.3340 C.3    51  GLU51       0.0388
     42  CG         1.1260   28.3790    7.1060 C.3    51  GLU51       0.1160
     43  CD         1.1510   26.9500    7.6410 C.2    51  GLU51       0.3649
     44  OE1        2.0340   26.5970    8.4600 O.co2  51  GLU51      -0.2457
     45  OE2        0.2700   26.1620    7.2360 O.co2  51  GLU51      -0.2457
     46  N          1.0380   33.9310    4.1340 N.3    54  VAL54      -0.1231
     47  CA         0.1870   33.4550    3.0540 C.3    54  VAL54       0.1692
     48  C         -1.2730   33.3980    3.4940 C.2    54  VAL54       0.2591
     49  O         -2.1460   33.8610    2.7720 O.2    54  VAL54      -0.2718
     50  CB         0.6830   32.1200    2.4640 C.3    54  VAL54       0.0266
     51  CG1       -0.3610   31.5050    1.5780 C.3    54  VAL54       0.0020
     52  CG2        1.9570   32.3530    1.6540 C.3    54  VAL54       0.0020
     53  N         -1.5320   32.8640    4.6850 N.am   55  LEU55      -0.1980
     54  CA        -2.9050   32.7570    5.1930 C.3    55  LEU55       0.1596
     55  C         -3.6410   34.1120    5.2640 C.2    55  LEU55       0.2287
     56  O         -4.8260   34.2380    4.8580 O.2    55  LEU55      -0.2864
     57  CB        -2.9300   32.0150    6.5290 C.3    55  LEU55       0.0297
     58  CG        -2.9380   30.4880    6.3600 C.3    55  LEU55       0.0022
     59  CD1       -2.7960   29.7260    7.6420 C.3    55  LEU55       0.0001
     60  CD2       -4.2140   30.0770    5.6990 C.3    55  LEU55       0.0001
     61  N         -5.6490   35.6850    2.4800 N.3    58  THR58      -0.1218
     62  CA        -6.8460   34.9860    1.9890 C.3    58  THR58       0.1862
     63  C         -8.1370   35.2790    2.7770 C.2    58  THR58       0.2287
     64  O         -8.1700   35.2110    4.0130 O.2    58  THR58      -0.2866
     65  CB        -6.6380   33.4720    1.9700 C.3    58  THR58       0.1770
     66  OG1       -6.3440   33.0310    3.2950 O.3    58  THR58      -0.2211
     67  CG2       -5.5050   33.0980    1.0710 C.3    58  THR58       0.0375
     68  N        -11.5620   28.6820    1.1210 N.3    63  ILE63      -0.1231
     69  CA       -10.2510   28.5990    1.6870 C.3    63  ILE63       0.1692
     70  C        -10.4010   28.6510    3.1580 C.2    63  ILE63       0.2591
     71  O        -11.1660   29.4090    3.6430 O.2    63  ILE63      -0.2718
     72  CB        -9.3090   29.7120    1.2120 C.3    63  ILE63       0.0266
     73  CG1       -9.0900   29.6330   -0.2920 C.3    63  ILE63       0.0019
     74  CG2       -7.9880   29.5940    1.8640 C.3    63  ILE63       0.0020
     75  CD1       -8.7040   28.3110   -0.8060 C.3    63  ILE63       0.0001
     76  N         -9.6450   27.8360    3.8580 N.am   64  LEU64      -0.1980
     77  CA        -9.7010   27.7180    5.2850 C.3    64  LEU64       0.1596
     78  C         -9.4460   29.0310    6.0030 C.2    64  LEU64       0.2287
     79  O         -8.5420   29.6880    5.6900 O.2    64  LEU64      -0.2864
     80  CB        -8.6650   26.6960    5.6810 C.3    64  LEU64       0.0297
     81  CG        -8.3400   26.4580    7.1150 C.3    64  LEU64       0.0022
     82  CD1       -9.2540   25.5700    7.7180 C.3    64  LEU64       0.0001
     83  CD2       -7.0420   25.9630    7.2140 C.3    64  LEU64       0.0001
     84  N         -0.5270   28.7960   14.8690 N.3    77  ILE77      -0.1245
     85  CA        -1.4300   29.3490   13.9180 C.3    77  ILE77       0.1561
     86  C         -2.7800   28.8270   14.2690 C.2    77  ILE77       0.2260
     87  O         -2.9210   27.7100   14.5670 O.2    77  ILE77      -0.2867
     88  CB        -1.0400   29.0030   12.5400 C.3    77  ILE77       0.0252
     89  CG1        0.4140   29.2360   12.4030 C.3    77  ILE77       0.0019
     90  CG2       -1.6530   29.9050   11.6040 C.3    77  ILE77       0.0019
     91  CD1        0.8080   29.4890   11.0960 C.3    77  ILE77       0.0001
     92  N         -6.8970   28.8570   13.1690 N.3    79  THR79      -0.1203
     93  CA        -7.7960   28.9760   12.0440 C.3    79  THR79       0.1994
     94  C         -9.1250   28.5570   12.5900 C.2    79  THR79       0.2618
     95  O         -9.2030   28.1870   13.7550 O.2    79  THR79      -0.2717
     96  CB        -7.4250   28.0000   10.8960 C.3    79  THR79       0.1784
     97  OG1       -7.5530   26.6570   11.3680 O.3    79  THR79      -0.2211
     98  CG2       -6.0180   28.2050   10.4340 C.3    79  THR79       0.0376
     99  N        -10.1560   28.5960   11.7440 N.am   80  GLN80      -0.1965
    100  CA       -11.4650   28.0440   12.0850 C.3    80  GLN80       0.1733
    101  C        -11.3360   26.5490   12.3920 C.2    80  GLN80       0.2616
    102  O        -10.3810   25.8920   11.9630 O.2    80  GLN80      -0.2715
    103  CB       -12.4650   28.2510   10.9490 C.3    80  GLN80       0.0408
    104  CG       -12.1890   27.3720    9.7110 C.3    80  GLN80       0.0908
    105  CD       -13.1520   27.6510    8.5730 C.2    80  GLN80       0.2608
    106  OE1      -12.7260   27.9850    7.4580 O.2    80  GLN80      -0.2717
    107  NE2      -14.4770   27.5450    8.8540 N.am   80  GLN80      -0.0878
    108  N        -12.2930   26.0200   13.1470 N.am   81  TRP81      -0.1960
    109  CA       -12.3770   24.6020   13.3380 C.3    81  TRP81       0.1771
    110  C        -13.2420   24.0060   12.2430 C.2    81  TRP81       0.2619
    111  O        -14.3100   24.5380   11.9200 O.2    81  TRP81      -0.2715
    112  CB       -12.9790   24.2840   14.6780 C.3    81  TRP81       0.0590
    113  CG       -13.2100   22.8240   14.7940 C.ar   81  TRP81       0.0006
    114  CD1      -14.4010   22.1730   14.6830 C.ar   81  TRP81       0.0946
    115  CD2      -12.2190   21.8140   14.9820 C.ar   81  TRP81       0.0152
    116  NE1      -14.2230   20.8350   14.8170 N.ar   81  TRP81      -0.2442
    117  CE2      -12.8890   20.5800   15.0050 C.ar   81  TRP81       0.0810
    118  CE3      -10.8270   21.8360   15.1560 C.ar   81  TRP81       0.0012
    119  CZ2      -12.2200   19.3660   15.2030 C.ar   81  TRP81       0.0191
    120  CZ3      -10.1590   20.6310   15.3530 C.ar   81  TRP81       0.0001
    121  CH2      -10.8600   19.4130   15.3690 C.ar   81  TRP81       0.0015
    122  N        -12.8020   22.8970   11.6690 N.am   82  CYS82      -0.1968
    123  CA       -13.6090   22.2590   10.6450 C.3    82  CYS82       0.1712
    124  C        -14.2990   21.0400   11.2070 C.2    82  CYS82       0.2296
    125  O        -13.6930   20.2800   11.9600 O.2    82  CYS82      -0.2864
    126  CB       -12.7460   21.8550    9.4500 C.3    82  CYS82       0.0983
    127  SG       -12.1850   23.2170    8.4480 S.3    82  CYS82      -0.0798
    128  N        -16.2590   17.5100   10.3470 N.3    84  GLY84      -0.1225
    129  CA       -16.5180   16.4690    9.3580 C.3    84  GLY84       0.1811
    130  C        -15.2260   15.8180    8.9350 C.2    84  GLY84       0.2280
    131  O        -14.3680   15.5530    9.7790 O.2    84  GLY84      -0.2866
    132  N         -6.8140   31.4040   -4.8940 N.3   117  LEU117     -0.1245
    133  CA        -5.4170   31.3880   -4.4850 C.3   117  LEU117      0.1561
    134  C         -4.5450   31.8920   -5.6200 C.2   117  LEU117      0.2260
    135  O         -3.5980   32.6560   -5.4070 O.2   117  LEU117     -0.2867
    136  CB        -4.9610   29.9980   -4.0370 C.3   117  LEU117      0.0270
    137  CG        -5.6790   29.3240   -2.8660 C.3   117  LEU117      0.0019
    138  CD1       -5.1820   27.8770   -2.6450 C.3   117  LEU117      0.0001
    139  CD2       -5.5560   30.1160   -1.6100 C.3   117  LEU117      0.0001
    140  N         -0.7670   32.6640   -5.2280 N.3   122  ILE122     -0.1231
    141  CA        -0.4990   31.6200   -4.2440 C.3   122  ILE122      0.1692
    142  C         -0.5590   30.2930   -4.9760 C.2   122  ILE122      0.2592
    143  O         -1.5890   29.9520   -5.5750 O.2   122  ILE122     -0.2718
    144  CB        -1.5300   31.6100   -3.1090 C.3   122  ILE122      0.0266
    145  CG1       -1.4620   32.9200   -2.3300 C.3   122  ILE122      0.0019
    146  CG2       -1.2970   30.3850   -2.2150 C.3   122  ILE122      0.0020
    147  CD1       -2.6990   33.2350   -1.4990 C.3   122  ILE122      0.0001
    148  N          0.5300   29.5490   -4.9390 N.am  123  ILE123     -0.1966
    149  CA         0.5970   28.2170   -5.4560 C.3   123  ILE123      0.1727
    150  C          0.4280   27.3520   -4.2510 C.2   123  ILE123      0.2616
    151  O          1.0720   27.5510   -3.3070 O.2   123  ILE123     -0.2715
    152  CB         1.9330   27.9840   -6.1550 C.3   123  ILE123      0.0290
    153  CG1        2.0200   28.8210   -7.4060 C.3   123  ILE123      0.0022
    154  CG2        2.1360   26.5930   -6.5740 C.3   123  ILE123      0.0023
    155  CD1        3.3120   28.8460   -7.9530 C.3   123  ILE123      0.0001
    156  N         -0.5240   26.4500   -4.2580 N.am  124  HIS124     -0.1973
    157  CA        -0.7070   25.5630   -3.1340 C.3   124  HIS124      0.1656
    158  C          0.4180   24.5590   -2.8360 C.2   124  HIS124      0.2291
    159  O          0.8640   24.4220   -1.7320 O.2   124  HIS124     -0.2864
    160  CB        -2.0000   24.8130   -3.3440 C.3   124  HIS124      0.0771
    161  CG        -2.4710   24.0770   -2.1460 C.ar  124  HIS124      0.0820
    162  ND1       -1.7030   23.1520   -1.5060 N.ar  124  HIS124     -0.2267
    163  CD2       -3.6200   24.1450   -1.4570 C.ar  124  HIS124      0.1154
    164  CE1       -2.3610   22.6670   -0.4840 C.ar  124  HIS124      0.1986
    165  NE2       -3.5220   23.2640   -0.4240 N.ar  124  HIS124     -0.2212
    166  N        -11.3180   19.8340    2.6650 N.3   133  PHE133     -0.1241
    167  CA       -12.2390   19.4980    3.7120 C.3   133  PHE133      0.1605
    168  C        -13.6520   19.7360    3.3230 C.2   133  PHE133      0.2264
    169  O        -13.9710   20.6860    2.6870 O.2   133  PHE133     -0.2867
    170  CB       -11.9380   20.3010    4.9640 C.3   133  PHE133      0.0534
    171  CG       -12.2230   19.5980    6.2090 C.ar  133  PHE133     -0.0203
    172  CD1      -11.2520   18.9270    6.8620 C.ar  133  PHE133     -0.0042
    173  CD2      -13.4690   19.6240    6.7550 C.ar  133  PHE133     -0.0042
    174  CE1      -11.5330   18.2820    8.0030 C.ar  133  PHE133     -0.0003
    175  CE2      -13.7300   18.9920    7.8680 C.ar  133  PHE133     -0.0003
    176  CZ       -12.7620   18.3130    8.5020 C.ar  133  PHE133     -0.0000
    177  N        -10.2100   24.3890    1.3640 N.3   142  ILE142     -0.1231
    178  CA        -8.8800   24.0190    0.9920 C.3   142  ILE142      0.1692
    179  C         -7.9420   24.5160    2.0710 C.2   142  ILE142      0.2593
    180  O         -8.0320   25.6550    2.4830 O.2   142  ILE142     -0.2718
    181  CB        -8.5120   24.6340   -0.3620 C.3   142  ILE142      0.0266
    182  CG1       -9.2770   23.9400   -1.4730 C.3   142  ILE142      0.0019
    183  CG2       -7.0090   24.5030   -0.6500 C.3   142  ILE142      0.0020
    184  CD1       -9.3640   24.7920   -2.6690 C.3   142  ILE142      0.0001
    185  N         -7.0420   23.6650    2.5330 N.am  143  GLY143     -0.1942
    186  CA        -5.9730   24.1100    3.4080 C.3   143  GLY143      0.2014
    187  C         -4.8160   23.1920    3.2290 C.2   143  GLY143      0.2639
    188  O         -4.6310   22.6330    2.1630 O.2   143  GLY143     -0.2714
    189  N         -4.0170   23.0570    4.2680 N.am  144  ASP144     -0.1957
    190  CA        -3.0150   22.0200    4.3360 C.3   144  ASP144      0.1840
    191  C         -3.2380   21.3970    5.6710 C.2   144  ASP144      0.2622
    192  O         -2.7690   21.9180    6.6760 O.2   144  ASP144     -0.2715
    193  CB        -1.5830   22.5750    4.2820 C.3   144  ASP144      0.1450
    194  CG        -0.4870   21.4490    4.4290 C.2   144  ASP144      0.3671
    195  OD1        0.5980   21.5800    3.7970 O.co2 144  ASP144     -0.2456
    196  OD2       -0.6840   20.4200    5.1490 O.co2 144  ASP144     -0.2456
    197  N         -3.9300   20.2740    5.6950 N.am  145  PHE145     -0.1960
    198  CA        -4.2140   19.6300    6.9550 C.3   145  PHE145      0.1771
    199  C         -3.1790   18.6090    7.3740 C.2   145  PHE145      0.2620
    200  O         -3.4190   17.8480    8.3080 O.2   145  PHE145     -0.2715
    201  CB        -5.6120   19.0400    6.9180 C.3   145  PHE145      0.0574
    202  CG        -6.6390   20.0380    6.5360 C.ar  145  PHE145     -0.0200
    203  CD1       -7.0730   20.1340    5.2340 C.ar  145  PHE145     -0.0042
    204  CD2       -7.1240   20.9390    7.4670 C.ar  145  PHE145     -0.0042
    205  CE1       -8.0200   21.0940    4.8700 C.ar  145  PHE145     -0.0003
    206  CE2       -8.0670   21.8880    7.1070 C.ar  145  PHE145     -0.0003
    207  CZ        -8.5100   21.9660    5.8100 C.ar  145  PHE145     -0.0000
    208  N         -2.0250   18.5990    6.7100 N.am  146  GLY146     -0.1940
    209  CA        -0.9750   17.6300    7.0080 C.3   146  GLY146      0.2014
    210  C          0.1310   18.1910    7.8670 C.2   146  GLY146      0.2638
    211  O          0.2810   19.4130    7.9960 O.2   146  GLY146     -0.2714
    212  N          0.9190   17.3060    8.4660 N.am  147  LEU147     -0.1977
    213  CA         1.9350   17.7530    9.4140 C.3   147  LEU147      0.1596
    214  C          3.3590   17.3470    9.0740 C.2   147  LEU147      0.2287
    215  O          4.2610   17.5090    9.8910 O.2   147  LEU147     -0.2864
    216  CB         1.5620   17.2780   10.8150 C.3   147  LEU147      0.0297
    217  CG         0.3940   18.0740   11.3840 C.3   147  LEU147      0.0022
    218  CD1       -0.4470   17.2490   12.3620 C.3   147  LEU147      0.0001
    219  CD2        0.9060   19.4060   11.9710 C.3   147  LEU147      0.0001
@<TRIPOS>BOND
     1   155   153    1
     2   153   152    1
     3   154   152    1
     4   152   149    1
     5   134   135    2
     6   134   133    1
     7   143   142    2
     8   149   148    1
     9   149   150    1
    10   140   141    1
    11   142   148   am
    12   142   141    1
    13   132   133    1
    14   133   136    1
    15   156   150   am
    16   156   157    1
    17   150   151    2
    18   141   144    1
    19   136   137    1
    20   160   157    1
    21   160   161    1
    22   157   158    1
    23   144   145    1
    24   144   146    1
    25   137   138    1
    26   137   139    1
    27   158   159    2
    28   184   182    1
    29   145   147    1
    30   161   162   ar
    31   161   163   ar
    32   162   164   ar
    33   182   181    1
    34   163   165   ar
    35    75    73    1
    36   183   181    1
    37   164   165   ar
    38   181   178    1
    39    73    72    1
    40   178   177    1
    41   178   179    1
    42    67    65    1
    43    68    69    1
    44    72    69    1
    45    72    74    1
    46    51    50    1
    47    52    50    1
    48    69    70    1
    49    65    62    1
    50    65    66    1
    51    62    61    1
    52    62    63    1
    53   179   180    2
    54   179   185   am
    55   188   187    2
    56    50    47    1
    57   185   186    1
    58   166   167    1
    59   169   168    2
    60    49    48    2
    61    63    64    2
    62    47    48    1
    63    47    46    1
    64    70    71    2
    65    70    76   am
    66   187   186    1
    67   187   189   am
    68   168   167    1
    69    48    53   am
    70   167   170    1
    71   195   194   ar
    72    76    77    1
    73   189   190    1
    74   193   190    1
    75   193   194    1
    76   190   191    1
    77   194   196   ar
    78    53    54    1
    79    56    55    2
    80   205   203   ar
    81   205   207   ar
    82   170   171    1
    83    54    55    1
    84    54    57    1
    85   203   202   ar
    86    77    80    1
    87    77    78    1
    88   191   197   am
    89   191   192    2
    90    80    81    1
    91    79    78    2
    92   197   198    1
    93    60    58    1
    94   207   206   ar
    95   171   173   ar
    96   171   172   ar
    97    40    39    2
    98    58    57    1
    99    58    59    1
   100    37    38    1
   101    38    39    1
   102    38    41    1
   103   202   201    1
   104   202   204   ar
   105   208   209    1
   106   208   199   am
   107   173   175   ar
   108   172   174   ar
   109   201   198    1
   110   198   199    1
   111   209   210    1
   112    42    41    1
   113    42    43    1
   114   206   204   ar
   115    81    83    1
   116    81    82    1
   117    45    43   ar
   118   199   200    2
   119   106   105    2
   120    43    44   ar
   121   210   211    2
   122   210   212   am
   123   175   176   ar
   124   174   176   ar
   125   127   126    1
   126   212   213    1
   127   105   107   am
   128   105   104    1
   129   130   129    1
   130   130   131    2
   131   214   213    1
   132   214   215    2
   133   129   128    1
   134   213   216    1
   135    36    35    1
   136   126   123    1
   137   104   103    1
   138    98    96    1
   139   123   124    1
   140   123   122    1
   141    35    34    1
   142   216   217    1
   143    96    97    1
   144    96    93    1
   145   103   100    1
   146    91    89    1
   147   124   125    2
   148   217   219    1
   149   217   218    1
   150    90    88    1
   151   122   110   am
   152    99   100    1
   153    99    94   am
   154    34    33    1
   155   111   110    2
   156   102   101    2
   157    93    94    1
   158    93    92    1
   159   100   101    1
   160   110   109    1
   161   101   108   am
   162    89    88    1
   163    88    85    1
   164    94    95    2
   165    33    32    1
   166   108   109    1
   167   109   112    1
   168    32    29    1
   169    15    13    1
   170    20    17    1
   171    85    86    1
   172    85    84    1
   173    86    87    2
   174    14    13    1
   175    13    10    1
   176   112   113    1
   177   114   113   ar
   178   114   116   ar
   179     7     5    1
   180   113   115   ar
   181   116   117   ar
   182   115   117   ar
   183   115   118   ar
   184   117   119   ar
   185    29    28    1
   186    29    30    1
   187   118   120   ar
   188   119   121   ar
   189    19    18    2
   190    17    16    1
   191    17    18    1
   192   120   121   ar
   193    28    23   am
   194    31    30    2
   195    18    21   am
   196     4     3    2
   197    10     9    1
   198    10    11    1
   199     5     6    1
   200     5     2    1
   201     3     2    1
   202    23    24    2
   203    23    22    1
   204    21    22    1
   205    22    25    1
   206     6     8    1
   207     2     1    1
   208    11    12    2
   209    25    26    1
   210    25    27    1
