@<TRIPOS>MOLECULE
tmp/5c9jA01.pdb
 173 162 0 0 0
SMALL
GASTEIGER

@<TRIPOS>ATOM
      1  N          3.3790   29.6150   -4.5650 N.3    68  TYR68      -0.1241
      2  CA         3.0220   29.6660   -3.1720 C.3    68  TYR68       0.1605
      3  C          3.1110   28.3010   -2.5530 C.2    68  TYR68       0.2264
      4  O          3.6480   28.1810   -1.4870 O.2    68  TYR68      -0.2867
      5  CB         1.5570   30.2620   -3.0710 C.3    68  TYR68       0.0534
      6  CG         0.8000   29.9730   -1.8110 C.ar   68  TYR68      -0.0201
      7  CD1        1.0690   30.6720   -0.6100 C.ar   68  TYR68      -0.0009
      8  CD2       -0.2030   29.0390   -1.7980 C.ar   68  TYR68      -0.0009
      9  CE1        0.3510   30.3930    0.5640 C.ar   68  TYR68       0.0417
     10  CE2       -0.9320   28.7780   -0.6590 C.ar   68  TYR68       0.0417
     11  CZ        -0.6480   29.4380    0.5070 C.ar   68  TYR68       0.1957
     12  OH        -1.3650   29.0810    1.6420 O.3    68  TYR68      -0.2866
     13  N          5.6540   27.7420    0.3190 N.3    72  LEU72      -0.1245
     14  CA         5.2200   27.5590    1.6850 C.3    72  LEU72       0.1561
     15  C          5.7110   26.2270    2.2800 C.2    72  LEU72       0.2260
     16  O          6.1960   26.0950    3.3890 O.2    72  LEU72      -0.2867
     17  CB         3.6590   27.5680    1.6900 C.3    72  LEU72       0.0270
     18  CG         2.9490   27.2990    3.0070 C.3    72  LEU72       0.0019
     19  CD1        3.5490   28.2800    4.0060 C.3    72  LEU72       0.0001
     20  CD2        1.4970   27.5890    2.9450 C.3    72  LEU72       0.0001
     21  N          8.2640   25.7710    5.4270 N.3    76  ILE76      -0.1245
     22  CA         7.9180   24.8750    6.5290 C.3    76  ILE76       0.1561
     23  C          8.9460   23.7990    6.7070 C.2    76  ILE76       0.2260
     24  O          9.5210   23.6040    7.8000 O.2    76  ILE76      -0.2867
     25  CB         6.5190   24.3250    6.2900 C.3    76  ILE76       0.0252
     26  CG1        5.5470   25.3840    6.7070 C.3    76  ILE76       0.0019
     27  CG2        6.2580   23.1190    7.1340 C.3    76  ILE76       0.0019
     28  CD1        4.1390   25.2020    6.2390 C.3    76  ILE76       0.0001
     29  N         12.1410   25.0510    8.5620 N.3    79  HIS79      -0.1226
     30  CA        11.9900   25.1860   10.0370 C.3    79  HIS79       0.1752
     31  C         11.9410   23.8360   10.6550 C.2    79  HIS79       0.2595
     32  O         12.7300   23.5150   11.4930 O.2    79  HIS79      -0.2718
     33  CB        10.7010   25.9080   10.5280 C.3    79  HIS79       0.0759
     34  CG        10.6320   26.0520   12.0360 C.ar   79  HIS79       0.0818
     35  ND1        9.7400   25.3520   12.8190 N.ar   79  HIS79      -0.2268
     36  CD2       11.4060   26.7650   12.9050 C.ar   79  HIS79       0.1154
     37  CE1        9.9250   25.6550   14.0920 C.ar   79  HIS79       0.1986
     38  NE2       10.9390   26.5020   14.1740 N.ar   79  HIS79      -0.2212
     39  N         11.0150   22.9970   10.1910 N.am   80  ALA80      -0.1980
     40  CA        10.7260   21.7440   10.8480 C.3    80  ALA80       0.1597
     41  C         11.7830   20.7480   10.6630 C.2    80  ALA80       0.2287
     42  O         11.9100   19.8270   11.5170 O.2    80  ALA80      -0.2864
     43  CB         9.4660   21.1690   10.2970 C.3    80  ALA80       0.0319
     44  N          9.1600   16.2490   15.4080 N.3    86  LYS86      -0.1245
     45  CA         7.9160   16.9530   15.1950 C.3    86  LYS86       0.1561
     46  C          6.9970   16.2100   14.1650 C.2    86  LYS86       0.2260
     47  O          5.8020   16.4470   14.1900 O.2    86  LYS86      -0.2867
     48  CB         8.1430   18.4230   14.8190 C.3    86  LYS86       0.0271
     49  CG         8.9710   19.2310   15.8320 C.3    86  LYS86       0.0035
     50  CD         8.1590   19.9770   16.9260 C.3    86  LYS86       0.0206
     51  CE         7.6210   19.1000   18.0890 C.3    86  LYS86       0.1093
     52  NZ         8.4880   19.1680   19.3060 N.3    86  LYS86      -0.1314
     53  N          2.8370   15.9270   10.8320 N.3    89  PHE89      -0.1241
     54  CA         2.0180   17.1110   11.2370 C.3    89  PHE89       0.1605
     55  C          1.2320   17.6200   10.0410 C.2    89  PHE89       0.2264
     56  O          1.5440   17.2570    8.9090 O.2    89  PHE89      -0.2867
     57  CB         2.8090   18.2310   11.9830 C.3    89  PHE89       0.0534
     58  CG         3.9190   18.8650   11.2080 C.ar   89  PHE89      -0.0203
     59  CD1        5.2750   18.4730   11.3630 C.ar   89  PHE89      -0.0042
     60  CD2        3.6790   19.9510   10.4210 C.ar   89  PHE89      -0.0042
     61  CE1        6.3110   19.1370   10.6730 C.ar   89  PHE89      -0.0003
     62  CE2        4.6600   20.5880    9.7220 C.ar   89  PHE89      -0.0003
     63  CZ         5.9870   20.1420    9.7770 C.ar   89  PHE89      -0.0000
     64  N         -1.0760   21.0210    8.2560 N.3    91  VAL91      -0.1301
     65  CA        -1.4540   22.4100    8.2660 C.3    91  VAL91       0.1246
     66  C         -2.6150   22.5430    7.3040 C.3    91  VAL91       0.2009
     67  O         -2.5610   21.9670    6.1490 O.3    91  VAL91      -0.2188
     68  CB        -0.3090   23.2640    7.7480 C.3    91  VAL91       0.0202
     69  CG1       -0.6520   24.7640    7.7510 C.3    91  VAL91       0.0016
     70  CG2        0.9230   23.0540    8.5160 C.3    91  VAL91       0.0016
     71  N         -5.3700   25.4630    5.5360 N.3    93  VAL93      -0.1245
     72  CA        -5.6610   26.8370    5.2850 C.3    93  VAL93       0.1561
     73  C         -7.0320   26.9840    4.5830 C.2    93  VAL93       0.2260
     74  O         -7.4050   26.1910    3.7470 O.2    93  VAL93      -0.2867
     75  CB        -4.6550   27.3530    4.3200 C.3    93  VAL93       0.0252
     76  CG1       -5.0570   28.7600    3.8860 C.3    93  VAL93       0.0019
     77  CG2       -3.1820   27.2950    4.8340 C.3    93  VAL93       0.0019
     78  N         -8.3010   34.5660    6.0480 N.3   109  PHE109     -0.1241
     79  CA        -7.2010   33.6770    5.7870 C.3   109  PHE109      0.1605
     80  C         -6.8000   33.0370    7.1440 C.2   109  PHE109      0.2264
     81  O         -6.3050   33.6870    8.0570 O.2   109  PHE109     -0.2867
     82  CB        -6.0760   34.4050    5.1350 C.3   109  PHE109      0.0534
     83  CG        -5.0400   33.5040    4.5110 C.ar  109  PHE109     -0.0203
     84  CD1       -4.2600   32.7460    5.2530 C.ar  109  PHE109     -0.0042
     85  CD2       -4.8690   33.4780    3.1770 C.ar  109  PHE109     -0.0042
     86  CE1       -3.2840   31.9490    4.7030 C.ar  109  PHE109     -0.0003
     87  CE2       -3.9040   32.6850    2.6170 C.ar  109  PHE109     -0.0003
     88  CZ        -3.1020   31.9510    3.3710 C.ar  109  PHE109     -0.0000
     89  N         -5.6810   29.5770    9.4750 N.3   111  VAL111     -0.1245
     90  CA        -4.6940   28.5400    9.4650 C.3   111  VAL111      0.1561
     91  C         -4.8880   27.6870   10.6460 C.2   111  VAL111      0.2260
     92  O         -5.1190   28.1960   11.7180 O.2   111  VAL111     -0.2867
     93  CB        -3.2630   29.1380    9.4610 C.3   111  VAL111      0.0252
     94  CG1       -2.1860   28.0270    9.3300 C.3   111  VAL111      0.0019
     95  CG2       -3.0670   29.9840    8.2170 C.3   111  VAL111      0.0019
     96  N         -3.1030   24.1110   12.6550 N.3   113  PHE113     -0.1241
     97  CA        -2.0360   23.2510   12.8050 C.3   113  PHE113      0.1605
     98  C         -2.4500   22.0170   13.6400 C.2   113  PHE113      0.2264
     99  O         -2.8870   22.1800   14.7450 O.2   113  PHE113     -0.2867
    100  CB        -0.9580   24.0040   13.5620 C.3   113  PHE113      0.0534
    101  CG         0.2810   23.1590   13.8610 C.ar  113  PHE113     -0.0203
    102  CD1        1.1350   22.8130   12.8390 C.ar  113  PHE113     -0.0042
    103  CD2        0.6220   22.8290   15.1770 C.ar  113  PHE113     -0.0042
    104  CE1        2.3130   22.0880   13.0920 C.ar  113  PHE113     -0.0003
    105  CE2        1.7720   22.0530   15.4720 C.ar  113  PHE113     -0.0003
    106  CZ         2.6450   21.6610   14.4060 C.ar  113  PHE113     -0.0000
    107  N         -4.4240   27.9810   14.5660 N.3   118  LEU118     -0.1231
    108  CA        -3.0980   28.4150   14.8680 C.3   118  LEU118      0.1693
    109  C         -3.0870   29.9500   14.7090 C.2   118  LEU118      0.2591
    110  O         -2.5960   30.6460   15.6010 O.2   118  LEU118     -0.2718
    111  CB        -2.1280   27.7900   13.8650 C.3   118  LEU118      0.0284
    112  CG        -0.7120   28.3360   14.1080 C.3   118  LEU118      0.0019
    113  CD1       -0.1050   27.6680   15.3610 C.3   118  LEU118      0.0001
    114  CD2        0.1480   28.0980   12.8670 C.3   118  LEU118      0.0001
    115  N         -3.5080   30.4730   13.5450 N.am  119  LEU119     -0.1980
    116  CA        -3.3860   31.9530   13.3310 C.3   119  LEU119      0.1596
    117  C         -4.2330   32.4520   12.2980 C.2   119  LEU119      0.2287
    118  O         -4.7900   31.6750   11.5880 O.2   119  LEU119     -0.2864
    119  CB        -1.9480   32.3810   13.0450 C.3   119  LEU119      0.0297
    120  CG        -1.3560   31.7330   11.8050 C.3   119  LEU119      0.0022
    121  CD1       -1.4790   32.6250   10.6350 C.3   119  LEU119      0.0001
    122  CD2        0.1230   31.4790   12.0740 C.3   119  LEU119      0.0001
    123  N         -1.3720   39.6410   10.8640 N.3   126  TRP126     -0.1241
    124  CA        -1.4350   38.2640   11.2070 C.3   126  TRP126      0.1605
    125  C         -1.4860   38.1590   12.7010 C.2   126  TRP126      0.2264
    126  O         -0.6750   38.7660   13.3390 O.2   126  TRP126     -0.2867
    127  CB        -0.1550   37.6570   10.6730 C.3   126  TRP126      0.0550
    128  CG        -0.0380   37.6750    9.1990 C.ar  126  TRP126      0.0003
    129  CD1        0.6650   38.5700    8.4200 C.ar  126  TRP126      0.0946
    130  CD2       -0.6780   36.7840    8.3090 C.ar  126  TRP126      0.0152
    131  NE1        0.5630   38.2060    7.1050 N.ar  126  TRP126     -0.2442
    132  CE2       -0.2540   37.1070    7.0220 C.ar  126  TRP126      0.0810
    133  CE3       -1.5370   35.6790    8.4930 C.ar  126  TRP126      0.0012
    134  CZ2       -0.7050   36.4150    5.9170 C.ar  126  TRP126      0.0191
    135  CZ3       -1.9090   34.9420    7.4340 C.ar  126  TRP126      0.0001
    136  CH2       -1.5220   35.3070    6.1440 C.ar  126  TRP126      0.0015
    137  N          4.6680   28.8060   18.9990 N.3   135  LEU135     -0.1245
    138  CA         4.6850   28.6050   17.5140 C.3   135  LEU135      0.1561
    139  C          3.9380   29.7320   16.7910 C.2   135  LEU135      0.2260
    140  O          4.3770   30.3150   15.7410 O.2   135  LEU135     -0.2867
    141  CB         3.9920   27.3120   17.1340 C.3   135  LEU135      0.0270
    142  CG         4.0830   27.0630   15.6070 C.3   135  LEU135      0.0019
    143  CD1        5.5240   27.1900   15.0520 C.3   135  LEU135      0.0001
    144  CD2        3.5330   25.6710   15.3630 C.3   135  LEU135      0.0001
    145  N          5.5020   32.5230   14.0480 N.3   139  VAL139     -0.1245
    146  CA         5.0660   32.6570   12.6380 C.3   139  VAL139      0.1561
    147  C          4.4910   34.0440   12.4290 C.2   139  VAL139      0.2260
    148  O          4.6830   34.6590   11.3900 O.2   139  VAL139     -0.2867
    149  CB         4.0480   31.5120   12.2360 C.3   139  VAL139      0.0252
    150  CG1        3.4900   31.7500   10.8870 C.3   139  VAL139      0.0019
    151  CG2        4.6860   30.0990   12.1850 C.3   139  VAL139      0.0019
    152  N          5.6470   36.6280    9.6010 N.3   143  LEU143     -0.1245
    153  CA         4.7310   37.2250    8.5930 C.3   143  LEU143      0.1561
    154  C          4.5260   38.7690    8.7010 C.2   143  LEU143      0.2260
    155  O          4.2810   39.4850    7.6810 O.2   143  LEU143     -0.2867
    156  CB         3.3370   36.4990    8.5490 C.3   143  LEU143      0.0270
    157  CG         3.4990   34.9710    8.3100 C.3   143  LEU143      0.0019
    158  CD1        2.2710   34.1450    8.5830 C.3   143  LEU143      0.0001
    159  CD2        3.9840   34.7160    6.8910 C.3   143  LEU143      0.0001
    160  N          4.3870   39.0150    0.6310 N.3   150  VAL150     -0.1245
    161  CA         3.4310   37.9650    0.9180 C.3   150  VAL150      0.1561
    162  C          2.0750   38.5340    1.3830 C.2   150  VAL150      0.2260
    163  O          1.0850   38.3430    0.7680 O.2   150  VAL150     -0.2867
    164  CB         4.0080   37.0390    2.0200 C.3   150  VAL150      0.0252
    165  CG1        2.9340   36.1060    2.5390 C.3   150  VAL150      0.0019
    166  CG2        5.2390   36.2960    1.4970 C.3   150  VAL150      0.0019
    167  N         -1.5600   38.5540   -0.3760 N.3   154  VAL154     -0.1245
    168  CA        -2.6200   37.9100    0.2870 C.3   154  VAL154      0.1561
    169  C         -3.7510   38.8860    0.4550 C.2   154  VAL154      0.2260
    170  O         -4.9150   38.4800    0.2770 O.2   154  VAL154     -0.2867
    171  CB        -2.1600   37.3010    1.6660 C.3   154  VAL154      0.0252
    172  CG1       -3.3490   36.8560    2.4950 C.3   154  VAL154      0.0019
    173  CG2       -1.2550   36.1180    1.4310 C.3   154  VAL154      0.0019
@<TRIPOS>BOND
     1     1     2    1
     2     2     5    1
     3     2     3    1
     4     5     6    1
     5     3     4    2
     6     6     8   ar
     7     6     7   ar
     8     8    10   ar
     9    10    11   ar
    10     7     9   ar
    11   167   168    1
    12   170   169    2
    13   168   169    1
    14   168   171    1
    15    13    14    1
    16    11     9   ar
    17    11    12    1
    18   160   161    1
    19   163   162    2
    20   161   162    1
    21   161   164    1
    22   173   171    1
    23   166   164    1
    24   171   172    1
    25    14    17    1
    26    14    15    1
    27    17    18    1
    28   164   165    1
    29    15    16    2
    30    87    85   ar
    31    87    88   ar
    32    20    18    1
    33    18    19    1
    34    85    83   ar
    35    88    86   ar
    36    74    73    2
    37    76    75    1
    38    75    77    1
    39    75    72    1
    40    83    82    1
    41    83    84   ar
    42    73    72    1
    43    86    84   ar
    44    82    79    1
    45    72    71    1
    46    21    22    1
    47    79    78    1
    48    79    80    1
    49   134   136   ar
    50   134   132   ar
    51   136   135   ar
    52    67    66    1
    53    28    26    1
    54    25    22    1
    55    25    26    1
    56    25    27    1
    57    22    23    1
    58    23    24    2
    59   159   157    1
    60   132   131   ar
    61   132   130   ar
    62   131   129   ar
    63    80    81    2
    64    66    65    1
    65   135   133   ar
    66   155   154    2
    67    68    69    1
    68    68    65    1
    69    68    70    1
    70    95    93    1
    71    64    65    1
    72   130   133   ar
    73   130   128   ar
    74   157   156    1
    75   157   158    1
    76   129   128   ar
    77   156   153    1
    78    29    30    1
    79   153   154    1
    80   153   152    1
    81    56    55    2
    82   128   127    1
    83    94    93    1
    84    93    90    1
    85    90    89    1
    86    90    91    1
    87    62    63   ar
    88    62    60   ar
    89    63    61   ar
    90    30    33    1
    91    30    31    1
    92    55    54    1
    93    39    31   am
    94    39    40    1
    95    43    40    1
    96    60    58   ar
    97    33    34    1
    98   121   120    1
    99    91    92    2
   100    31    32    2
   101    41    40    1
   102    41    42    2
   103   127   124    1
   104    61    59   ar
   105    53    54    1
   106   123   124    1
   107   150   149    1
   108   124   125    1
   109    58    59   ar
   110    58    57    1
   111    54    57    1
   112   148   147    2
   113   118   117    2
   114   120   122    1
   115   120   119    1
   116    34    35   ar
   117    34    36   ar
   118   151   149    1
   119   149   146    1
   120   117   116    1
   121   147   146    1
   122   146   145    1
   123    96    97    1
   124   125   126    2
   125    97   100    1
   126    97    98    1
   127    35    37   ar
   128   102   104   ar
   129   102   101   ar
   130   114   112    1
   131    36    38   ar
   132   119   116    1
   133   104   106   ar
   134   116   115    1
   135   115   109   am
   136   100   101    1
   137    98    99    2
   138   101   103   ar
   139   111   112    1
   140   111   108    1
   141    37    38   ar
   142   112   113    1
   143    46    47    2
   144    46    45    1
   145   106   105   ar
   146   107   108    1
   147   109   108    1
   148   109   110    2
   149    48    45    1
   150    48    49    1
   151   143   142    1
   152   103   105   ar
   153    45    44    1
   154   144   142    1
   155   142   141    1
   156   140   139    2
   157    49    50    1
   158   139   138    1
   159    50    51    1
   160   141   138    1
   161   138   137    1
   162    51    52    1
