@<TRIPOS>MOLECULE
tmp/5c9jA00.pdb
 118 113 0 0 0
SMALL
GASTEIGER

@<TRIPOS>ATOM
      1  N          3.8940   28.7440   -7.2730 N.3    67  PHE67      -0.1227
      2  CA         4.8950   29.4310   -6.4920 C.3    67  PHE67       0.1736
      3  C          4.6250   29.4140   -4.9700 C.2    67  PHE67       0.2595
      4  O          5.5240   29.2100   -4.1960 O.2    67  PHE67      -0.2718
      5  CB         5.0460   30.8810   -7.0370 C.3    67  PHE67       0.0547
      6  CG         5.9850   31.7210   -6.2640 C.ar   67  PHE67      -0.0202
      7  CD1        7.3640   31.5710   -6.4170 C.ar   67  PHE67      -0.0042
      8  CD2        5.5060   32.6740   -5.3420 C.ar   67  PHE67      -0.0042
      9  CE1        8.2600   32.3520   -5.6670 C.ar   67  PHE67      -0.0003
     10  CE2        6.4040   33.4710   -4.6040 C.ar   67  PHE67      -0.0003
     11  CZ         7.7830   33.2980   -4.7640 C.ar   67  PHE67      -0.0000
     12  N          3.3790   29.6150   -4.5650 N.am   68  TYR68      -0.1976
     13  CA         3.0220   29.6660   -3.1720 C.3    68  TYR68       0.1639
     14  C          3.1110   28.3010   -2.5530 C.2    68  TYR68       0.2290
     15  O          3.6480   28.1810   -1.4870 O.2    68  TYR68      -0.2864
     16  CB         1.5570   30.2620   -3.0710 C.3    68  TYR68       0.0560
     17  CG         0.8000   29.9730   -1.8110 C.ar   68  TYR68      -0.0198
     18  CD1        1.0690   30.6720   -0.6100 C.ar   68  TYR68      -0.0009
     19  CD2       -0.2030   29.0390   -1.7980 C.ar   68  TYR68      -0.0009
     20  CE1        0.3510   30.3930    0.5640 C.ar   68  TYR68       0.0417
     21  CE2       -0.9320   28.7780   -0.6590 C.ar   68  TYR68       0.0417
     22  CZ        -0.6480   29.4380    0.5070 C.ar   68  TYR68       0.1957
     23  OH        -1.3650   29.0810    1.6420 O.3    68  TYR68      -0.2866
     24  N          6.6750   27.2810   -2.2690 N.3    71  GLY71      -0.1210
     25  CA         7.3790   28.1320   -1.3400 C.3    71  GLY71       0.1956
     26  C          6.9430   27.9420    0.0940 C.2    71  GLY71       0.2611
     27  O          7.7540   27.9430    1.0250 O.2    71  GLY71      -0.2717
     28  N          5.6540   27.7420    0.3190 N.am   72  LEU72      -0.1979
     29  CA         5.2200   27.5590    1.6850 C.3    72  LEU72       0.1596
     30  C          5.7110   26.2270    2.2800 C.2    72  LEU72       0.2287
     31  O          6.1960   26.0950    3.3890 O.2    72  LEU72      -0.2864
     32  CB         3.6590   27.5680    1.6900 C.3    72  LEU72       0.0297
     33  CG         2.9490   27.2990    3.0070 C.3    72  LEU72       0.0022
     34  CD1        3.5490   28.2800    4.0060 C.3    72  LEU72       0.0001
     35  CD2        1.4970   27.5890    2.9450 C.3    72  LEU72       0.0001
     36  N          9.5600   26.4970    2.9550 N.3    75  GLU75      -0.1231
     37  CA         9.7880   27.2370    4.2370 C.3    75  GLU75       0.1699
     38  C          9.3790   26.4970    5.4630 C.2    75  GLU75       0.2592
     39  O         10.0870   26.5520    6.4380 O.2    75  GLU75      -0.2718
     40  CB         9.0470   28.5780    4.2880 C.3    75  GLU75       0.0402
     41  CG         9.5980   29.5790    3.2500 C.3    75  GLU75       0.1161
     42  CD        11.0800   29.8890    3.5090 C.2    75  GLU75       0.3649
     43  OE1       11.3140   30.6720    4.4710 O.co2  75  GLU75      -0.2457
     44  OE2       11.9780   29.2920    2.8220 O.co2  75  GLU75      -0.2457
     45  N          8.2640   25.7710    5.4270 N.am   76  ILE76      -0.1980
     46  CA         7.9180   24.8750    6.5290 C.3    76  ILE76       0.1595
     47  C          8.9460   23.7990    6.7070 C.2    76  ILE76       0.2287
     48  O          9.5210   23.6040    7.8000 O.2    76  ILE76      -0.2864
     49  CB         6.5190   24.3250    6.2900 C.3    76  ILE76       0.0276
     50  CG1        5.5470   25.3840    6.7070 C.3    76  ILE76       0.0022
     51  CG2        6.2580   23.1190    7.1340 C.3    76  ILE76       0.0022
     52  CD1        4.1390   25.2020    6.2390 C.3    76  ILE76       0.0001
     53  N         12.1410   25.0510    8.5620 N.3    79  HIS79      -0.1241
     54  CA        11.9900   25.1860   10.0370 C.3    79  HIS79       0.1621
     55  C         11.9410   23.8360   10.6550 C.2    79  HIS79       0.2264
     56  O         12.7300   23.5150   11.4930 O.2    79  HIS79      -0.2867
     57  CB        10.7010   25.9080   10.5280 C.3    79  HIS79       0.0745
     58  CG        10.6320   26.0520   12.0360 C.ar   79  HIS79       0.0817
     59  ND1        9.7400   25.3520   12.8190 N.ar   79  HIS79      -0.2268
     60  CD2       11.4060   26.7650   12.9050 C.ar   79  HIS79       0.1154
     61  CE1        9.9250   25.6550   14.0920 C.ar   79  HIS79       0.1986
     62  NE2       10.9390   26.5020   14.1740 N.ar   79  HIS79      -0.2212
     63  N          4.6680   28.8060   18.9990 N.3   135  LEU135     -0.1245
     64  CA         4.6850   28.6050   17.5140 C.3   135  LEU135      0.1561
     65  C          3.9380   29.7320   16.7910 C.2   135  LEU135      0.2260
     66  O          4.3770   30.3150   15.7410 O.2   135  LEU135     -0.2867
     67  CB         3.9920   27.3120   17.1340 C.3   135  LEU135      0.0270
     68  CG         4.0830   27.0630   15.6070 C.3   135  LEU135      0.0019
     69  CD1        5.5240   27.1900   15.0520 C.3   135  LEU135      0.0001
     70  CD2        3.5330   25.6710   15.3630 C.3   135  LEU135      0.0001
     71  N          5.6340   33.0220   16.8010 N.3   138  SER138     -0.1202
     72  CA         6.8360   33.0960   15.9430 C.3   138  SER138      0.2020
     73  C          6.4730   33.2930   14.5180 C.2   138  SER138      0.2618
     74  O          7.0040   34.2150   13.8480 O.2   138  SER138     -0.2717
     75  CB         7.7110   31.8700   16.0920 C.3   138  SER138      0.2103
     76  OG         8.0290   31.6520   17.4450 O.3   138  SER138     -0.2182
     77  N          5.5020   32.5230   14.0480 N.am  139  VAL139     -0.1979
     78  CA         5.0660   32.6570   12.6380 C.3   139  VAL139      0.1595
     79  C          4.4910   34.0440   12.4290 C.2   139  VAL139      0.2287
     80  O          4.6830   34.6590   11.3900 O.2   139  VAL139     -0.2864
     81  CB         4.0480   31.5120   12.2360 C.3   139  VAL139      0.0276
     82  CG1        3.4900   31.7500   10.8870 C.3   139  VAL139      0.0022
     83  CG2        4.6860   30.0990   12.1850 C.3   139  VAL139      0.0022
     84  N          7.1640   36.5110   11.9420 N.3   142  LEU142     -0.1231
     85  CA         7.7900   36.3210   10.6190 C.3   142  LEU142      0.1693
     86  C          6.9620   36.8660    9.5240 C.2   142  LEU142      0.2591
     87  O          7.5060   37.5440    8.6260 O.2   142  LEU142     -0.2718
     88  CB         8.0740   34.8620   10.3010 C.3   142  LEU142      0.0284
     89  CG         9.2080   34.2920   11.1850 C.3   142  LEU142      0.0019
     90  CD1        9.2760   32.7600   11.1840 C.3   142  LEU142      0.0001
     91  CD2       10.5940   34.8560   10.8260 C.3   142  LEU142      0.0001
     92  N          5.6470   36.6280    9.6010 N.am  143  LEU143     -0.1980
     93  CA         4.7310   37.2250    8.5930 C.3   143  LEU143      0.1596
     94  C          4.5260   38.7690    8.7010 C.2   143  LEU143      0.2287
     95  O          4.2810   39.4850    7.6810 O.2   143  LEU143     -0.2864
     96  CB         3.3370   36.4990    8.5490 C.3   143  LEU143      0.0297
     97  CG         3.4990   34.9710    8.3100 C.3   143  LEU143      0.0022
     98  CD1        2.2710   34.1450    8.5830 C.3   143  LEU143      0.0001
     99  CD2        3.9840   34.7160    6.8910 C.3   143  LEU143      0.0001
    100  N          7.9220   39.2130    5.4070 N.3   147  TYR147     -0.1241
    101  CA         7.4920   38.5690    4.1680 C.3   147  TYR147      0.1605
    102  C          6.3680   39.5420    3.8190 C.2   147  TYR147      0.2264
    103  O          5.1740   39.3650    4.2110 O.2   147  TYR147     -0.2867
    104  CB         6.9270   37.1470    4.4190 C.3   147  TYR147      0.0534
    105  CG         7.7990   35.9060    4.6900 C.ar  147  TYR147     -0.0201
    106  CD1        8.3830   35.1440    3.6710 C.ar  147  TYR147     -0.0009
    107  CD2        7.8660   35.4040    5.9670 C.ar  147  TYR147     -0.0009
    108  CE1        9.1270   33.9600    3.9700 C.ar  147  TYR147      0.0417
    109  CE2        8.5790   34.2660    6.2820 C.ar  147  TYR147      0.0417
    110  CZ         9.1930   33.5380    5.3110 C.ar  147  TYR147      0.1957
    111  OH         9.8260   32.4280    5.8310 O.3   147  TYR147     -0.2866
    112  N          4.3870   39.0150    0.6310 N.3   150  VAL150     -0.1245
    113  CA         3.4310   37.9650    0.9180 C.3   150  VAL150      0.1561
    114  C          2.0750   38.5340    1.3830 C.2   150  VAL150      0.2260
    115  O          1.0850   38.3430    0.7680 O.2   150  VAL150     -0.2867
    116  CB         4.0080   37.0390    2.0200 C.3   150  VAL150      0.0252
    117  CG1        2.9340   36.1060    2.5390 C.3   150  VAL150      0.0019
    118  CG2        5.2390   36.2960    1.4970 C.3   150  VAL150      0.0019
@<TRIPOS>BOND
     1     1     2    1
     2     5     2    1
     3     5     6    1
     4     2     3    1
     5     7     6   ar
     6     7     9   ar
     7     6     8   ar
     8     9    11   ar
     9     8    10   ar
    10     3    12   am
    11     3     4    2
    12    11    10   ar
    13    12    13    1
    14    13    16    1
    15    13    14    1
    16    16    17    1
    17    14    15    2
    18    24    25    1
    19    17    19   ar
    20    17    18   ar
    21    19    21   ar
    22    25    26    1
    23    21    22   ar
    24    18    20   ar
    25    26    28   am
    26    26    27    2
    27    28    29    1
    28    22    20   ar
    29    22    23    1
    30   112   113    1
    31   115   114    2
    32   113   114    1
    33   113   116    1
    34   118   116    1
    35    29    32    1
    36    29    30    1
    37    32    33    1
    38   116   117    1
    39    30    31    2
    40    44    42   ar
    41    35    33    1
    42    36    37    1
    43    33    34    1
    44    41    42    1
    45    41    40    1
    46    42    43   ar
    47   106   108   ar
    48   106   105   ar
    49   102   101    1
    50   102   103    2
    51   108   110   ar
    52   101   104    1
    53   101   100    1
    54    37    40    1
    55    37    38    1
    56   104   105    1
    57   105   107   ar
    58   110   111    1
    59   110   109   ar
    60    45    38   am
    61    45    46    1
    62    38    39    2
    63   107   109   ar
    64    52    50    1
    65    49    46    1
    66    49    50    1
    67    49    51    1
    68    46    47    1
    69    47    48    2
    70    99    97    1
    71    95    94    2
    72    97    96    1
    73    97    98    1
    74    96    93    1
    75    53    54    1
    76    93    94    1
    77    93    92    1
    78    87    86    2
    79    86    92   am
    80    86    85    1
    81    54    57    1
    82    54    55    1
    83    88    85    1
    84    88    89    1
    85    57    58    1
    86    85    84    1
    87    55    56    2
    88    91    89    1
    89    82    81    1
    90    90    89    1
    91    80    79    2
    92    58    59   ar
    93    58    60   ar
    94    83    81    1
    95    81    78    1
    96    79    78    1
    97    78    77    1
    98    59    61   ar
    99    60    62   ar
   100    74    73    2
   101    77    73   am
   102    61    62   ar
   103    73    72    1
   104    69    68    1
   105    70    68    1
   106    68    67    1
   107    66    65    2
   108    72    75    1
   109    72    71    1
   110    75    76    1
   111    65    64    1
   112    67    64    1
   113    64    63    1
