@<TRIPOS>MOLECULE
tmp/5c9jA02.pdb
 201 192 0 0 0
SMALL
GASTEIGER

@<TRIPOS>ATOM
      1  N        -16.8460   32.8270   -1.3820 N.3     5  PHE5       -0.1241
      2  CA       -15.9620   31.9230   -2.1810 C.3     5  PHE5        0.1605
      3  C        -14.7600   31.6000   -1.4190 C.2     5  PHE5        0.2264
      4  O        -14.2570   32.4200   -0.7190 O.2     5  PHE5       -0.2867
      5  CB       -15.4790   32.5230   -3.4520 C.3     5  PHE5        0.0534
      6  CG       -14.6440   31.5930   -4.2590 C.ar    5  PHE5       -0.0203
      7  CD1      -15.2030   30.4060   -4.8630 C.ar    5  PHE5       -0.0042
      8  CD2      -13.3270   31.8490   -4.3910 C.ar    5  PHE5       -0.0042
      9  CE1      -14.4150   29.5510   -5.5040 C.ar    5  PHE5       -0.0003
     10  CE2      -12.5100   31.0090   -5.0870 C.ar    5  PHE5       -0.0003
     11  CZ       -13.0550   29.8670   -5.6760 C.ar    5  PHE5       -0.0000
     12  N        -11.0110   29.0250   -0.9120 N.3     7  VAL7       -0.1245
     13  CA       -10.0170   27.9970   -1.2210 C.3     7  VAL7        0.1561
     14  C         -9.6610   27.2570    0.0440 C.2     7  VAL7        0.2260
     15  O         -9.5390   27.8490    1.1140 O.2     7  VAL7       -0.2867
     16  CB        -8.8280   28.6640   -1.8430 C.3     7  VAL7        0.0252
     17  CG1       -7.6390   27.7110   -1.9440 C.3     7  VAL7        0.0019
     18  CG2       -9.2280   29.1050   -3.2920 C.3     7  VAL7        0.0019
     19  N         -6.7030   24.4630    1.4930 N.3     9  GLN9       -0.1245
     20  CA        -5.4470   23.7740    1.3310 C.3     9  GLN9        0.1566
     21  C         -5.2180   22.8290    2.4780 C.2     9  GLN9        0.2260
     22  O         -5.3600   23.1980    3.6360 O.2     9  GLN9       -0.2867
     23  CB        -4.3380   24.8030    1.3830 C.3     9  GLN9        0.0367
     24  CG        -4.1800   25.5780    0.1020 C.3     9  GLN9        0.0905
     25  CD        -4.1420   27.0370    0.3430 C.2     9  GLN9        0.2608
     26  OE1       -3.3190   27.5230    1.0620 O.2     9  GLN9       -0.2717
     27  NE2       -5.0310   27.7230   -0.1960 N.am    9  GLN9       -0.0878
     28  N         -5.8630   20.7520   -2.6130 N.3    23  GLY23      -0.1210
     29  CA        -6.8240   21.8580   -2.3460 C.3    23  GLY23       0.1956
     30  C         -7.8740   21.9520   -3.4350 C.2    23  GLY23       0.2613
     31  O         -7.8450   21.1730   -4.4360 O.2    23  GLY23      -0.2717
     32  N         -8.7500   22.9450   -3.2620 N.am   24  SER24      -0.1938
     33  CA       -10.1050   22.9200   -3.8700 C.3    24  SER24       0.2055
     34  C        -10.8220   24.2440   -3.7160 C.2    24  SER24       0.2643
     35  O        -10.3580   25.0090   -2.9680 O.2    24  SER24      -0.2714
     36  CB       -10.8890   21.7300   -3.4370 C.3    24  SER24       0.2130
     37  OG       -11.0200   21.7910   -2.0320 O.3    24  SER24      -0.2179
     38  N        -11.6990   24.6440   -4.6340 N.am   25  GLY25      -0.1954
     39  CA       -12.3780   25.9370   -4.5110 C.3    25  GLY25       0.1869
     40  C        -13.8350   25.6710   -4.3200 C.2    25  GLY25       0.2309
     41  O        -14.3690   24.7880   -4.9360 O.2    25  GLY25      -0.2863
     42  N        -14.0510   24.0080   -7.8380 N.3    33  HIS33      -0.1226
     43  CA       -12.7470   23.9100   -8.3930 C.3    33  HIS33       0.1752
     44  C        -12.0020   22.7410   -7.7890 C.2    33  HIS33       0.2597
     45  O        -12.2410   22.3080   -6.6040 O.2    33  HIS33      -0.2718
     46  CB       -11.9590   25.2370   -8.2850 C.3    33  HIS33       0.0759
     47  CG       -12.5600   26.3550   -9.0050 C.ar   33  HIS33       0.0818
     48  ND1      -13.5530   27.1370   -8.4780 N.ar   33  HIS33      -0.2268
     49  CD2      -12.4330   26.7490  -10.2920 C.ar   33  HIS33       0.1154
     50  CE1      -13.9510   28.0240   -9.3810 C.ar   33  HIS33       0.1986
     51  NE2      -13.2040   27.8670  -10.4500 N.ar   33  HIS33      -0.2212
     52  N        -11.1810   22.1380   -8.6450 N.am   34  GLY34      -0.1942
     53  CA       -10.1530   21.2360   -8.1640 C.3    34  GLY34       0.2014
     54  C         -8.7800   21.8210   -8.3620 C.2    34  GLY34       0.2635
     55  O         -8.5640   22.9080   -8.9540 O.2    34  GLY34      -0.2714
     56  N         -7.8010   21.0810   -7.8700 N.am   35  TRP35      -0.2026
     57  CA        -6.3490   21.3760   -8.1290 C.3    35  TRP35       0.1326
     58  C         -5.6320   20.0960   -8.4660 C.3    35  TRP35       0.2039
     59  O         -5.6860   19.0490   -7.7170 O.3    35  TRP35      -0.2185
     60  CB        -5.7290   22.0820   -6.8670 C.3    35  TRP35       0.0523
     61  CG        -4.3360   22.4340   -7.0300 C.ar   35  TRP35       0.0002
     62  CD1       -3.2390   21.6960   -6.6050 C.ar   35  TRP35       0.0946
     63  CD2       -3.8240   23.5320   -7.7230 C.ar   35  TRP35       0.0152
     64  NE1       -2.0860   22.2740   -7.0240 N.ar   35  TRP35      -0.2442
     65  CE2       -2.4110   23.4500   -7.6460 C.ar   35  TRP35       0.0810
     66  CE3       -4.4170   24.6360   -8.3690 C.ar   35  TRP35       0.0012
     67  CZ2       -1.5930   24.3670   -8.2160 C.ar   35  TRP35       0.0191
     68  CZ3       -3.5750   25.5770   -8.9680 C.ar   35  TRP35       0.0001
     69  CH2       -2.1840   25.4430   -8.8740 C.ar   35  TRP35       0.0015
     70  N         -5.4280   24.3250  -12.1690 N.3    42  ILE42      -0.1245
     71  CA        -6.8000   24.3850  -11.6400 C.3    42  ILE42       0.1561
     72  C         -7.6350   23.3990  -12.3970 C.2    42  ILE42       0.2260
     73  O         -7.5140   23.3360  -13.6180 O.2    42  ILE42      -0.2867
     74  CB        -7.4150   25.8160  -11.8490 C.3    42  ILE42       0.0252
     75  CG1       -6.4720   26.8870  -11.2590 C.3    42  ILE42       0.0019
     76  CG2       -8.8250   25.9060  -11.2720 C.3    42  ILE42       0.0019
     77  CD1       -6.9800   28.3400  -11.3640 C.3    42  ILE42       0.0001
     78  N         -6.7100   33.6840  -15.3040 N.3    58  LEU58      -0.1245
     79  CA        -6.7280   32.4620  -14.5690 C.3    58  LEU58       0.1561
     80  C         -5.3410   31.8040  -14.5930 C.2    58  LEU58       0.2260
     81  O         -4.8950   31.2930  -13.5920 O.2    58  LEU58      -0.2867
     82  CB        -7.8000   31.4840  -15.0560 C.3    58  LEU58       0.0270
     83  CG        -9.1950   32.0440  -14.6780 C.3    58  LEU58       0.0019
     84  CD1      -10.2760   31.4240  -15.5370 C.3    58  LEU58       0.0001
     85  CD2       -9.5050   31.8700  -13.1990 C.3    58  LEU58       0.0001
     86  N         -3.3050   33.3300  -12.0990 N.3    61  LEU61      -0.1245
     87  CA        -3.6250   32.8840  -10.7870 C.3    61  LEU61       0.1561
     88  C         -3.0180   31.5310  -10.5030 C.2    61  LEU61       0.2260
     89  O         -2.5220   31.3200   -9.4420 O.2    61  LEU61      -0.2867
     90  CB        -5.1370   32.8850  -10.5100 C.3    61  LEU61       0.0270
     91  CG        -5.5800   34.3210  -10.2590 C.3    61  LEU61       0.0019
     92  CD1       -7.0920   34.4610  -10.4040 C.3    61  LEU61       0.0001
     93  CD2       -5.1620   34.9370   -8.9210 C.3    61  LEU61       0.0001
     94  N          0.6780   31.8130   -9.6410 N.3    64  LEU64      -0.1231
     95  CA         0.8440   32.3910   -8.3610 C.3    64  LEU64       0.1693
     96  C          0.5450   31.3480   -7.2960 C.2    64  LEU64       0.2592
     97  O          1.2550   31.2700   -6.3420 O.2    64  LEU64      -0.2718
     98  CB        -0.1060   33.5690   -8.1930 C.3    64  LEU64       0.0284
     99  CG        -0.0920   34.2790   -6.8330 C.3    64  LEU64       0.0019
    100  CD1        1.3270   34.6330   -6.3400 C.3    64  LEU64       0.0001
    101  CD2       -0.9330   35.5400   -6.9340 C.3    64  LEU64       0.0001
    102  N         -0.4630   30.5040   -7.4770 N.am   65  PHE65      -0.1976
    103  CA        -0.6110   29.3380   -6.6250 C.3    65  PHE65       0.1639
    104  C          0.5640   28.3470   -6.6520 C.2    65  PHE65       0.2290
    105  O          0.9360   27.8190   -5.5950 O.2    65  PHE65      -0.2864
    106  CB        -1.9110   28.5550   -6.9150 C.3    65  PHE65       0.0560
    107  CG        -3.1820   29.3080   -6.5990 C.ar   65  PHE65      -0.0200
    108  CD1       -3.3690   29.9120   -5.3520 C.ar   65  PHE65      -0.0042
    109  CD2       -4.2190   29.3530   -7.4680 C.ar   65  PHE65      -0.0042
    110  CE1       -4.5470   30.5830   -5.0520 C.ar   65  PHE65      -0.0003
    111  CE2       -5.4230   30.0900   -7.1760 C.ar   65  PHE65      -0.0003
    112  CZ        -5.5720   30.6820   -5.9860 C.ar   65  PHE65      -0.0000
    113  N          3.3790   29.6150   -4.5650 N.3    68  TYR68      -0.1241
    114  CA         3.0220   29.6660   -3.1720 C.3    68  TYR68       0.1605
    115  C          3.1110   28.3010   -2.5530 C.2    68  TYR68       0.2264
    116  O          3.6480   28.1810   -1.4870 O.2    68  TYR68      -0.2867
    117  CB         1.5570   30.2620   -3.0710 C.3    68  TYR68       0.0534
    118  CG         0.8000   29.9730   -1.8110 C.ar   68  TYR68      -0.0201
    119  CD1        1.0690   30.6720   -0.6100 C.ar   68  TYR68      -0.0009
    120  CD2       -0.2030   29.0390   -1.7980 C.ar   68  TYR68      -0.0009
    121  CE1        0.3510   30.3930    0.5640 C.ar   68  TYR68       0.0417
    122  CE2       -0.9320   28.7780   -0.6590 C.ar   68  TYR68       0.0417
    123  CZ        -0.6480   29.4380    0.5070 C.ar   68  TYR68       0.1957
    124  OH        -1.3650   29.0810    1.6420 O.3    68  TYR68      -0.2866
    125  N         -9.0570   30.2630    2.8990 N.3    95  ALA95      -0.1245
    126  CA        -8.8840   31.6300    2.5110 C.3    95  ALA95       0.1562
    127  C         -9.8690   31.9870    1.4370 C.2    95  ALA95       0.2260
    128  O        -10.1750   31.1990    0.5870 O.2    95  ALA95      -0.2867
    129  CB        -7.4520   31.8910    2.0590 C.3    95  ALA95       0.0290
    130  N         -8.3010   34.5660    6.0480 N.3   109  PHE109     -0.1241
    131  CA        -7.2010   33.6770    5.7870 C.3   109  PHE109      0.1605
    132  C         -6.8000   33.0370    7.1440 C.2   109  PHE109      0.2264
    133  O         -6.3050   33.6870    8.0570 O.2   109  PHE109     -0.2867
    134  CB        -6.0760   34.4050    5.1350 C.3   109  PHE109      0.0534
    135  CG        -5.0400   33.5040    4.5110 C.ar  109  PHE109     -0.0203
    136  CD1       -4.2600   32.7460    5.2530 C.ar  109  PHE109     -0.0042
    137  CD2       -4.8690   33.4780    3.1770 C.ar  109  PHE109     -0.0042
    138  CE1       -3.2840   31.9490    4.7030 C.ar  109  PHE109     -0.0003
    139  CE2       -3.9040   32.6850    2.6170 C.ar  109  PHE109     -0.0003
    140  CZ        -3.1020   31.9510    3.3710 C.ar  109  PHE109     -0.0000
    141  N          4.3870   39.0150    0.6310 N.3   150  VAL150     -0.1245
    142  CA         3.4310   37.9650    0.9180 C.3   150  VAL150      0.1561
    143  C          2.0750   38.5340    1.3830 C.2   150  VAL150      0.2260
    144  O          1.0850   38.3430    0.7680 O.2   150  VAL150     -0.2867
    145  CB         4.0080   37.0390    2.0200 C.3   150  VAL150      0.0252
    146  CG1        2.9340   36.1060    2.5390 C.3   150  VAL150      0.0019
    147  CG2        5.2390   36.2960    1.4970 C.3   150  VAL150      0.0019
    148  N          0.2060   40.6010   -1.2940 N.3   153  THR153     -0.1203
    149  CA        -0.4580   39.6950   -2.1860 C.3   153  THR153      0.1994
    150  C         -1.7230   39.0230   -1.5770 C.2   153  THR153      0.2617
    151  O         -2.8200   38.9660   -2.1280 O.2   153  THR153     -0.2717
    152  CB         0.5210   38.5510   -2.5080 C.3   153  THR153      0.1784
    153  OG1        1.6570   39.1390   -3.1090 O.3   153  THR153     -0.2211
    154  CG2       -0.0500   37.5780   -3.4940 C.3   153  THR153      0.0376
    155  N         -1.5600   38.5540   -0.3760 N.am  154  VAL154     -0.1979
    156  CA        -2.6200   37.9100    0.2870 C.3   154  VAL154      0.1595
    157  C         -3.7510   38.8860    0.4550 C.2   154  VAL154      0.2287
    158  O         -4.9150   38.4800    0.2770 O.2   154  VAL154     -0.2864
    159  CB        -2.1600   37.3010    1.6660 C.3   154  VAL154      0.0276
    160  CG1       -3.3490   36.8560    2.4950 C.3   154  VAL154      0.0022
    161  CG2       -1.2550   36.1180    1.4310 C.3   154  VAL154      0.0022
    162  N         -5.5450   39.5680   -2.9510 N.3   157  LEU157     -0.1231
    163  CA        -6.3490   38.3730   -3.3180 C.3   157  LEU157      0.1693
    164  C         -7.6490   38.1350   -2.5640 C.2   157  LEU157      0.2591
    165  O         -8.6130   37.7270   -3.1590 O.2   157  LEU157     -0.2718
    166  CB        -5.5580   37.1350   -3.0850 C.3   157  LEU157      0.0284
    167  CG        -4.3610   36.8350   -3.9830 C.3   157  LEU157      0.0019
    168  CD1       -3.8640   35.4560   -3.5530 C.3   157  LEU157      0.0001
    169  CD2       -4.6830   36.8940   -5.4640 C.3   157  LEU157      0.0001
    170  N         -7.6290   38.2480   -1.2430 N.am  158  ILE158     -0.1980
    171  CA        -8.8220   38.0150   -0.4870 C.3   158  ILE158      0.1595
    172  C         -9.7530   39.2540   -0.4420 C.2   158  ILE158      0.2287
    173  O        -10.9520   39.0900   -0.3040 O.2   158  ILE158     -0.2864
    174  CB        -8.5570   37.5390    0.9080 C.3   158  ILE158      0.0276
    175  CG1       -8.0900   38.6320    1.8480 C.3   158  ILE158      0.0022
    176  CG2       -7.6250   36.3490    0.9300 C.3   158  ILE158      0.0022
    177  CD1       -7.7400   38.0770    3.2020 C.3   158  ILE158      0.0001
    178  N         -9.4140   40.5270   -5.4920 N.3   161  THR161     -0.1203
    179  CA        -9.6360   39.4810   -6.5360 C.3   161  THR161      0.1994
    180  C        -10.7620   38.5200   -6.2010 C.2   161  THR161      0.2618
    181  O        -11.5140   38.0400   -7.1140 O.2   161  THR161     -0.2717
    182  CB        -8.3600   38.5990   -6.7360 C.3   161  THR161      0.1784
    183  OG1       -7.2080   39.4170   -6.9290 O.3   161  THR161     -0.2211
    184  CG2       -8.4390   37.7640   -7.8750 C.3   161  THR161      0.0376
    185  N        -10.8850   38.1390   -4.9140 N.am  162  CYS162     -0.1969
    186  CA       -11.8750   37.0820   -4.5820 C.3   162  CYS162      0.1712
    187  C        -13.3150   37.5420   -4.7650 C.2   162  CYS162      0.2296
    188  O        -14.1160   36.8490   -5.3370 O.2   162  CYS162     -0.2864
    189  CB       -11.5640   36.5660   -3.1680 C.3   162  CYS162      0.0983
    190  SG       -12.6350   35.2730   -2.5600 S.3   162  CYS162     -0.0798
    191  N        -13.9930   37.7870   -8.4500 N.3   165  PHE165     -0.1241
    192  CA       -14.2350   36.4580   -9.0060 C.3   165  PHE165      0.1605
    193  C        -15.5150   35.8320   -8.5830 C.2   165  PHE165      0.2264
    194  O        -16.2830   35.2440   -9.4250 O.2   165  PHE165     -0.2867
    195  CB       -13.1010   35.5360   -8.6370 C.3   165  PHE165      0.0534
    196  CG       -13.2220   34.2180   -9.1830 C.ar  165  PHE165     -0.0203
    197  CD1      -12.9870   34.0180  -10.5110 C.ar  165  PHE165     -0.0042
    198  CD2      -13.4480   33.1120   -8.3580 C.ar  165  PHE165     -0.0042
    199  CE1      -12.9930   32.7210  -11.0700 C.ar  165  PHE165     -0.0003
    200  CE2      -13.5960   31.8590   -8.9550 C.ar  165  PHE165     -0.0003
    201  CZ       -13.3550   31.6460  -10.2790 C.ar  165  PHE165     -0.0000
@<TRIPOS>BOND
     1    84    83    1
     2    78    79    1
     3    82    83    1
     4    82    79    1
     5    83    85    1
     6    80    79    1
     7    80    81    2
     8    73    72    2
     9    72    71    1
    10    70    71    1
    11    86    87    1
    12    74    71    1
    13    74    76    1
    14    74    75    1
    15    77    75    1
    16   199   197   ar
    17   199   201   ar
    18    87    90    1
    19    87    88    1
    20   197   196   ar
    21    90    91    1
    22    88    89    2
    23    51    49   ar
    24    51    50   ar
    25    92    91    1
    26    49    47   ar
    27   201   200   ar
    28    91    93    1
    29    94    95    1
    30   194   193    2
    31    50    48   ar
    32   196   195    1
    33   196   198   ar
    34   192   195    1
    35   192   193    1
    36   192   191    1
    37    47    48   ar
    38    47    46    1
    39    68    69   ar
    40    68    66   ar
    41   200   198   ar
    42    55    54    2
    43    69    67   ar
    44    52    53    1
    45    52    44   am
    46    58    57    1
    47    58    59    1
    48    43    46    1
    49    43    42    1
    50    43    44    1
    51    66    63   ar
    52    54    53    1
    53    54    56   am
    54    95    98    1
    55    95    96    1
    56    67    65   ar
    57    98    99    1
    58    57    56    1
    59    57    60    1
    60   184   182    1
    61    44    45    2
    62    63    65   ar
    63    63    61   ar
    64    65    64   ar
    65   102    96   am
    66   102   103    1
    67   109   111   ar
    68   109   107   ar
    69    96    97    2
    70   111   112   ar
    71   181   180    2
    72    61    60    1
    73    61    62   ar
    74    64    62   ar
    75   101    99    1
    76   183   182    1
    77   106   103    1
    78   106   107    1
    79    99   100    1
    80   182   179    1
    81   104   103    1
    82   104   105    2
    83   107   108   ar
    84   179   180    1
    85   179   178    1
    86   180   185   am
    87   112   110   ar
    88    11     9   ar
    89    11    10   ar
    90     9     7   ar
    91   169   167    1
    92   108   110   ar
    93   188   187    2
    94    10     8   ar
    95    41    40    2
    96   185   186    1
    97     7     6   ar
    98   187   186    1
    99    38    39    1
   100    38    34   am
   101   186   189    1
   102   113   114    1
   103    39    40    1
   104    31    30    2
   105     8     6   ar
   106     6     5    1
   107   167   168    1
   108   167   166    1
   109    33    34    1
   110    33    36    1
   111    33    32    1
   112    34    35    2
   113   154   152    1
   114     5     2    1
   115    36    37    1
   116    30    32   am
   117    30    29    1
   118   163   166    1
   119   163   162    1
   120   163   164    1
   121    18    16    1
   122   114   117    1
   123   114   115    1
   124   189   190    1
   125   165   164    2
   126   153   152    1
   127   117   118    1
   128    28    29    1
   129   164   170   am
   130   115   116    2
   131   152   149    1
   132   149   150    1
   133   149   148    1
   134     2     3    1
   135     2     1    1
   136   151   150    2
   137    17    16    1
   138    16    13    1
   139   118   120   ar
   140   118   119   ar
   141   120   122   ar
   142   150   155   am
   143     3     4    2
   144   170   171    1
   145    13    12    1
   146    13    14    1
   147   122   123   ar
   148   119   121   ar
   149   171   172    1
   150   171   174    1
   151   172   173    2
   152   155   156    1
   153    27    25   am
   154    14    15    2
   155    24    25    1
   156    24    23    1
   157   158   157    2
   158   156   157    1
   159   156   159    1
   160    25    26    2
   161   123   121   ar
   162   123   124    1
   163   128   127    2
   164   141   142    1
   165   144   143    2
   166   174   176    1
   167   174   175    1
   168   142   143    1
   169   142   145    1
   170    20    23    1
   171    20    19    1
   172    20    21    1
   173   161   159    1
   174   127   126    1
   175   147   145    1
   176   159   160    1
   177   175   177    1
   178   145   146    1
   179   129   126    1
   180    21    22    2
   181   126   125    1
   182   139   137   ar
   183   139   140   ar
   184   137   135   ar
   185   140   138   ar
   186   135   134    1
   187   135   136   ar
   188   138   136   ar
   189   134   131    1
   190   131   130    1
   191   131   132    1
   192   132   133    2
