@<TRIPOS>MOLECULE
tmp/5c9pA01.pdb
 80 79 0 0 0
SMALL
GASTEIGER

@<TRIPOS>ATOM
      1  N          7.6500   22.4400   44.4710 N.3    54  ASN54      -0.1225
      2  CA         7.3120   21.1280   45.0430 C.3    54  ASN54       0.1785
      3  C          5.9500   20.6530   44.5640 C.2    54  ASN54       0.2598
      4  O          5.0220   21.4170   44.4140 O.2    54  ASN54      -0.2718
      5  CB         7.3360   21.2010   46.5800 C.3    54  ASN54       0.1169
      6  CG         8.7330   21.4670   47.1110 C.2    54  ASN54       0.2627
      7  OD1        9.7970   21.0140   46.5850 O.2    54  ASN54      -0.2716
      8  ND2        8.7690   22.2120   48.1690 N.am   54  ASN54      -0.0877
      9  N          5.8670   19.3740   44.3060 N.am   55  GLY55      -0.1942
     10  CA         4.5780   18.6960   44.0130 C.3    55  GLY55       0.2014
     11  C          4.7210   17.8850   42.7220 C.2    55  GLY55       0.2639
     12  O          5.2800   18.3920   41.7190 O.2    55  GLY55      -0.2714
     13  N          4.1820   16.6640   42.7290 N.am   56  VAL56      -0.1963
     14  CA         4.2320   15.7830   41.5990 C.3    56  VAL56       0.1727
     15  C          3.1110   16.1300   40.6360 C.2    56  VAL56       0.2616
     16  O          1.9680   16.3490   41.0940 O.2    56  VAL56      -0.2715
     17  CB         4.1160   14.3040   42.0410 C.3    56  VAL56       0.0290
     18  CG1        3.9740   13.3820   40.8330 C.3    56  VAL56       0.0023
     19  CG2        5.4220   13.9600   42.8390 C.3    56  VAL56       0.0023
     20  N          3.4060   16.1660   39.3480 N.am   57  VAL57      -0.1977
     21  CA         2.3920   16.5430   38.3930 C.3    57  VAL57       0.1596
     22  C          2.2780   15.4370   37.2970 C.2    57  VAL57       0.2287
     23  O          3.1300   14.5830   37.1950 O.2    57  VAL57      -0.2864
     24  CB         2.7220   17.8820   37.7180 C.3    57  VAL57       0.0276
     25  CG1        2.9790   18.9410   38.7580 C.3    57  VAL57       0.0022
     26  CG2        3.9250   17.7670   36.7500 C.3    57  VAL57       0.0022
     27  N         -1.4850   22.8280   35.6030 N.3    75  VAL75      -0.1245
     28  CA        -0.9700   21.4720   35.4000 C.3    75  VAL75       0.1561
     29  C         -1.9820   20.4780   35.9350 C.2    75  VAL75       0.2260
     30  O         -2.7580   20.8250   36.8250 O.2    75  VAL75      -0.2867
     31  CB         0.4360   21.3580   36.0870 C.3    75  VAL75       0.0252
     32  CG1        0.2750   21.1920   37.5770 C.3    75  VAL75       0.0019
     33  CG2        1.2750   20.3100   35.3850 C.3    75  VAL75       0.0019
     34  N         -2.7290   17.2710   38.2430 N.3    77  GLY77      -0.1210
     35  CA        -2.1180   16.7010   39.4470 C.3    77  GLY77       0.1956
     36  C         -2.1790   15.1920   39.5000 C.2    77  GLY77       0.2613
     37  O         -2.7300   14.5490   38.6140 O.2    77  GLY77      -0.2717
     38  N         -1.6510   14.6320   40.6060 N.am   78  THR78      -0.1938
     39  CA        -1.7150   13.1790   40.7870 C.3    78  THR78       0.2028
     40  C         -3.1460   12.6770   40.9130 C.2    78  THR78       0.2642
     41  O         -3.3680   11.5040   40.6500 O.2    78  THR78      -0.2714
     42  CB        -0.8860   12.7230   42.0610 C.3    78  THR78       0.1808
     43  OG1       -1.3690   13.4240   43.1950 O.3    78  THR78      -0.2208
     44  CG2        0.5120   13.0870   41.9200 C.3    78  THR78       0.0379
     45  N         -4.1080   13.5450   41.2430 N.am   79  ASP79      -0.1971
     46  CA        -5.5020   13.2130   41.3970 C.3    79  ASP79       0.1709
     47  C         -6.2690   13.4570   40.1110 C.2    79  ASP79       0.2293
     48  O         -7.5230   13.3850   40.0910 O.2    79  ASP79      -0.2864
     49  CB        -6.1310   13.9940   42.5400 C.3    79  ASP79       0.1436
     50  CG        -5.9360   15.5460   42.4010 C.2    79  ASP79       0.3671
     51  OD1       -5.4140   16.0170   41.3650 O.co2  79  ASP79      -0.2456
     52  OD2       -6.2620   16.2730   43.3470 O.co2  79  ASP79      -0.2456
     53  N         -4.6420   21.9440   38.7110 N.3    83  TRP83      -0.1241
     54  CA        -3.9940   22.7130   39.7400 C.3    83  TRP83       0.1605
     55  C         -3.3010   23.9730   39.1240 C.2    83  TRP83       0.2264
     56  O         -3.0100   23.9970   37.9400 O.2    83  TRP83      -0.2867
     57  CB        -2.9400   21.9050   40.4920 C.3    83  TRP83       0.0550
     58  CG        -3.5640   20.7830   41.3180 C.ar   83  TRP83       0.0003
     59  CD1       -4.0740   19.5890   40.8450 C.ar   83  TRP83       0.0946
     60  CD2       -3.6910   20.7340   42.7300 C.ar   83  TRP83       0.0152
     61  NE1       -4.5690   18.8200   41.8940 N.ar   83  TRP83      -0.2442
     62  CE2       -4.3400   19.4980   43.0600 C.ar   83  TRP83       0.0810
     63  CE3       -3.4180   21.6280   43.7420 C.ar   83  TRP83       0.0012
     64  CZ2       -4.6400   19.1500   44.3700 C.ar   83  TRP83       0.0191
     65  CZ3       -3.6050   21.2510   45.0480 C.ar   83  TRP83       0.0001
     66  CH2       -4.2610   20.0270   45.3680 C.ar   83  TRP83       0.0015
     67  N          0.9040   25.1360   44.7600 N.3    98  TRP98      -0.1241
     68  CA        -0.1530   24.6070   43.9350 C.3    98  TRP98       0.1605
     69  C         -1.4880   24.6510   44.6280 C.2    98  TRP98       0.2264
     70  O         -1.6120   24.1810   45.7800 O.2    98  TRP98      -0.2867
     71  CB         0.2060   23.1680   43.4830 C.3    98  TRP98       0.0550
     72  CG         1.3620   23.0260   42.5340 C.ar   98  TRP98       0.0003
     73  CD1        2.5120   22.3610   42.8060 C.ar   98  TRP98       0.0946
     74  CD2        1.4890   23.4940   41.1870 C.ar   98  TRP98       0.0152
     75  NE1        3.3430   22.3780   41.7550 N.ar   98  TRP98      -0.2442
     76  CE2        2.7450   23.0490   40.7260 C.ar   98  TRP98       0.0810
     77  CE3        0.6430   24.1460   40.3000 C.ar   98  TRP98       0.0012
     78  CZ2        3.2240   23.3170   39.4540 C.ar   98  TRP98       0.0191
     79  CZ3        1.1200   24.4690   39.0310 C.ar   98  TRP98       0.0001
     80  CH2        2.4320   24.0350   38.6110 C.ar   98  TRP98       0.0015
@<TRIPOS>BOND
     1    33    31    1
     2    28    27    1
     3    28    29    1
     4    28    31    1
     5    29    30    2
     6    31    32    1
     7    26    24    1
     8    23    22    2
     9    22    21    1
    10    24    21    1
    11    24    25    1
    12    56    55    2
    13    34    35    1
    14    21    20    1
    15    80    79   ar
    16    80    78   ar
    17    37    36    2
    18    53    54    1
    19    79    77   ar
    20    55    54    1
    21    20    15   am
    22    35    36    1
    23    78    76   ar
    24    36    38   am
    25    54    57    1
    26    48    47    2
    27    47    46    1
    28    77    74   ar
    29    57    58    1
    30    38    39    1
    31    15    16    2
    32    15    14    1
    33    41    40    2
    34    76    74   ar
    35    76    75   ar
    36    39    40    1
    37    39    42    1
    38    18    17    1
    39    59    58   ar
    40    59    61   ar
    41    40    45   am
    42    74    72   ar
    43    45    46    1
    44    58    60   ar
    45    51    50   ar
    46    46    49    1
    47    14    17    1
    48    14    13    1
    49    12    11    2
    50    75    73   ar
    51    61    62   ar
    52    44    42    1
    53    17    19    1
    54    42    43    1
    55    50    49    1
    56    50    52   ar
    57    72    73   ar
    58    72    71    1
    59    11    13   am
    60    11    10    1
    61    60    62   ar
    62    60    63   ar
    63    62    64   ar
    64    71    68    1
    65    63    65   ar
    66    68    69    1
    67    68    67    1
    68    10     9    1
    69     9     3   am
    70    64    66   ar
    71     4     3    2
    72     1     2    1
    73     3     2    1
    74    69    70    2
    75     2     5    1
    76    65    66   ar
    77     5     6    1
    78     7     6    2
    79     6     8   am
