@<TRIPOS>MOLECULE
tmp/5c9rA00.pdb
 154 145 0 0 0
SMALL
GASTEIGER

@<TRIPOS>ATOM
      1  N         26.7720   79.9860   60.9330 N.3   117  VAL117     -0.1245
      2  CA        27.7510   79.8220   59.8600 C.3   117  VAL117      0.1561
      3  C         27.4390   78.5050   59.1590 C.2   117  VAL117      0.2260
      4  O         27.3040   77.4750   59.8060 O.2   117  VAL117     -0.2867
      5  CB        29.2180   79.7740   60.3900 C.3   117  VAL117      0.0252
      6  CG1       30.2090   79.8220   59.2370 C.3   117  VAL117      0.0019
      7  CG2       29.4910   80.9260   61.3610 C.3   117  VAL117      0.0019
      8  N         28.0370   75.9470   55.3850 N.3   119  PRO119     -0.2116
      9  CA        28.7720   75.7820   54.1220 C.3   119  PRO119      0.1372
     10  C         27.9140   76.1620   52.9270 C.2   119  PRO119      0.2244
     11  O         26.8240   75.6230   52.7480 O.2   119  PRO119     -0.2868
     12  CB        29.0990   74.2730   54.0870 C.3   119  PRO119      0.0268
     13  CG        28.2300   73.6560   55.1040 C.3   119  PRO119      0.0207
     14  CD        28.0640   74.7070   56.1730 C.3   119  PRO119      0.0892
     15  N         34.5310   75.6880   56.1710 N.3   274  SER274     -0.1217
     16  CA        33.5140   74.6370   56.2360 C.3   274  SER274      0.1889
     17  C         33.1910   74.0350   54.8600 C.2   274  SER274      0.2288
     18  O         32.3220   73.1820   54.7530 O.2   274  SER274     -0.2866
     19  CB        32.2300   75.1100   56.9390 C.3   274  SER274      0.2089
     20  OG        31.5150   76.0620   56.1730 O.3   274  SER274     -0.2183
     21  N         31.6110   84.5970   53.8180 N.3   331  ARG331     -0.1245
     22  CA        33.0140   84.4840   54.2020 C.3   331  ARG331      0.1563
     23  C         33.8190   84.0580   52.9950 C.2   331  ARG331      0.2260
     24  O         33.6900   82.9160   52.5450 O.2   331  ARG331     -0.2867
     25  CB        33.2510   83.4760   55.3390 C.3   331  ARG331      0.0307
     26  CG        34.7510   83.3450   55.7120 C.3   331  ARG331      0.0489
     27  CD        35.0030   82.7600   57.1370 C.3   331  ARG331      0.2205
     28  NE        34.7540   81.3160   57.2100 N.pl3 331  ARG331     -0.0865
     29  CZ        34.9900   80.5610   58.2870 C.cat 331  ARG331      0.5346
     30  NH1       35.4730   81.1050   59.3920 N.pl3 331  ARG331      0.1354
     31  NH2       34.7380   79.2620   58.2670 N.pl3 331  ARG331      0.1354
     32  N         38.1020   88.6080   61.0720 N.3   422  MET422     -0.1245
     33  CA        38.3920   87.5260   61.9950 C.3   422  MET422      0.1570
     34  C         39.7040   87.7910   62.6750 C.2   422  MET422      0.2261
     35  O         40.6940   88.1270   62.0200 O.2   422  MET422     -0.2867
     36  CB        38.4780   86.2430   61.2310 C.3   422  MET422      0.0387
     37  CG        37.3300   86.1940   60.3490 C.3   422  MET422      0.0595
     38  SD        36.1220   85.2190   61.1700 S.3   422  MET422     -0.1393
     39  CE        36.5830   83.7870   60.2010 C.3   422  MET422      0.0692
     40  N         42.0030   85.6880   64.3500 N.3   424  GLU424     -0.1245
     41  CA        42.2610   84.2800   64.5220 C.3   424  GLU424      0.1567
     42  C         43.7100   83.9490   64.1860 C.2   424  GLU424      0.2260
     43  O         44.0360   82.8040   63.9620 O.2   424  GLU424     -0.2867
     44  CB        41.2930   83.4500   63.6740 C.3   424  GLU424      0.0388
     45  CG        41.3920   83.7130   62.1610 C.3   424  GLU424      0.1160
     46  CD        40.3380   82.9450   61.3680 C.2   424  GLU424      0.3649
     47  OE1       40.0780   83.3010   60.2050 O.co2 424  GLU424     -0.2457
     48  OE2       39.7700   81.9740   61.8990 O.co2 424  GLU424     -0.2457
     49  N         38.0720   83.9280   66.2460 N.3   449  GLY449     -0.1210
     50  CA        38.1640   82.6110   65.6090 C.3   449  GLY449      0.1956
     51  C         39.1330   81.6560   66.3140 C.2   449  GLY449      0.2612
     52  O         40.2350   81.3910   65.8230 O.2   449  GLY449     -0.2717
     53  N         38.6970   81.0730   67.4340 N.am  450  PHE450     -0.1962
     54  CA        39.6060   80.3810   68.3730 C.3   450  PHE450      0.1771
     55  C         40.2870   79.0220   67.9950 C.2   450  PHE450      0.2619
     56  O         41.3890   78.7160   68.4810 O.2   450  PHE450     -0.2715
     57  CB        38.8990   80.2450   69.7060 C.3   450  PHE450      0.0574
     58  CG        37.8600   79.1520   69.7460 C.ar  450  PHE450     -0.0200
     59  CD1       36.5600   79.3880   69.2920 C.ar  450  PHE450     -0.0042
     60  CD2       38.1650   77.9070   70.2900 C.ar  450  PHE450     -0.0042
     61  CE1       35.5800   78.3940   69.3690 C.ar  450  PHE450     -0.0003
     62  CE2       37.2050   76.9130   70.3620 C.ar  450  PHE450     -0.0003
     63  CZ        35.9120   77.1490   69.8940 C.ar  450  PHE450     -0.0000
     64  N         39.6590   78.1960   67.1610 N.am  451  LEU451     -0.1963
     65  CA        40.3460   76.9870   66.7150 C.3   451  LEU451      0.1728
     66  C         41.5390   77.4020   65.8440 C.2   451  LEU451      0.2616
     67  O         42.6690   76.9860   66.0840 O.2   451  LEU451     -0.2715
     68  CB        39.4280   76.0480   65.9290 C.3   451  LEU451      0.0311
     69  CG        38.3640   75.2250   66.6470 C.3   451  LEU451      0.0022
     70  CD1       37.9150   74.0420   65.7930 C.3   451  LEU451      0.0001
     71  CD2       38.8450   74.7720   68.0100 C.3   451  LEU451      0.0001
     72  N         41.2760   78.2260   64.8320 N.am  452  ASP452     -0.1971
     73  CA        42.3350   78.7300   63.9910 C.3   452  ASP452      0.1709
     74  C         43.3840   79.4430   64.8310 C.2   452  ASP452      0.2293
     75  O         44.5790   79.2420   64.6150 O.2   452  ASP452     -0.2864
     76  CB        41.7980   79.7150   62.9640 C.3   452  ASP452      0.1436
     77  CG        41.6950   79.1040   61.5790 C.2   452  ASP452      0.3671
     78  OD1       42.5460   78.2570   61.2530 O.co2 452  ASP452     -0.2456
     79  OD2       40.7500   79.4500   60.8370 O.co2 452  ASP452     -0.2456
     80  N         33.2340   82.7100   69.3580 N.3   504  GLY504     -0.1210
     81  CA        33.3000   81.4930   68.5530 C.3   504  GLY504      0.1956
     82  C         32.1890   80.4590   68.6350 C.2   504  GLY504      0.2611
     83  O         31.2070   80.6080   69.3660 O.2   504  GLY504     -0.2717
     84  N         32.3830   79.3880   67.8760 N.am  505  MET505     -0.1979
     85  CA        31.3920   78.3360   67.6820 C.3   505  MET505      0.1605
     86  C         31.2440   77.3950   68.8750 C.2   505  MET505      0.2287
     87  O         32.2320   76.9890   69.4910 O.2   505  MET505     -0.2864
     88  CB        31.7660   77.4980   66.4470 C.3   505  MET505      0.0413
     89  CG        30.7600   76.3930   66.1240 C.3   505  MET505      0.0598
     90  SD        29.2200   77.0800   65.4590 S.3   505  MET505     -0.1393
     91  CE        29.6660   77.4900   63.7530 C.3   505  MET505      0.0692
     92  N         30.6750   73.7930   69.2030 N.3   507  THR507     -0.1218
     93  CA        30.8540   72.7070   68.2500 C.3   507  THR507      0.1862
     94  C         30.1210   71.4190   68.6140 C.2   507  THR507      0.2287
     95  O         29.9920   70.5320   67.7940 O.2   507  THR507     -0.2866
     96  CB        32.3330   72.3800   68.1110 C.3   507  THR507      0.1770
     97  OG1       32.8420   71.9840   69.3920 O.3   507  THR507     -0.2211
     98  CG2       33.0970   73.6120   67.6110 C.3   507  THR507      0.0375
     99  N         28.8020   82.3570   67.4940 N.3   531  TRP531     -0.1241
    100  CA        28.5050   81.3750   66.4630 C.3   531  TRP531      0.1605
    101  C         27.8060   80.1310   66.9870 C.2   531  TRP531      0.2264
    102  O         28.1790   79.5840   68.0310 O.2   531  TRP531     -0.2867
    103  CB        29.7790   80.9960   65.6970 C.3   531  TRP531      0.0550
    104  CG        30.2440   82.0850   64.7670 C.ar  531  TRP531      0.0003
    105  CD1       29.6530   83.2990   64.5740 C.ar  531  TRP531      0.0946
    106  CD2       31.3930   82.0580   63.9060 C.ar  531  TRP531      0.0152
    107  NE1       30.3610   84.0300   63.6520 N.ar  531  TRP531     -0.2442
    108  CE2       31.4280   83.2890   63.2210 C.ar  531  TRP531      0.0810
    109  CE3       32.3890   81.1130   63.6420 C.ar  531  TRP531      0.0012
    110  CZ2       32.4240   83.5970   62.2960 C.ar  531  TRP531      0.0191
    111  CZ3       33.3760   81.4290   62.7100 C.ar  531  TRP531      0.0001
    112  CH2       33.3860   82.6580   62.0590 C.ar  531  TRP531      0.0015
    113  N         25.9760   76.2840   65.4880 N.3   533  PRO533     -0.2116
    114  CA        26.2020   75.3620   64.3630 C.3   533  PRO533      0.1372
    115  C         24.9340   74.9120   63.6220 C.2   533  PRO533      0.2244
    116  O         25.0380   74.0870   62.7090 O.2   533  PRO533     -0.2868
    117  CB        26.8270   74.1540   65.0600 C.3   533  PRO533      0.0268
    118  CG        26.1030   74.1180   66.3940 C.3   533  PRO533      0.0207
    119  CD        25.9010   75.5660   66.7790 C.3   533  PRO533      0.0892
    120  N         32.2930   70.2290   56.4070 N.3   609  ALA609     -0.1245
    121  CA        31.6890   70.3700   57.7330 C.3   609  ALA609      0.1562
    122  C         30.4960   69.4340   57.8670 C.2   609  ALA609      0.2260
    123  O         29.6390   69.3730   56.9860 O.2   609  ALA609     -0.2867
    124  CB        31.2640   71.8150   58.0030 C.3   609  ALA609      0.0290
    125  N         30.7800   69.4690   65.3100 N.3   621  MET621     -0.1230
    126  CA        30.7230   70.1430   64.0270 C.3   621  MET621      0.1702
    127  C         31.8030   71.2220   63.9670 C.2   621  MET621      0.2592
    128  O         31.6050   72.3360   64.4650 O.2   621  MET621     -0.2718
    129  CB        29.3590   70.7980   63.8450 C.3   621  MET621      0.0401
    130  CG        28.4810   70.1790   62.7820 C.3   621  MET621      0.0596
    131  SD        28.1180   71.3880   61.4970 S.3   621  MET621     -0.1393
    132  CE        29.7500   72.0720   61.3220 C.3   621  MET621      0.0692
    133  N         32.9450   70.8880   63.3760 N.am  622  GLU622     -0.1966
    134  CA        34.0750   71.8110   63.3260 C.3   622  GLU622      0.1733
    135  C         34.4120   72.0820   61.8740 C.2   622  GLU622      0.2616
    136  O         34.1900   71.2170   61.0190 O.2   622  GLU622     -0.2715
    137  CB        35.3050   71.2070   64.0260 C.3   622  GLU622      0.0429
    138  CG        35.0420   70.7290   65.4620 C.3   622  GLU622      0.1163
    139  CD        36.2590   70.0680   66.1020 C.2   622  GLU622      0.3649
    140  OE1       36.7220   70.5760   67.1440 O.co2 622  GLU622     -0.2457
    141  OE2       36.7420   69.0360   65.5750 O.co2 622  GLU622     -0.2457
    142  N         34.9370   73.2710   61.5810 N.am  623  ASP623     -0.1971
    143  CA        35.4670   73.5090   60.2460 C.3   623  ASP623      0.1709
    144  C         36.9270   73.0430   60.1830 C.2   623  ASP623      0.2293
    145  O         37.4290   72.4330   61.1440 O.2   623  ASP623     -0.2864
    146  CB        35.2650   74.9600   59.7860 C.3   623  ASP623      0.1436
    147  CG        36.1640   75.9730   60.5160 C.2   623  ASP623      0.3671
    148  OD1       37.0820   75.5890   61.2730 O.co2 623  ASP623     -0.2456
    149  OD2       35.9660   77.1850   60.2920 O.co2 623  ASP623     -0.2456
    150  N         39.6820   74.3410   60.6390 N.3   625  ALA625     -0.1245
    151  CA        40.6090   74.8060   61.6730 C.3   625  ALA625      0.1562
    152  C         40.9410   73.7200   62.6920 C.2   625  ALA625      0.2260
    153  O         42.0000   73.7590   63.3250 O.2   625  ALA625     -0.2867
    154  CB        40.0760   76.0180   62.3720 C.3   625  ALA625      0.0290
@<TRIPOS>BOND
     1    24    23    2
     2    11    10    2
     3    10     9    1
     4    23    22    1
     5    21    22    1
     6    12     9    1
     7    12    13    1
     8     9     8    1
     9    22    25    1
    10    18    17    2
    11    17    16    1
    12    13    14    1
    13    25    26    1
    14     8    14    1
    15    26    27    1
    16    15    16    1
    17    20    19    1
    18    16    19    1
    19   120   121    1
    20   123   122    2
    21    27    28    1
    22    28    29    2
    23   121   122    1
    24   121   124    1
    25    31    29    1
    26    29    30    1
    27     3     4    2
    28     3     2    1
    29     6     5    1
    30   146   143    1
    31   146   147    1
    32     2     5    1
    33     2     1    1
    34   144   143    1
    35   144   145    2
    36    39    38    1
    37    47    46   ar
    38   143   142    1
    39   149   147   ar
    40    37    38    1
    41    37    36    1
    42     5     7    1
    43   147   148   ar
    44   150   151    1
    45    79    77   ar
    46   136   135    2
    47    32    33    1
    48    36    33    1
    49    78    77   ar
    50   132   131    1
    51    46    48   ar
    52    46    45    1
    53   131   130    1
    54    77    76    1
    55   142   135   am
    56   151   154    1
    57   151   152    1
    58   135   134    1
    59    33    34    1
    60    35    34    2
    61   112   110   ar
    62   112   111   ar
    63    45    44    1
    64   110   108   ar
    65   152   153    2
    66   116   115    2
    67   111   109   ar
    68   130   129    1
    69    76    73    1
    70   108   107   ar
    71   108   106   ar
    72   134   133    1
    73   134   137    1
    74   133   127   am
    75   115   114    1
    76   109   106   ar
    77   107   105   ar
    78    44    41    1
    79    91    90    1
    80   129   126    1
    81   106   104   ar
    82    43    42    2
    83   127   126    1
    84   127   128    2
    85    73    74    1
    86    73    72    1
    87   137   138    1
    88   126   125    1
    89    42    41    1
    90    40    41    1
    91   114   117    1
    92   114   113    1
    93   105   104   ar
    94    75    74    2
    95   104   103    1
    96    72    66   am
    97   117   118    1
    98    90    89    1
    99   138   139    1
   100   113   119    1
   101   141   139   ar
   102    50    49    1
   103    50    51    1
   104   103   100    1
   105    70    69    1
   106    52    51    2
   107    66    67    2
   108    66    65    1
   109    68    69    1
   110    68    65    1
   111   139   140   ar
   112    89    88    1
   113    51    53   am
   114   118   119    1
   115    88    85    1
   116   100   101    1
   117   100    99    1
   118    69    71    1
   119    65    64    1
   120   101   102    2
   121    64    55   am
   122    53    54    1
   123    98    96    1
   124    85    84    1
   125    85    86    1
   126    95    94    2
   127    84    82   am
   128    55    54    1
   129    55    56    2
   130    96    93    1
   131    96    97    1
   132    93    94    1
   133    93    92    1
   134    54    57    1
   135    81    82    1
   136    81    80    1
   137    82    83    2
   138    86    87    2
   139    59    61   ar
   140    59    58   ar
   141    61    63   ar
   142    57    58    1
   143    58    60   ar
   144    63    62   ar
   145    60    62   ar
