@<TRIPOS>MOLECULE
tmp/5c9uA00.pdb
 150 141 0 0 0
SMALL
GASTEIGER

@<TRIPOS>ATOM
      1  N         26.7970   80.3610   61.1470 N.3   117  VAL117     -0.1245
      2  CA        27.7710   80.2120   60.0590 C.3   117  VAL117      0.1561
      3  C         27.4780   78.8890   59.3730 C.2   117  VAL117      0.2260
      4  O         27.3410   77.8890   60.0520 O.2   117  VAL117     -0.2867
      5  CB        29.2380   80.1390   60.5720 C.3   117  VAL117      0.0252
      6  CG1       30.2290   80.0840   59.3930 C.3   117  VAL117      0.0019
      7  CG2       29.5740   81.3110   61.5050 C.3   117  VAL117      0.0019
      8  N         28.1410   76.2930   55.5520 N.3   119  PRO119     -0.2116
      9  CA        28.8930   76.1240   54.3030 C.3   119  PRO119      0.1372
     10  C         28.0410   76.5070   53.1030 C.2   119  PRO119      0.2244
     11  O         26.9380   75.9720   52.9270 O.2   119  PRO119     -0.2868
     12  CB        29.1970   74.6140   54.2760 C.3   119  PRO119      0.0268
     13  CG        28.1910   73.9960   55.1430 C.3   119  PRO119      0.0207
     14  CD        27.9450   75.0070   56.2460 C.3   119  PRO119      0.0892
     15  N         34.6850   76.1040   56.2960 N.3   274  SER274     -0.1217
     16  CA        33.6670   75.0580   56.3890 C.3   274  SER274      0.1889
     17  C         33.3330   74.3770   55.0440 C.2   274  SER274      0.2288
     18  O         32.5000   73.4780   55.0050 O.2   274  SER274     -0.2866
     19  CB        32.3940   75.5640   57.0790 C.3   274  SER274      0.2089
     20  OG        31.6130   76.3470   56.2020 O.3   274  SER274     -0.2183
     21  N         31.7300   84.8810   53.8510 N.3   328  ARG328     -0.1245
     22  CA        33.1330   84.7840   54.2770 C.3   328  ARG328      0.1563
     23  C         33.9480   84.3620   53.0790 C.2   328  ARG328      0.2260
     24  O         33.8420   83.2210   52.6410 O.2   328  ARG328     -0.2867
     25  CB        33.3510   83.8030   55.4510 C.3   328  ARG328      0.0307
     26  CG        34.8530   83.7070   55.8720 C.3   328  ARG328      0.0489
     27  CD        35.0790   83.1480   57.2930 C.3   328  ARG328      0.2205
     28  NE        34.8210   81.7140   57.4210 N.pl3 328  ARG328     -0.0865
     29  CZ        35.0950   81.0040   58.5230 C.cat 328  ARG328      0.5346
     30  NH1       35.6440   81.5880   59.5750 N.pl3 328  ARG328      0.1354
     31  NH2       34.8400   79.7190   58.5730 N.pl3 328  ARG328      0.1354
     32  N         38.1740   88.9100   61.0930 N.3   419  MET419     -0.1245
     33  CA        38.5190   87.8310   62.0000 C.3   419  MET419      0.1570
     34  C         39.8030   88.2070   62.7390 C.2   419  MET419      0.2261
     35  O         40.8100   88.5400   62.1030 O.2   419  MET419     -0.2867
     36  CB        38.7250   86.5200   61.2300 C.3   419  MET419      0.0387
     37  CG        37.4900   86.0210   60.4760 C.3   419  MET419      0.0595
     38  SD        35.9980   85.7920   61.4700 S.3   419  MET419     -0.1393
     39  CE        36.5910   84.6710   62.7500 C.3   419  MET419      0.0692
     40  N         42.1380   86.2340   64.4280 N.3   421  GLU421     -0.1245
     41  CA        42.3870   84.8180   64.5120 C.3   421  GLU421      0.1567
     42  C         43.8290   84.4390   64.1980 C.2   421  GLU421      0.2260
     43  O         44.1260   83.2700   63.9490 O.2   421  GLU421     -0.2867
     44  CB        41.3820   84.0190   63.6640 C.3   421  GLU421      0.0388
     45  CG        41.4620   84.2270   62.1350 C.3   421  GLU421      0.1160
     46  CD        40.4180   83.3990   61.3910 C.2   421  GLU421      0.3649
     47  OE1       40.1850   83.6630   60.1970 O.co2 421  GLU421     -0.2457
     48  OE2       39.8100   82.5010   61.9970 O.co2 421  GLU421     -0.2457
     49  N         38.2120   84.4370   66.2130 N.3   446  GLY446     -0.1210
     50  CA        38.2050   83.0950   65.6590 C.3   446  GLY446      0.1956
     51  C         39.2040   82.2460   66.4510 C.2   446  GLY446      0.2612
     52  O         40.3350   82.0830   66.0300 O.2   446  GLY446     -0.2717
     53  N         38.7780   81.7050   67.5930 N.am  447  PHE447     -0.1962
     54  CA        39.7130   81.1260   68.5570 C.3   447  PHE447      0.1771
     55  C         40.3980   79.8180   68.1010 C.2   447  PHE447      0.2619
     56  O         41.4610   79.4810   68.5910 O.2   447  PHE447     -0.2715
     57  CB        39.0230   80.9350   69.9200 C.3   447  PHE447      0.0574
     58  CG        38.1150   79.7460   69.9780 C.ar  447  PHE447     -0.0200
     59  CD1       36.8780   79.7660   69.3570 C.ar  447  PHE447     -0.0042
     60  CD2       38.4910   78.6020   70.6680 C.ar  447  PHE447     -0.0042
     61  CE1       36.0420   78.6680   69.4050 C.ar  447  PHE447     -0.0003
     62  CE2       37.6530   77.5030   70.7350 C.ar  447  PHE447     -0.0003
     63  CZ        36.4290   77.5320   70.0970 C.ar  447  PHE447     -0.0000
     64  N         39.8010   79.0910   67.1680 N.am  448  LEU448     -0.1963
     65  CA        40.3960   77.8370   66.7300 C.3   448  LEU448      0.1728
     66  C         41.6090   78.1270   65.8590 C.2   448  LEU448      0.2616
     67  O         42.7000   77.6590   66.1460 O.2   448  LEU448     -0.2715
     68  CB        39.3920   76.9580   65.9910 C.3   448  LEU448      0.0311
     69  CG        38.1940   76.4680   66.8070 C.3   448  LEU448      0.0022
     70  CD1       37.2940   75.6680   65.8890 C.3   448  LEU448      0.0001
     71  CD2       38.6420   75.6330   68.0010 C.3   448  LEU448      0.0001
     72  N         41.4260   78.9290   64.8080 N.am  449  ASP449     -0.1971
     73  CA        42.5830   79.3660   64.0130 C.3   449  ASP449      0.1709
     74  C         43.6410   80.0370   64.8850 C.2   449  ASP449      0.2293
     75  O         44.8410   79.8360   64.6840 O.2   449  ASP449     -0.2864
     76  CB        42.1650   80.3430   62.9090 C.3   449  ASP449      0.1436
     77  CG        41.9570   79.6560   61.5640 C.2   449  ASP449      0.3671
     78  OD1       42.7970   78.8090   61.1810 O.co2 449  ASP449     -0.2456
     79  OD2       40.9480   79.9570   60.8970 O.co2 449  ASP449     -0.2456
     80  N         32.5690   79.8500   68.0350 N.3   502  MET502     -0.1245
     81  CA        31.5850   78.8040   67.7970 C.3   502  MET502      0.1570
     82  C         31.4520   77.8100   68.9390 C.2   502  MET502      0.2261
     83  O         32.4450   77.3850   69.5350 O.2   502  MET502     -0.2867
     84  CB        31.9550   78.0440   66.5130 C.3   502  MET502      0.0387
     85  CG        31.0310   76.9000   66.1690 C.3   502  MET502      0.0595
     86  SD        29.3960   77.4220   65.6030 S.3   502  MET502     -0.1393
     87  CE        29.7690   78.0870   63.9670 C.3   502  MET502      0.0692
     88  N         30.8510   74.1110   69.4310 N.3   504  THR504     -0.1218
     89  CA        31.0790   73.0170   68.4900 C.3   504  THR504      0.1862
     90  C         30.3370   71.7130   68.8190 C.2   504  THR504      0.2287
     91  O         30.2010   70.8560   67.9570 O.2   504  THR504     -0.2866
     92  CB        32.5820   72.7160   68.3900 C.3   504  THR504      0.1770
     93  OG1       33.0730   72.3850   69.6910 O.3   504  THR504     -0.2211
     94  CG2       33.3370   73.9450   67.8720 C.3   504  THR504      0.0375
     95  N         29.0100   82.8530   67.5900 N.3   528  TRP528     -0.1241
     96  CA        28.6700   81.8740   66.5580 C.3   528  TRP528      0.1605
     97  C         27.9750   80.6150   67.0650 C.2   528  TRP528      0.2264
     98  O         28.3490   80.0570   68.1080 O.2   528  TRP528     -0.2867
     99  CB        29.9240   81.5050   65.7530 C.3   528  TRP528      0.0550
    100  CG        30.4140   82.6130   64.8700 C.ar  528  TRP528      0.0003
    101  CD1       29.8950   83.8500   64.7640 C.ar  528  TRP528      0.0946
    102  CD2       31.5270   82.5630   63.9630 C.ar  528  TRP528      0.0152
    103  NE1       30.6030   84.5920   63.8570 N.ar  528  TRP528     -0.2442
    104  CE2       31.6080   83.8180   63.3410 C.ar  528  TRP528      0.0810
    105  CE3       32.4480   81.5720   63.6110 C.ar  528  TRP528      0.0012
    106  CZ2       32.5820   84.1200   62.3930 C.ar  528  TRP528      0.0191
    107  CZ3       33.4070   81.8670   62.6600 C.ar  528  TRP528      0.0001
    108  CH2       33.4710   83.1300   62.0670 C.ar  528  TRP528      0.0015
    109  N         26.1890   76.7170   65.5470 N.3   530  PRO530     -0.2116
    110  CA        26.3480   75.7420   64.4650 C.3   530  PRO530      0.1372
    111  C         25.0740   75.4200   63.6910 C.2   530  PRO530      0.2244
    112  O         25.1720   74.7960   62.6340 O.2   530  PRO530     -0.2868
    113  CB        26.8150   74.4910   65.2140 C.3   530  PRO530      0.0268
    114  CG        26.1580   74.6020   66.5400 C.3   530  PRO530      0.0207
    115  CD        26.2400   76.0660   66.8760 C.3   530  PRO530      0.0892
    116  N         32.6600   70.5350   56.5340 N.3   606  ALA606     -0.1245
    117  CA        32.0800   70.6760   57.8680 C.3   606  ALA606      0.1562
    118  C         30.8740   69.7500   58.0270 C.2   606  ALA606      0.2260
    119  O         30.0670   69.6170   57.1150 O.2   606  ALA606     -0.2867
    120  CB        31.6640   72.1160   58.1440 C.3   606  ALA606      0.0290
    121  N         30.9090   69.7590   65.5350 N.3   618  MET618     -0.1230
    122  CA        30.8870   70.3980   64.2220 C.3   618  MET618      0.1702
    123  C         31.9170   71.5030   64.2210 C.2   618  MET618      0.2592
    124  O         31.7080   72.5740   64.8070 O.2   618  MET618     -0.2718
    125  CB        29.5050   70.9470   63.8470 C.3   618  MET618      0.0401
    126  CG        29.4830   71.6300   62.4540 C.3   618  MET618      0.0596
    127  SD        27.8350   71.7530   61.7080 S.3   618  MET618     -0.1393
    128  CE        28.2030   72.5210   60.1210 C.3   618  MET618      0.0692
    129  N         33.0520   71.2230   63.5930 N.am  619  GLU619     -0.1966
    130  CA        34.1470   72.1740   63.5490 C.3   619  GLU619      0.1733
    131  C         34.4890   72.4580   62.0930 C.2   619  GLU619      0.2616
    132  O         34.1960   71.6340   61.2220 O.2   619  GLU619     -0.2715
    133  CB        35.3620   71.5820   64.2740 C.3   619  GLU619      0.0429
    134  CG        35.0160   71.0250   65.6460 C.3   619  GLU619      0.1163
    135  CD        36.1600   70.2650   66.3030 C.2   619  GLU619      0.3649
    136  OE1       36.6360   69.2560   65.7300 O.co2 619  GLU619     -0.2457
    137  OE2       36.5670   70.6700   67.4090 O.co2 619  GLU619     -0.2457
    138  N         35.0980   73.6140   61.8180 N.am  620  ASP620     -0.1971
    139  CA        35.6380   73.8520   60.4790 C.3   620  ASP620      0.1709
    140  C         37.1010   73.3830   60.3870 C.2   620  ASP620      0.2293
    141  O         37.5920   72.6860   61.2880 O.2   620  ASP620     -0.2864
    142  CB        35.4520   75.3090   60.0290 C.3   620  ASP620      0.1436
    143  CG        36.3060   76.3060   60.8150 C.2   620  ASP620      0.3671
    144  OD1       37.2070   75.9000   61.5880 O.co2 620  ASP620     -0.2456
    145  OD2       36.0770   77.5330   60.6400 O.co2 620  ASP620     -0.2456
    146  N         39.8530   74.7890   60.8880 N.3   622  ALA622     -0.1245
    147  CA        40.7620   75.2690   61.9210 C.3   622  ALA622      0.1562
    148  C         41.0560   74.2120   63.0080 C.2   622  ALA622      0.2260
    149  O         42.1270   74.2480   63.6390 O.2   622  ALA622     -0.2867
    150  CB        40.2680   76.5760   62.5390 C.3   622  ALA622      0.0290
@<TRIPOS>BOND
     1    24    23    2
     2    11    10    2
     3    23    22    1
     4    10     9    1
     5    21    22    1
     6    12     9    1
     7    12    13    1
     8    22    25    1
     9     9     8    1
    10    18    17    2
    11    17    16    1
    12    13    14    1
    13    25    26    1
    14     8    14    1
    15    26    27    1
    16    20    19    1
    17    15    16    1
    18    16    19    1
    19   116   117    1
    20   119   118    2
    21    27    28    1
    22    28    29    2
    23   117   118    1
    24   117   120    1
    25    29    31    1
    26    29    30    1
    27     3     4    2
    28     3     2    1
    29     6     5    1
    30   142   139    1
    31   142   143    1
    32     2     5    1
    33     2     1    1
    34   128   127    1
    35    47    46   ar
    36   140   139    1
    37   140   141    2
    38    37    36    1
    39    37    38    1
    40   139   138    1
    41     5     7    1
    42   145   143   ar
    43   143   144   ar
    44   146   147    1
    45    79    77   ar
    46    32    33    1
    47    78    77   ar
    48   132   131    2
    49    36    33    1
    50    46    48   ar
    51    46    45    1
    52    38    39    1
    53    77    76    1
    54   127   126    1
    55   138   131   am
    56   147   150    1
    57   147   148    1
    58    33    34    1
    59   108   106   ar
    60   108   107   ar
    61   131   130    1
    62    35    34    2
    63    45    44    1
    64   106   104   ar
    65   126   125    1
    66   112   111    2
    67   107   105   ar
    68    76    73    1
    69   148   149    2
    70   104   103   ar
    71   104   102   ar
    72   130   129    1
    73   130   133    1
    74   129   123   am
    75   105   102   ar
    76    44    41    1
    77   111   110    1
    78   125   122    1
    79   103   101   ar
    80    43    42    2
    81   102   100   ar
    82    87    86    1
    83    73    72    1
    84    73    74    1
    85    42    41    1
    86   123   122    1
    87   123   124    2
    88   122   121    1
    89   133   134    1
    90    40    41    1
    91   110   113    1
    92   110   109    1
    93    75    74    2
    94   101   100   ar
    95    72    66   am
    96   100    99    1
    97   113   114    1
    98   109   115    1
    99    86    85    1
   100   134   135    1
   101    50    49    1
   102    50    51    1
   103   136   135   ar
   104    99    96    1
   105    66    67    2
   106    66    65    1
   107    70    69    1
   108    68    65    1
   109    68    69    1
   110    52    51    2
   111    85    84    1
   112   135   137   ar
   113    51    53   am
   114    84    81    1
   115   114   115    1
   116    96    97    1
   117    96    95    1
   118    65    64    1
   119    69    71    1
   120    97    98    2
   121    64    55   am
   122    53    54    1
   123    81    80    1
   124    81    82    1
   125    94    92    1
   126    91    90    2
   127    55    54    1
   128    55    56    2
   129    92    89    1
   130    92    93    1
   131    89    90    1
   132    89    88    1
   133    54    57    1
   134    82    83    2
   135    59    61   ar
   136    59    58   ar
   137    61    63   ar
   138    57    58    1
   139    58    60   ar
   140    63    62   ar
   141    60    62   ar
