@<TRIPOS>MOLECULE
tmp/5c9wA00.pdb
 174 166 0 0 0
SMALL
GASTEIGER

@<TRIPOS>ATOM
      1  N         26.3580   80.0600   61.0600 N.3   116  VAL116     -0.1231
      2  CA        27.3230   79.8530   59.9820 C.3   116  VAL116      0.1692
      3  C         27.1390   78.4820   59.3340 C.2   116  VAL116      0.2592
      4  O         27.1370   77.4720   60.0200 O.2   116  VAL116     -0.2718
      5  CB        28.7760   79.9580   60.4930 C.3   116  VAL116      0.0266
      6  CG1       29.7720   79.8130   59.3260 C.3   116  VAL116      0.0020
      7  CG2       28.9840   81.2710   61.2200 C.3   116  VAL116      0.0020
      8  N         26.9900   78.4540   58.0130 N.am  117  VAL117     -0.1966
      9  CA        26.7330   77.2080   57.3040 C.3   117  VAL117      0.1712
     10  C         27.5010   77.1360   55.9870 C.2   117  VAL117      0.2458
     11  O         27.8280   78.1710   55.3910 O.2   117  VAL117     -0.2730
     12  CB        25.2240   77.0040   57.0170 C.3   117  VAL117      0.0289
     13  CG1       24.4410   76.8140   58.3150 C.3   117  VAL117      0.0023
     14  CG2       24.6790   78.1590   56.1850 C.3   117  VAL117      0.0023
     15  N         27.7910   75.9030   55.5340 N.am  118  PRO118     -0.2727
     16  CA        28.4730   75.6690   54.2580 C.3   118  PRO118      0.1402
     17  C         27.6100   76.0500   53.0580 C.2   118  PRO118      0.2269
     18  O         26.5050   75.5370   52.8870 O.2   118  PRO118     -0.2865
     19  CB        28.7340   74.1540   54.2740 C.3   118  PRO118      0.0296
     20  CG        27.7380   73.6020   55.2460 C.3   118  PRO118      0.0237
     21  CD        27.6350   74.6560   56.3070 C.3   118  PRO118      0.0939
     22  N         34.5760   79.2320   52.9010 N.3   271  GLU271     -0.1231
     23  CA        35.9060   78.9110   53.4100 C.3   271  GLU271      0.1699
     24  C         35.9540   77.5990   54.2180 C.2   271  GLU271      0.2592
     25  O         35.7090   76.5280   53.6790 O.2   271  GLU271     -0.2718
     26  CB        36.4890   80.0940   54.2010 C.3   271  GLU271      0.0402
     27  CG        38.0110   80.0320   54.4050 C.3   271  GLU271      0.1161
     28  CD        38.3980   80.2770   55.8570 C.2   271  GLU271      0.3649
     29  OE1       37.5110   80.1620   56.7380 O.co2 271  GLU271     -0.2457
     30  OE2       39.5790   80.5950   56.1190 O.co2 271  GLU271     -0.2457
     31  N         36.2550   77.6840   55.5090 N.am  272  ASP272     -0.1960
     32  CA        36.6450   76.4890   56.2680 C.3   272  ASP272      0.1840
     33  C         35.5810   75.3860   56.4310 C.2   272  ASP272      0.2622
     34  O         35.9240   74.2530   56.7960 O.2   272  ASP272     -0.2715
     35  CB        37.2210   76.8780   57.6390 C.3   272  ASP272      0.1450
     36  CG        38.7340   77.0590   57.6150 C.2   272  ASP272      0.3671
     37  OD1       39.3040   77.1170   56.5040 O.co2 272  ASP272     -0.2456
     38  OD2       39.3640   77.1420   58.7050 O.co2 272  ASP272     -0.2456
     39  N         34.3100   75.6990   56.1710 N.am  273  SER273     -0.1950
     40  CA        33.2780   74.6700   56.2730 C.3   273  SER273      0.1924
     41  C         32.9190   74.0070   54.9370 C.2   273  SER273      0.2314
     42  O         32.0090   73.1860   54.8750 O.2   273  SER273     -0.2863
     43  CB        32.0190   75.2040   56.9680 C.3   273  SER273      0.2116
     44  OG        31.3960   76.2210   56.2090 O.3   273  SER273     -0.2180
     45  N         31.2040   84.4730   53.5910 N.3   327  ARG327     -0.1245
     46  CA        32.6120   84.3990   53.9670 C.3   327  ARG327      0.1563
     47  C         33.4250   83.9290   52.7770 C.2   327  ARG327      0.2260
     48  O         33.2830   82.7860   52.3480 O.2   327  ARG327     -0.2867
     49  CB        32.8550   83.4830   55.1800 C.3   327  ARG327      0.0307
     50  CG        34.3420   83.4180   55.5690 C.3   327  ARG327      0.0489
     51  CD        34.5650   83.0100   57.0460 C.3   327  ARG327      0.2205
     52  NE        34.3570   81.5770   57.2770 N.pl3 327  ARG327     -0.0865
     53  CZ        34.7470   80.9340   58.3760 C.cat 327  ARG327      0.5346
     54  NH1       35.3750   81.5840   59.3550 N.pl3 327  ARG327      0.1354
     55  NH2       34.5170   79.6400   58.5000 N.pl3 327  ARG327      0.1354
     56  N         37.7200   88.5740   60.8240 N.3   418  MET418     -0.1245
     57  CA        38.0320   87.5120   61.7780 C.3   418  MET418      0.1570
     58  C         39.3310   87.8510   62.4920 C.2   418  MET418      0.2261
     59  O         40.3510   88.1320   61.8510 O.2   418  MET418     -0.2867
     60  CB        38.1710   86.1420   61.1030 C.3   418  MET418      0.0387
     61  CG        36.9780   85.6910   60.2850 C.3   418  MET418      0.0595
     62  SD        35.4740   85.4110   61.2030 S.3   418  MET418     -0.1393
     63  CE        36.0210   84.2430   62.4730 C.3   418  MET418      0.0692
     64  N         41.6400   85.8720   64.1530 N.3   420  GLU420     -0.1245
     65  CA        41.8890   84.4500   64.3000 C.3   420  GLU420      0.1567
     66  C         43.3330   84.0770   63.9900 C.2   420  GLU420      0.2260
     67  O         43.6330   82.9220   63.7490 O.2   420  GLU420     -0.2867
     68  CB        40.9130   83.6320   63.4530 C.3   420  GLU420      0.0388
     69  CG        41.0290   83.7930   61.9340 C.3   420  GLU420      0.1160
     70  CD        39.9550   82.9810   61.2210 C.2   420  GLU420      0.3649
     71  OE1       39.6690   83.2580   60.0380 O.co2 420  GLU420     -0.2457
     72  OE2       39.3690   82.0790   61.8670 O.co2 420  GLU420     -0.2457
     73  N         37.6930   84.0770   66.0120 N.3   445  GLY445     -0.1210
     74  CA        37.7500   82.7280   65.4660 C.3   445  GLY445      0.1956
     75  C         38.7500   81.9130   66.2810 C.2   445  GLY445      0.2612
     76  O         39.8990   81.7530   65.8650 O.2   445  GLY445     -0.2717
     77  N         38.3220   81.3900   67.4330 N.am  446  PHE446     -0.1962
     78  CA        39.2780   80.8400   68.4120 C.3   446  PHE446      0.1771
     79  C         40.0170   79.5540   67.9820 C.2   446  PHE446      0.2619
     80  O         41.1350   79.3000   68.4250 O.2   446  PHE446     -0.2715
     81  CB        38.6190   80.6450   69.7870 C.3   446  PHE446      0.0574
     82  CG        37.6690   79.4780   69.8460 C.ar  446  PHE446     -0.0200
     83  CD1       36.4200   79.5470   69.2400 C.ar  446  PHE446     -0.0042
     84  CD2       38.0240   78.3080   70.5060 C.ar  446  PHE446     -0.0042
     85  CE1       35.5460   78.4720   69.2830 C.ar  446  PHE446     -0.0003
     86  CE2       37.1490   77.2330   70.5620 C.ar  446  PHE446     -0.0003
     87  CZ        35.9090   77.3160   69.9410 C.ar  446  PHE446     -0.0000
     88  N         39.4010   78.7450   67.1290 N.am  447  LEU447     -0.1963
     89  CA        40.0550   77.5250   66.6850 C.3   447  LEU447      0.1728
     90  C         41.2540   77.7960   65.7670 C.2   447  LEU447      0.2616
     91  O         42.3410   77.2670   66.0000 O.2   447  LEU447     -0.2715
     92  CB        39.0540   76.5810   66.0410 C.3   447  LEU447      0.0311
     93  CG        37.9190   76.2790   67.0240 C.3   447  LEU447      0.0022
     94  CD1       36.6600   75.8340   66.2910 C.3   447  LEU447      0.0001
     95  CD2       38.3420   75.2490   68.0510 C.3   447  LEU447      0.0001
     96  N         41.0660   78.6160   64.7360 N.am  448  ASP448     -0.1971
     97  CA        42.1910   79.0240   63.8840 C.3   448  ASP448      0.1709
     98  C         43.2530   79.7350   64.7150 C.2   448  ASP448      0.2293
     99  O         44.4490   79.5850   64.4760 O.2   448  ASP448     -0.2864
    100  CB        41.7260   79.9720   62.7880 C.3   448  ASP448      0.1436
    101  CG        41.4780   79.2740   61.4570 C.2   448  ASP448      0.3671
    102  OD1       42.2670   78.3940   61.0600 O.co2 448  ASP448     -0.2456
    103  OD2       40.4870   79.6310   60.7930 O.co2 448  ASP448     -0.2456
    104  N         32.2660   79.6380   67.8200 N.3   501  MET501     -0.1245
    105  CA        31.2810   78.6020   67.5900 C.3   501  MET501      0.1570
    106  C         31.1400   77.6120   68.7330 C.2   501  MET501      0.2261
    107  O         32.1380   77.1730   69.3080 O.2   501  MET501     -0.2867
    108  CB        31.6520   77.8420   66.3200 C.3   501  MET501      0.0387
    109  CG        30.7110   76.7110   65.9840 C.3   501  MET501      0.0595
    110  SD        29.1290   77.3060   65.3490 S.3   501  MET501     -0.1393
    111  CE        29.5710   77.8390   63.6910 C.3   501  MET501      0.0692
    112  N         30.4760   73.9390   69.1410 N.3   503  THR503     -0.1218
    113  CA        30.5880   72.8130   68.2240 C.3   503  THR503      0.1862
    114  C         29.8890   71.5200   68.6660 C.2   503  THR503      0.2287
    115  O         29.7310   70.5960   67.8640 O.2   503  THR503     -0.2866
    116  CB        32.0590   72.4740   67.9870 C.3   503  THR503      0.1770
    117  OG1       32.6600   72.1310   69.2390 O.3   503  THR503     -0.2211
    118  CG2       32.7840   73.6640   67.3790 C.3   503  THR503      0.0375
    119  N         28.5640   82.5800   67.4500 N.3   527  TRP527     -0.1241
    120  CA        28.2550   81.6390   66.3860 C.3   527  TRP527      0.1605
    121  C         27.5780   80.3660   66.8590 C.2   527  TRP527      0.2264
    122  O         27.8980   79.8310   67.9270 O.2   527  TRP527     -0.2867
    123  CB        29.5160   81.2990   65.5980 C.3   527  TRP527      0.0550
    124  CG        29.9810   82.4190   64.7060 C.ar  527  TRP527      0.0003
    125  CD1       29.4860   83.6880   64.6530 C.ar  527  TRP527      0.0946
    126  CD2       31.0240   82.3500   63.7240 C.ar  527  TRP527      0.0152
    127  NE1       30.1650   84.4180   63.7030 N.ar  527  TRP527     -0.2442
    128  CE2       31.1070   83.6130   63.1130 C.ar  527  TRP527      0.0810
    129  CE3       31.8810   81.3320   63.2880 C.ar  527  TRP527      0.0012
    130  CZ2       32.0300   83.8940   62.1010 C.ar  527  TRP527      0.0191
    131  CZ3       32.7980   81.6110   62.2880 C.ar  527  TRP527      0.0001
    132  CH2       32.8630   82.8830   61.7040 C.ar  527  TRP527      0.0015
    133  N         25.9390   76.4980   64.9890 N.3   529  PRO529     -0.2116
    134  CA        26.0710   75.6840   63.7790 C.3   529  PRO529      0.1372
    135  C         24.7440   75.2640   63.1580 C.2   529  PRO529      0.2244
    136  O         24.7590   74.6670   62.0810 O.2   529  PRO529     -0.2868
    137  CB        26.7900   74.4390   64.3050 C.3   529  PRO529      0.0268
    138  CG        26.2270   74.2780   65.6680 C.3   529  PRO529      0.0207
    139  CD        26.0120   75.6710   66.2070 C.3   529  PRO529      0.0892
    140  N         32.0720   70.3230   56.3870 N.3   605  ALA605     -0.1245
    141  CA        31.5060   70.4230   57.7260 C.3   605  ALA605      0.1562
    142  C         30.3220   69.4860   57.8460 C.2   605  ALA605      0.2260
    143  O         29.5420   69.3400   56.9040 O.2   605  ALA605     -0.2867
    144  CB        31.0940   71.8480   58.0450 C.3   605  ALA605      0.0290
    145  N         30.5800   69.4610   65.4790 N.3   617  MET617     -0.1230
    146  CA        30.4200   70.1300   64.2130 C.3   617  MET617      0.1702
    147  C         31.4800   71.1950   64.1160 C.2   617  MET617      0.2592
    148  O         31.2690   72.3290   64.5370 O.2   617  MET617     -0.2718
    149  CB        29.0380   70.7590   64.1170 C.3   617  MET617      0.0401
    150  CG        28.1310   70.0400   63.1650 C.3   617  MET617      0.0596
    151  SD        28.3820   70.6350   61.4830 S.3   617  MET617     -0.1393
    152  CE        27.0260   71.8090   61.3680 C.3   617  MET617      0.0692
    153  N         32.6290   70.8180   63.5760 N.am  618  GLU618     -0.1966
    154  CA        33.7420   71.7370   63.4710 C.3   618  GLU618      0.1733
    155  C         34.0700   71.9620   62.0010 C.2   618  GLU618      0.2616
    156  O         33.6750   71.1770   61.1400 O.2   618  GLU618     -0.2715
    157  CB        34.9560   71.1560   64.2000 C.3   618  GLU618      0.0429
    158  CG        34.5830   70.3560   65.4400 C.3   618  GLU618      0.1163
    159  CD        35.7940   69.8360   66.1870 C.2   618  GLU618      0.3649
    160  OE1       36.4040   68.8370   65.7310 O.co2 618  GLU618     -0.2457
    161  OE2       36.1320   70.4340   67.2300 O.co2 618  GLU618     -0.2457
    162  N         34.7860   73.0390   61.7070 N.am  619  ASP619     -0.1971
    163  CA        35.2900   73.2260   60.3570 C.3   619  ASP619      0.1709
    164  C         36.7660   72.8440   60.2840 C.2   619  ASP619      0.2293
    165  O         37.3090   72.2130   61.2040 O.2   619  ASP619     -0.2864
    166  CB        35.0210   74.6490   59.8460 C.3   619  ASP619      0.1436
    167  CG        35.7840   75.7250   60.6240 C.2   619  ASP619      0.3671
    168  OD1       36.7310   75.3860   61.3670 O.co2 619  ASP619     -0.2456
    169  OD2       35.4470   76.9280   60.4710 O.co2 619  ASP619     -0.2456
    170  N         39.4400   74.3520   60.7790 N.3   621  ALA621     -0.1245
    171  CA        40.3320   74.8100   61.8440 C.3   621  ALA621      0.1562
    172  C         40.6630   73.7370   62.8860 C.2   621  ALA621      0.2260
    173  O         41.7560   73.7550   63.4440 O.2   621  ALA621     -0.2867
    174  CB        39.7810   76.0560   62.5200 C.3   621  ALA621      0.0290
@<TRIPOS>BOND
     1    48    47    2
     2    47    46    1
     3    18    17    2
     4    22    23    1
     5    17    16    1
     6    23    26    1
     7    23    24    1
     8    45    46    1
     9    25    24    2
    10    46    49    1
    11    26    27    1
    12    24    31   am
    13    16    19    1
    14    16    15    1
    15    19    20    1
    16    27    28    1
    17    42    41    2
    18    41    40    1
    19    49    50    1
    20    20    21    1
    21    11    10    2
    22    31    32    1
    23    15    10   am
    24    15    21    1
    25    50    51    1
    26    28    30   ar
    27    28    29   ar
    28    10     9    1
    29    39    40    1
    30    39    33   am
    31    14    12    1
    32    44    43    1
    33    32    33    1
    34    32    35    1
    35    40    43    1
    36   140   141    1
    37    33    34    2
    38    37    36   ar
    39   143   142    2
    40    12     9    1
    41    12    13    1
    42    51    52    1
    43    52    53    2
    44     9     8    1
    45    36    35    1
    46    36    38   ar
    47   141   142    1
    48   141   144    1
    49     8     3   am
    50    53    55    1
    51    53    54    1
    52     6     5    1
    53     3     2    1
    54     3     4    2
    55   166   163    1
    56   166   167    1
    57     2     5    1
    58     2     1    1
    59    71    70   ar
    60   164   163    1
    61   164   165    2
    62    61    60    1
    63    61    62    1
    64   163   162    1
    65   169   167   ar
    66     5     7    1
    67   167   168   ar
    68   170   171    1
    69   103   101   ar
    70    56    57    1
    71   102   101   ar
    72    60    57    1
    73   156   155    2
    74    62    63    1
    75    70    72   ar
    76    70    69    1
    77   152   151    1
    78   101   100    1
    79   151   150    1
    80   132   130   ar
    81   132   131   ar
    82   162   155   am
    83    57    58    1
    84   171   174    1
    85   171   172    1
    86    59    58    2
    87    69    68    1
    88   155   154    1
    89   136   135    2
    90   130   128   ar
    91   131   129   ar
    92   100    97    1
    93   172   173    2
    94   128   127   ar
    95   128   126   ar
    96   135   134    1
    97   150   149    1
    98   129   126   ar
    99    68    65    1
   100   154   153    1
   101   154   157    1
   102   153   147   am
   103   111   110    1
   104   127   125   ar
   105   126   124   ar
   106    67    66    2
   107   134   137    1
   108   134   133    1
   109    97    98    1
   110    97    96    1
   111    66    65    1
   112   147   146    1
   113   147   148    2
   114   149   146    1
   115    64    65    1
   116   157   158    1
   117   146   145    1
   118   137   138    1
   119    99    98    2
   120   125   124   ar
   121   124   123    1
   122    96    90   am
   123   133   139    1
   124   110   109    1
   125   158   159    1
   126    74    73    1
   127    74    75    1
   128   123   120    1
   129   138   139    1
   130   160   159   ar
   131    90    91    2
   132    90    89    1
   133    76    75    2
   134   109   108    1
   135    92    89    1
   136    92    93    1
   137   159   161   ar
   138    75    77   am
   139    94    93    1
   140   108   105    1
   141   120   121    1
   142   120   119    1
   143    89    88    1
   144   121   122    2
   145    93    95    1
   146    88    79   am
   147   118   116    1
   148    77    78    1
   149   105   104    1
   150   105   106    1
   151   115   114    2
   152    79    78    1
   153    79    80    2
   154   116   113    1
   155   116   117    1
   156   113   114    1
   157   113   112    1
   158    78    81    1
   159   106   107    2
   160    83    85   ar
   161    83    82   ar
   162    85    87   ar
   163    81    82    1
   164    82    84   ar
   165    87    86   ar
   166    84    86   ar
