@<TRIPOS>MOLECULE
tmp/5c9xA00.pdb
 165 157 0 0 0
SMALL
GASTEIGER

@<TRIPOS>ATOM
      1  N         26.7840   81.2240   61.1360 N.3   117  VAL117     -0.1231
      2  CA        27.7230   81.0620   60.0420 C.3   117  VAL117      0.1692
      3  C         27.4610   79.7050   59.3780 C.2   117  VAL117      0.2592
      4  O         27.3340   78.6990   60.0660 O.2   117  VAL117     -0.2718
      5  CB        29.1990   81.1510   60.5170 C.3   117  VAL117      0.0266
      6  CG1       30.1630   81.1200   59.3060 C.3   117  VAL117      0.0020
      7  CG2       29.4270   82.4160   61.3040 C.3   117  VAL117      0.0020
      8  N         27.3450   79.6850   58.0500 N.am  118  VAL118     -0.1966
      9  CA        27.0740   78.4420   57.3270 C.3   118  VAL118      0.1712
     10  C         27.8990   78.3410   56.0390 C.2   118  VAL118      0.2458
     11  O         28.2230   79.3630   55.4260 O.2   118  VAL118     -0.2730
     12  CB        25.5610   78.2830   56.9740 C.3   118  VAL118      0.0289
     13  CG1       24.7270   78.1260   58.2440 C.3   118  VAL118      0.0023
     14  CG2       25.0840   79.4520   56.1380 C.3   118  VAL118      0.0023
     15  N         28.2340   77.1040   55.6220 N.am  119  PRO119     -0.2727
     16  CA        28.9410   76.8940   54.3500 C.3   119  PRO119      0.1402
     17  C         28.0700   77.2980   53.1570 C.2   119  PRO119      0.2269
     18  O         26.9600   76.7630   52.9710 O.2   119  PRO119     -0.2865
     19  CB        29.1970   75.3800   54.3290 C.3   119  PRO119      0.0296
     20  CG        28.1930   74.7980   55.3070 C.3   119  PRO119      0.0237
     21  CD        28.0570   75.8480   56.3720 C.3   119  PRO119      0.0939
     22  N         36.5100   78.8220   55.6970 N.3   273  ASP273     -0.1225
     23  CA        36.9300   77.6340   56.4420 C.3   273  ASP273      0.1805
     24  C         35.8600   76.5380   56.5950 C.2   273  ASP273      0.2598
     25  O         36.1930   75.3990   56.9120 O.2   273  ASP273     -0.2718
     26  CB        37.4970   78.0320   57.8090 C.3   273  ASP273      0.1424
     27  CG        39.0230   78.1270   57.8190 C.2   273  ASP273      0.3668
     28  OD1       39.6270   78.2290   56.7320 O.co2 273  ASP273     -0.2456
     29  OD2       39.6200   78.1040   58.9240 O.co2 273  ASP273     -0.2456
     30  N         34.5890   76.8620   56.3730 N.am  274  SER274     -0.1952
     31  CA        33.5740   75.8170   56.4610 C.3   274  SER274      0.1924
     32  C         33.2600   75.1130   55.1370 C.2   274  SER274      0.2314
     33  O         32.3870   74.2440   55.1020 O.2   274  SER274     -0.2863
     34  CB        32.2810   76.3430   57.0890 C.3   274  SER274      0.2116
     35  OG        31.6640   77.2920   56.2450 O.3   274  SER274     -0.2180
     36  N         31.5700   85.6480   53.8110 N.3   328  ARG328     -0.1245
     37  CA        32.9880   85.5770   54.1800 C.3   328  ARG328      0.1563
     38  C         33.8440   85.1320   52.9990 C.2   328  ARG328      0.2260
     39  O         33.7060   84.0010   52.5220 O.2   328  ARG328     -0.2867
     40  CB        33.2590   84.6690   55.4020 C.3   328  ARG328      0.0307
     41  CG        34.7460   84.6670   55.7700 C.3   328  ARG328      0.0489
     42  CD        35.0140   84.2000   57.2130 C.3   328  ARG328      0.2205
     43  NE        34.7160   82.7820   57.3890 N.pl3 328  ARG328     -0.0865
     44  CZ        34.9430   82.1080   58.5160 C.cat 328  ARG328      0.5346
     45  NH1       35.4850   82.7200   59.5580 N.pl3 328  ARG328      0.1354
     46  NH2       34.6400   80.8220   58.5930 N.pl3 328  ARG328      0.1354
     47  N         38.1360   89.6870   61.0710 N.3   421  MET421     -0.1245
     48  CA        38.4350   88.5830   61.9730 C.3   421  MET421      0.1570
     49  C         39.7290   88.9030   62.7300 C.2   421  MET421      0.2261
     50  O         40.7440   89.2400   62.1020 O.2   421  MET421     -0.2867
     51  CB        38.6390   87.2810   61.1780 C.3   421  MET421      0.0387
     52  CG        37.4160   86.7320   60.4430 C.3   421  MET421      0.0595
     53  SD        35.9570   86.5290   61.4570 S.3   421  MET421     -0.1393
     54  CE        36.5460   85.2890   62.6460 C.3   421  MET421      0.0692
     55  N         41.9870   86.8150   64.4330 N.3   423  GLU423     -0.1245
     56  CA        42.2620   85.4020   64.6010 C.3   423  GLU423      0.1567
     57  C         43.7180   85.0870   64.2730 C.2   423  GLU423      0.2260
     58  O         44.0670   83.9460   64.0060 O.2   423  GLU423     -0.2867
     59  CB        41.2950   84.5460   63.7680 C.3   423  GLU423      0.0388
     60  CG        41.2890   84.8590   62.2900 C.3   423  GLU423      0.1160
     61  CD        40.3190   83.9850   61.5270 C.2   423  GLU423      0.3649
     62  OE1       40.1790   84.1980   60.3020 O.co2 423  GLU423     -0.2457
     63  OE2       39.7110   83.0780   62.1510 O.co2 423  GLU423     -0.2457
     64  N         38.1000   85.0250   66.3390 N.3   448  GLY448     -0.1210
     65  CA        38.1710   83.6920   65.7470 C.3   448  GLY448      0.1956
     66  C         39.1650   82.8270   66.5150 C.2   448  GLY448      0.2612
     67  O         40.2520   82.5280   66.0240 O.2   448  GLY448     -0.2717
     68  N         38.7740   82.4020   67.7190 N.am  449  PHE449     -0.1962
     69  CA        39.7000   81.7630   68.6600 C.3   449  PHE449      0.1771
     70  C         40.4110   80.4360   68.2560 C.2   449  PHE449      0.2619
     71  O         41.4820   80.1130   68.7800 O.2   449  PHE449     -0.2715
     72  CB        38.9930   81.5810   69.9880 C.3   449  PHE449      0.0574
     73  CG        37.9500   80.5100   69.9670 C.ar  449  PHE449     -0.0200
     74  CD1       36.7130   80.7470   69.3850 C.ar  449  PHE449     -0.0042
     75  CD2       38.1970   79.2660   70.5450 C.ar  449  PHE449     -0.0042
     76  CE1       35.7370   79.7710   69.3650 C.ar  449  PHE449     -0.0003
     77  CE2       37.2200   78.2860   70.5420 C.ar  449  PHE449     -0.0003
     78  CZ        35.9850   78.5360   69.9450 C.ar  449  PHE449     -0.0000
     79  N         39.8450   79.6470   67.3530 N.am  450  LEU450     -0.1963
     80  CA        40.5440   78.4250   66.9500 C.3   450  LEU450      0.1728
     81  C         41.7150   78.7040   66.0020 C.2   450  LEU450      0.2616
     82  O         42.8080   78.1480   66.1500 O.2   450  LEU450     -0.2715
     83  CB        39.5850   77.4270   66.3240 C.3   450  LEU450      0.0311
     84  CG        38.5140   76.9240   67.2810 C.3   450  LEU450      0.0022
     85  CD1       37.7000   75.8240   66.6170 C.3   450  LEU450      0.0001
     86  CD2       39.1680   76.4300   68.5630 C.3   450  LEU450      0.0001
     87  N         41.4810   79.5550   65.0110 N.am  451  ASP451     -0.1971
     88  CA        42.5550   79.9580   64.1140 C.3   451  ASP451      0.1709
     89  C         43.6260   80.6460   64.9390 C.2   451  ASP451      0.2293
     90  O         44.8280   80.4660   64.7140 O.2   451  ASP451     -0.2864
     91  CB        42.0370   80.9200   63.0490 C.3   451  ASP451      0.1436
     92  CG        41.8160   80.2420   61.7250 C.2   451  ASP451      0.3671
     93  OD1       42.7270   79.4840   61.3180 O.co2 451  ASP451     -0.2456
     94  OD2       40.7380   80.4490   61.1110 O.co2 451  ASP451     -0.2456
     95  N         32.5260   80.5390   67.8480 N.3   504  MET504     -0.1245
     96  CA        31.5130   79.5350   67.5670 C.3   504  MET504      0.1570
     97  C         31.3470   78.5270   68.7130 C.2   504  MET504      0.2261
     98  O         32.3330   78.0330   69.2450 O.2   504  MET504     -0.2867
     99  CB        31.8830   78.7990   66.2710 C.3   504  MET504      0.0387
    100  CG        30.9430   77.6650   65.8920 C.3   504  MET504      0.0595
    101  SD        29.3070   78.2390   65.3870 S.3   504  MET504     -0.1393
    102  CE        29.6110   79.0280   63.7900 C.3   504  MET504      0.0692
    103  N         30.6520   74.8820   69.2680 N.3   506  THR506     -0.1218
    104  CA        30.8170   73.7740   68.3110 C.3   506  THR506      0.1862
    105  C         30.0760   72.4770   68.6630 C.2   506  THR506      0.2287
    106  O         29.9160   71.5990   67.8190 O.2   506  THR506     -0.2866
    107  CB        32.3190   73.4400   68.0930 C.3   506  THR506      0.1770
    108  OG1       32.9220   73.0800   69.3460 O.3   506  THR506     -0.2211
    109  CG2       33.0370   74.6430   67.5260 C.3   506  THR506      0.0375
    110  N         28.8820   83.5110   67.5760 N.3   530  TRP530     -0.1241
    111  CA        28.5790   82.5190   66.5630 C.3   530  TRP530      0.1605
    112  C         27.8660   81.2640   67.0710 C.2   530  TRP530      0.2264
    113  O         28.2250   80.6790   68.0910 O.2   530  TRP530     -0.2867
    114  CB        29.8610   82.1800   65.7740 C.3   530  TRP530      0.0550
    115  CG        30.3080   83.3230   64.8890 C.ar  530  TRP530      0.0003
    116  CD1       29.7250   84.5590   64.7910 C.ar  530  TRP530      0.0946
    117  CD2       31.4190   83.3320   63.9810 C.ar  530  TRP530      0.0152
    118  NE1       30.4030   85.3290   63.8670 N.ar  530  TRP530     -0.2442
    119  CE2       31.4450   84.5970   63.3600 C.ar  530  TRP530      0.0810
    120  CE3       32.3920   82.3880   63.6270 C.ar  530  TRP530      0.0012
    121  CZ2       32.4080   84.9400   62.4060 C.ar  530  TRP530      0.0191
    122  CZ3       33.3490   82.7390   62.6720 C.ar  530  TRP530      0.0001
    123  CH2       33.3480   84.0020   62.0830 C.ar  530  TRP530      0.0015
    124  N         26.0950   77.5420   65.2420 N.3   532  PRO532     -0.2116
    125  CA        26.2280   76.6930   64.0550 C.3   532  PRO532      0.1372
    126  C         24.8940   76.3210   63.3950 C.2   532  PRO532      0.2244
    127  O         24.8880   75.8160   62.2680 O.2   532  PRO532     -0.2868
    128  CB        26.8640   75.4330   64.6400 C.3   532  PRO532      0.0268
    129  CG        26.2660   75.3310   65.9530 C.3   532  PRO532      0.0207
    130  CD        26.1660   76.7450   66.4750 C.3   532  PRO532      0.0892
    131  N         32.3370   71.3160   56.6070 N.3   608  ALA608     -0.1245
    132  CA        31.7120   71.4640   57.9120 C.3   608  ALA608      0.1562
    133  C         30.5880   70.4520   58.0680 C.2   608  ALA608      0.2260
    134  O         29.7610   70.2960   57.1780 O.2   608  ALA608     -0.2867
    135  CB        31.1930   72.8930   58.1170 C.3   608  ALA608      0.0290
    136  N         30.8470   70.4780   65.4650 N.3   620  MET620     -0.1230
    137  CA        30.8000   71.0890   64.1520 C.3   620  MET620      0.1702
    138  C         31.8850   72.1560   64.0540 C.2   620  MET620      0.2592
    139  O         31.6280   73.3400   64.2410 O.2   620  MET620     -0.2718
    140  CB        29.4230   71.6810   63.8470 C.3   620  MET620      0.0401
    141  CG        29.3380   72.2010   62.4060 C.3   620  MET620      0.0596
    142  SD        27.7670   71.8820   61.5800 S.3   620  MET620     -0.1393
    143  CE        26.9060   73.3980   61.8930 C.3   620  MET620      0.0692
    144  N         33.1080   71.7250   63.7790 N.am  621  GLU621     -0.1966
    145  CA        34.2070   72.6560   63.6560 C.3   621  GLU621      0.1733
    146  C         34.4500   72.9720   62.1850 C.2   621  GLU621      0.2616
    147  O         33.7930   72.4180   61.2910 O.2   621  GLU621     -0.2715
    148  CB        35.4610   72.0900   64.3310 C.3   621  GLU621      0.0429
    149  CG        35.2490   71.7560   65.8160 C.3   621  GLU621      0.1163
    150  CD        36.4460   71.0700   66.4410 C.2   621  GLU621      0.3649
    151  OE1       36.8650   71.4950   67.5400 O.co2 621  GLU621     -0.2457
    152  OE2       36.9660   70.1040   65.8400 O.co2 621  GLU621     -0.2457
    153  N         35.3730   73.8850   61.9250 N.am  622  ASP622     -0.1971
    154  CA        35.7890   74.1460   60.5530 C.3   622  ASP622      0.1709
    155  C         37.2760   73.8180   60.4330 C.2   622  ASP622      0.2293
    156  O         37.8710   73.2650   61.3660 O.2   622  ASP622     -0.2864
    157  CB        35.4920   75.5970   60.1690 C.3   622  ASP622      0.1436
    158  CG        36.3180   76.6060   60.9650 C.2   622  ASP622      0.3671
    159  OD1       37.0470   76.2190   61.9010 O.co2 622  ASP622     -0.2456
    160  OD2       36.2290   77.8130   60.6540 O.co2 622  ASP622     -0.2456
    161  N         39.9210   75.3230   60.8920 N.3   624  ALA624     -0.1245
    162  CA        40.7960   75.7750   61.9780 C.3   624  ALA624      0.1562
    163  C         41.1240   74.6840   62.9980 C.2   624  ALA624      0.2260
    164  O         42.1650   74.7360   63.6570 O.2   624  ALA624     -0.2867
    165  CB        40.2120   76.9870   62.6870 C.3   624  ALA624      0.0290
@<TRIPOS>BOND
     1    39    38    2
     2    18    17    2
     3    38    37    1
     4    17    16    1
     5    36    37    1
     6    37    40    1
     7    19    16    1
     8    19    20    1
     9    16    15    1
    10    33    32    2
    11    32    31    1
    12    20    21    1
    13    40    41    1
    14    11    10    2
    15    15    10   am
    16    15    21    1
    17    22    23    1
    18    41    42    1
    19    10     9    1
    20    14    12    1
    21    35    34    1
    22    30    31    1
    23    30    24   am
    24    23    24    1
    25    23    26    1
    26    31    34    1
    27    24    25    2
    28   131   132    1
    29    28    27   ar
    30    12     9    1
    31    12    13    1
    32   134   133    2
    33    42    43    1
    34     9     8    1
    35    43    44    2
    36    26    27    1
    37    27    29   ar
    38   132   133    1
    39   132   135    1
    40     8     3   am
    41    44    46    1
    42    44    45    1
    43     6     5    1
    44     3     2    1
    45     3     4    2
    46     2     5    1
    47     2     1    1
    48   157   154    1
    49   157   158    1
    50    62    61   ar
    51   155   154    1
    52   155   156    2
    53    52    51    1
    54    52    53    1
    55     5     7    1
    56   154   153    1
    57   160   158   ar
    58   161   162    1
    59   158   159   ar
    60    47    48    1
    61    94    92   ar
    62    51    48    1
    63   147   146    2
    64    93    92   ar
    65    53    54    1
    66    61    63   ar
    67    61    60    1
    68   142   143    1
    69   142   141    1
    70    92    91    1
    71   153   146   am
    72    48    49    1
    73   162   165    1
    74   162   163    1
    75   123   121   ar
    76   123   122   ar
    77    50    49    2
    78   146   145    1
    79   127   126    2
    80    60    59    1
    81   121   119   ar
    82   141   140    1
    83   122   120   ar
    84   163   164    2
    85    91    88    1
    86   119   118   ar
    87   119   117   ar
    88   126   125    1
    89   120   117   ar
    90   145   144    1
    91   145   148    1
    92    59    56    1
    93   144   138   am
    94   102   101    1
    95   140   137    1
    96   118   116   ar
    97   117   115   ar
    98    58    57    2
    99   138   137    1
   100   138   139    2
   101   125   128    1
   102   125   124    1
   103    88    89    1
   104    88    87    1
   105   137   136    1
   106    57    56    1
   107   148   149    1
   108    55    56    1
   109   128   129    1
   110    90    89    2
   111   116   115   ar
   112   115   114    1
   113    87    81   am
   114   124   130    1
   115   101   100    1
   116    65    64    1
   117    65    66    1
   118   114   111    1
   119   149   150    1
   120   152   150   ar
   121   100    99    1
   122   129   130    1
   123    81    82    2
   124    81    80    1
   125    67    66    2
   126    99    96    1
   127    83    80    1
   128    83    84    1
   129   150   151   ar
   130    66    68   am
   131   111   112    1
   132   111   110    1
   133    85    84    1
   134    80    79    1
   135   112   113    2
   136    84    86    1
   137    79    70   am
   138   109   107    1
   139    96    95    1
   140    96    97    1
   141    68    69    1
   142   106   105    2
   143   107   104    1
   144   107   108    1
   145    70    69    1
   146    70    71    2
   147   104   105    1
   148   104   103    1
   149    69    72    1
   150    97    98    2
   151    76    74   ar
   152    76    78   ar
   153    74    73   ar
   154    78    77   ar
   155    73    72    1
   156    73    75   ar
   157    77    75   ar
