@<TRIPOS>MOLECULE
tmp/5c9zA01.pdb
 205 201 0 0 0
SMALL
GASTEIGER

@<TRIPOS>ATOM
      1  N         33.4870  -53.2380  -14.0570 N.3   288  PHE288     -0.1227
      2  CA        32.5830  -52.9180  -12.9490 C.3   288  PHE288      0.1736
      3  C         31.2920  -53.7420  -12.9470 C.2   288  PHE288      0.2595
      4  O         30.7120  -53.9850  -11.8880 O.2   288  PHE288     -0.2718
      5  CB        32.2560  -51.4200  -12.9320 C.3   288  PHE288      0.0547
      6  CG        33.2410  -50.5910  -12.1520 C.ar  288  PHE288     -0.0202
      7  CD1       32.9470  -50.1790  -10.8550 C.ar  288  PHE288     -0.0042
      8  CD2       34.4660  -50.2230  -12.7100 C.ar  288  PHE288     -0.0042
      9  CE1       33.8510  -49.4150  -10.1300 C.ar  288  PHE288     -0.0003
     10  CE2       35.3740  -49.4620  -11.9890 C.ar  288  PHE288     -0.0003
     11  CZ        35.0660  -49.0570  -10.6970 C.ar  288  PHE288     -0.0000
     12  N         30.8490  -54.1700  -14.1270 N.am  289  ALA289     -0.1980
     13  CA        29.6050  -54.9320  -14.2610 C.3   289  ALA289      0.1597
     14  C         29.8460  -56.4410  -14.3130 C.2   289  ALA289      0.2287
     15  O         28.9130  -57.2170  -14.5300 O.2   289  ALA289     -0.2864
     16  CB        28.8400  -54.4730  -15.4960 C.3   289  ALA289      0.0319
     17  N         27.3950  -59.1320  -12.5970 N.3   292  TYR292     -0.1241
     18  CA        25.9820  -58.7590  -12.5060 C.3   292  TYR292      0.1605
     19  C         25.0840  -59.4000  -13.5660 C.2   292  TYR292      0.2264
     20  O         23.8750  -59.1500  -13.5800 O.2   292  TYR292     -0.2867
     21  CB        25.8310  -57.2380  -12.5750 C.3   292  TYR292      0.0534
     22  CG        26.2770  -56.5030  -11.3350 C.ar  292  TYR292     -0.0201
     23  CD1       25.3840  -56.2430  -10.2970 C.ar  292  TYR292     -0.0009
     24  CD2       27.5930  -56.0540  -11.2040 C.ar  292  TYR292     -0.0009
     25  CE1       25.7870  -55.5620   -9.1590 C.ar  292  TYR292      0.0417
     26  CE2       28.0090  -55.3750  -10.0710 C.ar  292  TYR292      0.0417
     27  CZ        27.1020  -55.1290   -9.0520 C.ar  292  TYR292      0.1957
     28  OH        27.5110  -54.4510   -7.9250 O.3   292  TYR292     -0.2866
     29  N         17.2530  -57.2380   -9.9970 N.3   297  GLN297     -0.1245
     30  CA        17.2040  -56.4110   -8.7980 C.3   297  GLN297      0.1566
     31  C         15.8310  -55.7720   -8.6710 C.2   297  GLN297      0.2260
     32  O         15.3000  -55.2300   -9.6400 O.2   297  GLN297     -0.2867
     33  CB        18.3140  -55.3560   -8.8280 C.3   297  GLN297      0.0367
     34  CG        19.7010  -55.9780   -8.8780 C.3   297  GLN297      0.0905
     35  CD        20.8170  -54.9750   -9.0690 C.2   297  GLN297      0.2608
     36  OE1       21.3740  -54.8550  -10.1620 O.2   297  GLN297     -0.2717
     37  NE2       21.1600  -54.2540   -8.0040 N.am  297  GLN297     -0.0878
     38  N         13.8740  -49.9070   -6.8040 N.3   300  LEU300     -0.1245
     39  CA        14.1470  -49.0240   -5.6720 C.3   300  LEU300      0.1561
     40  C         13.0000  -48.0450   -5.4360 C.2   300  LEU300      0.2260
     41  O         12.3470  -47.6040   -6.3850 O.2   300  LEU300     -0.2867
     42  CB        15.4410  -48.2520   -5.9220 C.3   300  LEU300      0.0270
     43  CG        16.7120  -49.1090   -5.9680 C.3   300  LEU300      0.0019
     44  CD1       17.4800  -48.8760   -7.2620 C.3   300  LEU300      0.0001
     45  CD2       17.5880  -48.8630   -4.7460 C.3   300  LEU300      0.0001
     46  N         19.1150  -44.0700    0.5030 N.3   307  LEU307     -0.1245
     47  CA        20.2290  -44.8210   -0.0580 C.3   307  LEU307      0.1561
     48  C         21.3450  -45.0190    0.9670 C.2   307  LEU307      0.2260
     49  O         21.6330  -44.1270    1.7630 O.2   307  LEU307     -0.2867
     50  CB        20.7580  -44.1220   -1.3170 C.3   307  LEU307      0.0270
     51  CG        19.8300  -44.1120   -2.5390 C.3   307  LEU307      0.0019
     52  CD1       20.1830  -42.9710   -3.4750 C.3   307  LEU307      0.0001
     53  CD2       19.8720  -45.4410   -3.2760 C.3   307  LEU307      0.0001
     54  N         26.1860  -47.4430   -1.3010 N.3   311  THR311     -0.1203
     55  CA        25.5370  -47.2390   -2.5930 C.3   311  THR311      0.1994
     56  C         26.0610  -45.9620   -3.2650 C.2   311  THR311      0.2617
     57  O         26.5310  -46.0060   -4.4040 O.2   311  THR311     -0.2717
     58  CB        23.9950  -47.1840   -2.4640 C.3   311  THR311      0.1784
     59  OG1       23.5210  -48.3890   -1.8550 O.3   311  THR311     -0.2211
     60  CG2       23.3450  -47.0370   -3.8270 C.3   311  THR311      0.0376
     61  N         25.9720  -44.8360   -2.5560 N.am  312  TYR312     -0.1975
     62  CA        26.5770  -43.5840   -3.0010 C.3   312  TYR312      0.1639
     63  C         28.0420  -43.8050   -3.3740 C.2   312  TYR312      0.2290
     64  O         28.4980  -43.3350   -4.4140 O.2   312  TYR312     -0.2864
     65  CB        26.4970  -42.5140   -1.9100 C.3   312  TYR312      0.0560
     66  CG        25.1250  -41.9190   -1.6510 C.ar  312  TYR312     -0.0198
     67  CD1       24.5020  -41.0990   -2.5960 C.ar  312  TYR312     -0.0009
     68  CD2       24.4670  -42.1410   -0.4390 C.ar  312  TYR312     -0.0009
     69  CE1       23.2540  -40.5420   -2.3510 C.ar  312  TYR312      0.0417
     70  CE2       23.2220  -41.5860   -0.1860 C.ar  312  TYR312      0.0417
     71  CZ        22.6230  -40.7870   -1.1410 C.ar  312  TYR312      0.1957
     72  OH        21.3850  -40.2400   -0.8890 O.3   312  TYR312     -0.2866
     73  N         29.7710  -46.4100   -4.4990 N.3   314  VAL314     -0.1231
     74  CA        30.0400  -47.1330   -5.7470 C.3   314  VAL314      0.1692
     75  C         29.7990  -46.2500   -6.9720 C.2   314  VAL314      0.2592
     76  O         30.6670  -46.1390   -7.8400 O.2   314  VAL314     -0.2718
     77  CB        29.2180  -48.4410   -5.8620 C.3   314  VAL314      0.0266
     78  CG1       29.5050  -49.1380   -7.1820 C.3   314  VAL314      0.0020
     79  CG2       29.5370  -49.3840   -4.7110 C.3   314  VAL314      0.0020
     80  N         28.6290  -45.6160   -7.0260 N.am  315  PHE315     -0.1962
     81  CA        28.2460  -44.8030   -8.1750 C.3   315  PHE315      0.1771
     82  C         29.1000  -43.5520   -8.3510 C.2   315  PHE315      0.2619
     83  O         29.3150  -43.1000   -9.4760 O.2   315  PHE315     -0.2715
     84  CB        26.7620  -44.4540   -8.1140 C.3   315  PHE315      0.0574
     85  CG        25.8590  -45.6470   -8.2760 C.ar  315  PHE315     -0.0200
     86  CD1       26.0070  -46.5060   -9.3640 C.ar  315  PHE315     -0.0042
     87  CD2       24.8620  -45.9120   -7.3460 C.ar  315  PHE315     -0.0042
     88  CE1       25.1810  -47.6080   -9.5140 C.ar  315  PHE315     -0.0003
     89  CE2       24.0300  -47.0140   -7.4920 C.ar  315  PHE315     -0.0003
     90  CZ        24.1890  -47.8620   -8.5770 C.ar  315  PHE315     -0.0000
     91  N         29.5910  -43.0070   -7.2400 N.am  316  GLU316     -0.1977
     92  CA        30.4930  -41.8530   -7.2560 C.3   316  GLU316      0.1602
     93  C         31.7880  -42.1290   -8.0340 C.2   316  GLU316      0.2287
     94  O         32.5440  -41.2080   -8.3410 O.2   316  GLU316     -0.2864
     95  CB        30.8080  -41.3990   -5.8230 C.3   316  GLU316      0.0415
     96  CG        29.7270  -40.5220   -5.2010 C.3   316  GLU316      0.1163
     97  CD        29.7720  -40.4800   -3.6780 C.2   316  GLU316      0.3649
     98  OE1       30.7480  -40.9760   -3.0740 O.co2 316  GLU316     -0.2457
     99  OE2       28.8170  -39.9460   -3.0740 O.co2 316  GLU316     -0.2457
    100  N         29.7790  -39.9250  -15.8870 N.3   321  LYS321     -0.1231
    101  CA        28.5530  -39.2210  -15.4810 C.3   321  LYS321      0.1693
    102  C         28.8080  -37.8290  -14.8960 C.2   321  LYS321      0.2592
    103  O         28.0760  -36.8850  -15.1990 O.2   321  LYS321     -0.2718
    104  CB        27.7220  -40.0540  -14.5000 C.3   321  LYS321      0.0285
    105  CG        26.2550  -39.6400  -14.4440 C.3   321  LYS321      0.0035
    106  CD        25.5620  -40.1500  -13.1900 C.3   321  LYS321      0.0206
    107  CE        25.7190  -39.1890  -12.0200 C.3   321  LYS321      0.1093
    108  NZ        25.0960  -39.7060  -10.7690 N.3   321  LYS321     -0.1314
    109  N         29.8430  -37.7030  -14.0710 N.am  322  TYR322     -0.1976
    110  CA        30.1020  -36.4440  -13.3730 C.3   322  TYR322      0.1639
    111  C         30.8170  -35.4130  -14.2380 C.2   322  TYR322      0.2290
    112  O         30.4890  -34.2250  -14.1740 O.2   322  TYR322     -0.2864
    113  CB        30.8320  -36.6850  -12.0430 C.3   322  TYR322      0.0560
    114  CG        30.0170  -37.5290  -11.0890 C.ar  322  TYR322     -0.0198
    115  CD1       28.8410  -37.0300  -10.5190 C.ar  322  TYR322     -0.0009
    116  CD2       30.3960  -38.8340  -10.7830 C.ar  322  TYR322     -0.0009
    117  CE1       28.0770  -37.8030   -9.6620 C.ar  322  TYR322      0.0417
    118  CE2       29.6370  -39.6160   -9.9250 C.ar  322  TYR322      0.0417
    119  CZ        28.4790  -39.0960   -9.3690 C.ar  322  TYR322      0.1957
    120  OH        27.7230  -39.8620   -8.5140 O.3   322  TYR322     -0.2866
    121  N         20.2370  -35.1210  -10.6420 N.3   423  GLU423     -0.1245
    122  CA        20.3660  -36.4680  -11.1840 C.3   423  GLU423      0.1567
    123  C         19.3790  -37.3980  -10.4660 C.2   423  GLU423      0.2260
    124  O         19.7400  -38.1170   -9.5270 O.2   423  GLU423     -0.2867
    125  CB        21.8080  -36.9650  -11.0510 C.3   423  GLU423      0.0388
    126  CG        22.1590  -38.1620  -11.9240 C.3   423  GLU423      0.1160
    127  CD        21.6530  -39.4830  -11.3660 C.2   423  GLU423      0.3649
    128  OE1       20.4700  -39.8250  -11.5890 O.co2 423  GLU423     -0.2457
    129  OE2       22.4440  -40.1870  -10.7100 O.co2 423  GLU423     -0.2457
    130  N         17.4460  -39.8030  -12.0760 N.3   425  LEU425     -0.1231
    131  CA        17.0470  -40.6710  -13.1830 C.3   425  LEU425      0.1693
    132  C         17.2480  -42.1480  -12.9030 C.2   425  LEU425      0.2593
    133  O         18.3070  -42.5650  -12.4300 O.2   425  LEU425     -0.2718
    134  CB        17.8040  -40.2980  -14.4620 C.3   425  LEU425      0.0284
    135  CG        17.7280  -38.8560  -14.9640 C.3   425  LEU425      0.0019
    136  CD1       18.6840  -38.6590  -16.1320 C.3   425  LEU425      0.0001
    137  CD2       16.3010  -38.4970  -15.3520 C.3   425  LEU425      0.0001
    138  N         16.2190  -42.9300  -13.2180 N.am  426  GLY426     -0.1942
    139  CA        16.3000  -44.3840  -13.1910 C.3   426  GLY426      0.2014
    140  C         16.5270  -44.9430  -14.5820 C.2   426  GLY426      0.2639
    141  O         16.6510  -44.1930  -15.5440 O.2   426  GLY426     -0.2714
    142  N         16.5520  -46.2680  -14.6870 N.am  427  SER427     -0.1949
    143  CA        16.9470  -46.9550  -15.9190 C.3   427  SER427      0.1924
    144  C         15.9770  -46.7370  -17.0800 C.2   427  SER427      0.2314
    145  O         16.3600  -46.8580  -18.2430 O.2   427  SER427     -0.2863
    146  CB        17.1270  -48.4470  -15.6470 C.3   427  SER427      0.2116
    147  OG        18.1010  -48.6650  -14.6350 O.3   427  SER427     -0.2180
    148  N         12.2330  -42.9950  -11.2920 N.3   432  GLU432     -0.1245
    149  CA        12.5440  -42.5580   -9.9310 C.3   432  GLU432      0.1567
    150  C         11.8500  -41.2300   -9.6660 C.2   432  GLU432      0.2260
    151  O         12.2330  -40.4690   -8.7770 O.2   432  GLU432     -0.2867
    152  CB        14.0580  -42.4840   -9.6790 C.3   432  GLU432      0.0388
    153  CG        14.7210  -43.8570   -9.6870 C.3   432  GLU432      0.1160
    154  CD        16.1420  -43.8740   -9.1330 C.2   432  GLU432      0.3649
    155  OE1       16.6530  -42.8330   -8.6670 O.co2 432  GLU432     -0.2457
    156  OE2       16.7560  -44.9570   -9.1560 O.co2 432  GLU432     -0.2457
    157  N         15.7580  -54.0850  -12.5840 N.3   491  VAL491     -0.1245
    158  CA        17.0420  -53.5800  -13.0630 C.3   491  VAL491      0.1561
    159  C         17.9570  -54.7880  -13.1980 C.2   491  VAL491      0.2260
    160  O         18.1600  -55.5250  -12.2370 O.2   491  VAL491     -0.2867
    161  CB        17.6530  -52.5420  -12.0940 C.3   491  VAL491      0.0252
    162  CG1       19.1120  -52.2540  -12.4390 C.3   491  VAL491      0.0019
    163  CG2       16.8320  -51.2620  -12.0980 C.3   491  VAL491      0.0019
    164  N         28.7930  -47.1540  -16.0010 N.3   565  PHE565     -0.1227
    165  CA        28.1840  -48.3270  -15.3660 C.3   565  PHE565      0.1736
    166  C         27.0090  -47.9880  -14.4420 C.2   565  PHE565      0.2596
    167  O         26.3590  -48.8850  -13.9050 O.2   565  PHE565     -0.2718
    168  CB        29.2400  -49.1260  -14.5910 C.3   565  PHE565      0.0547
    169  CG        29.9610  -48.3290  -13.5330 C.ar  565  PHE565     -0.0202
    170  CD1       29.3610  -48.0650  -12.3010 C.ar  565  PHE565     -0.0042
    171  CD2       31.2540  -47.8540  -13.7600 C.ar  565  PHE565     -0.0042
    172  CE1       30.0270  -47.3330  -11.3260 C.ar  565  PHE565     -0.0003
    173  CE2       31.9260  -47.1270  -12.7860 C.ar  565  PHE565     -0.0003
    174  CZ        31.3120  -46.8680  -11.5670 C.ar  565  PHE565     -0.0000
    175  N         26.7430  -46.6990  -14.2610 N.am  566  SER566     -0.1938
    176  CA        25.7820  -46.2420  -13.2640 C.3   566  SER566      0.2055
    177  C         24.3560  -46.7690  -13.4510 C.2   566  SER566      0.2643
    178  O         23.6380  -46.9460  -12.4700 O.2   566  SER566     -0.2714
    179  CB        25.7830  -44.7160  -13.1680 C.3   566  SER566      0.2130
    180  OG        26.8510  -44.2610  -12.3550 O.3   566  SER566     -0.2179
    181  N         23.9610  -47.0340  -14.6940 N.am  567  TRP567     -0.1959
    182  CA        22.6440  -47.5940  -14.9760 C.3   567  TRP567      0.1771
    183  C         22.7060  -48.8820  -15.7870 C.2   567  TRP567      0.2619
    184  O         23.4070  -48.9590  -16.7940 O.2   567  TRP567     -0.2715
    185  CB        21.7630  -46.5940  -15.7210 C.3   567  TRP567      0.0590
    186  CG        21.3870  -45.3730  -14.9460 C.ar  567  TRP567      0.0006
    187  CD1       20.3380  -45.2420  -14.0860 C.ar  567  TRP567      0.0946
    188  CD2       22.0320  -44.0970  -14.9910 C.ar  567  TRP567      0.0152
    189  NE1       20.2960  -43.9670  -13.5790 N.ar  567  TRP567     -0.2442
    190  CE2       21.3280  -43.2440  -14.1160 C.ar  567  TRP567      0.0810
    191  CE3       23.1440  -43.5940  -15.6750 C.ar  567  TRP567      0.0012
    192  CZ2       21.6930  -41.9120  -13.9140 C.ar  567  TRP567      0.0191
    193  CZ3       23.5070  -42.2680  -15.4740 C.ar  567  TRP567      0.0001
    194  CH2       22.7800  -41.4430  -14.6030 C.ar  567  TRP567      0.0015
    195  N         21.9580  -49.8840  -15.3360 N.am  568  PHE568     -0.1974
    196  CA        21.7250  -51.0960  -16.1050 C.3   568  PHE568      0.1639
    197  C         20.3750  -50.9640  -16.7890 C.2   568  PHE568      0.2290
    198  O         19.5510  -50.1480  -16.3680 O.2   568  PHE568     -0.2864
    199  CB        21.6920  -52.3270  -15.1930 C.3   568  PHE568      0.0560
    200  CG        23.0360  -52.7640  -14.6880 C.ar  568  PHE568     -0.0200
    201  CD1       24.1950  -52.5100  -15.4130 C.ar  568  PHE568     -0.0042
    202  CD2       23.1340  -53.4710  -13.4960 C.ar  568  PHE568     -0.0042
    203  CE1       25.4320  -52.9300  -14.9420 C.ar  568  PHE568     -0.0003
    204  CE2       24.3640  -53.8940  -13.0200 C.ar  568  PHE568     -0.0003
    205  CZ        25.5160  -53.6220  -13.7430 C.ar  568  PHE568     -0.0000
@<TRIPOS>BOND
     1   145   144    2
     2   144   143    1
     3   184   183    2
     4   197   198    2
     5   197   196    1
     6   136   135    1
     7   196   195    1
     8   196   199    1
     9   164   165    1
    10   143   146    1
    11   143   142    1
    12   100   101    1
    13   183   195   am
    14   183   182    1
    15   185   182    1
    16   185   186    1
    17   191   193   ar
    18   191   188   ar
    19   146   147    1
    20   141   140    2
    21    16    13    1
    22   101   102    1
    23   101   104    1
    24   193   194   ar
    25   201   203   ar
    26   201   200   ar
    27   165   168    1
    28   165   166    1
    29   137   135    1
    30   103   102    2
    31   199   200    1
    32   188   186   ar
    33   188   190   ar
    34   182   181    1
    35   135   134    1
    36   186   187   ar
    37   203   205   ar
    38   102   109   am
    39   181   177   am
    40   200   202   ar
    41   142   140   am
    42   194   192   ar
    43   168   169    1
    44   140   139    1
    45    15    14    2
    46   104   105    1
    47   134   131    1
    48   105   106    1
    49   166   175   am
    50   166   167    2
    51    14    13    1
    52    13    12    1
    53   175   176    1
    54   111   112    2
    55   111   110    1
    56    12     3   am
    57   190   192   ar
    58   190   189   ar
    59   187   189   ar
    60   109   110    1
    61     1     2    1
    62   171   169   ar
    63   171   173   ar
    64   205   204   ar
    65    20    19    2
    66    19    18    1
    67   169   170   ar
    68   202   204   ar
    69   177   176    1
    70   177   178    2
    71   110   113    1
    72   176   179    1
    73   138   139    1
    74   138   132   am
    75   159   158    1
    76   159   160    2
    77   106   107    1
    78   131   132    1
    79   131   130    1
    80   179   180    1
    81   158   157    1
    82   158   161    1
    83     2     3    1
    84     2     5    1
    85     3     4    2
    86     5     6    1
    87   132   133    2
    88   173   174   ar
    89     8     6   ar
    90     8    10   ar
    91    17    18    1
    92    21    18    1
    93    21    22    1
    94   162   161    1
    95   170   172   ar
    96     6     7   ar
    97   163   161    1
    98   113   114    1
    99   107   108    1
   100    10    11   ar
   101   126   127    1
   102   126   125    1
   103   128   127   ar
   104   174   172   ar
   105   127   129   ar
   106    22    24   ar
   107    22    23   ar
   108   148   149    1
   109    24    26   ar
   110   122   125    1
   111   122   121    1
   112   122   123    1
   113   114   116   ar
   114   114   115   ar
   115     7     9   ar
   116   116   118   ar
   117    11     9   ar
   118   115   117   ar
   119   123   124    2
   120    23    25   ar
   121    36    35    2
   122    26    27   ar
   123    29    30    1
   124   149   152    1
   125   149   150    1
   126   118   119   ar
   127   153   152    1
   128   153   154    1
   129   150   151    2
   130   117   119   ar
   131    32    31    2
   132    88    86   ar
   133    88    90   ar
   134    83    82    2
   135   119   120    1
   136    86    85   ar
   137    25    27   ar
   138   156   154   ar
   139   154   155   ar
   140    35    34    1
   141    35    37   am
   142    27    28    1
   143    34    33    1
   144    33    30    1
   145    30    31    1
   146    90    89   ar
   147    82    81    1
   148    82    91   am
   149    94    93    2
   150    85    84    1
   151    85    87   ar
   152    81    84    1
   153    81    80    1
   154    93    92    1
   155    76    75    2
   156    89    87   ar
   157    44    43    1
   158    92    91    1
   159    92    95    1
   160    78    77    1
   161    80    75   am
   162    75    74    1
   163    38    39    1
   164    41    40    2
   165    43    42    1
   166    43    45    1
   167    42    39    1
   168    77    74    1
   169    77    79    1
   170    95    96    1
   171    74    73    1
   172    39    40    1
   173    96    97    1
   174    64    63    2
   175    57    56    2
   176    60    58    1
   177    97    98   ar
   178    97    99   ar
   179    52    51    1
   180    63    62    1
   181    53    51    1
   182    56    55    1
   183    56    61   am
   184    62    61    1
   185    62    65    1
   186    67    69   ar
   187    67    66   ar
   188    55    58    1
   189    55    54    1
   190    51    50    1
   191    58    59    1
   192    69    71   ar
   193    65    66    1
   194    66    68   ar
   195    50    47    1
   196    71    72    1
   197    71    70   ar
   198    68    70   ar
   199    47    46    1
   200    47    48    1
   201    48    49    2
