@<TRIPOS>MOLECULE
tmp/5ca1D02.pdb
 191 178 0 0 0
SMALL
GASTEIGER

@<TRIPOS>ATOM
      1  N        -22.4850   13.2160   34.4460 N.3     4  ILE4       -0.1245
      2  CA       -22.7550   11.7940   34.3870 C.3     4  ILE4        0.1561
      3  C        -23.3160   11.3770   35.7370 C.2     4  ILE4        0.2260
      4  O        -22.8070   11.7790   36.7840 O.2     4  ILE4       -0.2867
      5  CB       -21.5010   10.9800   34.0360 C.3     4  ILE4        0.0252
      6  CG1      -20.9310   11.4590   32.6920 C.3     4  ILE4        0.0019
      7  CG2      -21.8420    9.4970   33.9680 C.3     4  ILE4        0.0019
      8  CD1      -19.7140   10.6900   32.2080 C.3     4  ILE4        0.0001
      9  N        -18.4190   14.1740   37.3250 N.3    50  TYR50      -0.1241
     10  CA       -18.7020   13.1000   38.2720 C.3    50  TYR50       0.1605
     11  C        -18.9600   13.5940   39.6960 C.2    50  TYR50       0.2264
     12  O        -19.2860   12.8010   40.5770 O.2    50  TYR50      -0.2867
     13  CB       -17.5510   12.0900   38.2770 C.3    50  TYR50       0.0534
     14  CG       -17.5820   11.1440   37.1010 C.ar   50  TYR50      -0.0201
     15  CD1      -18.3370    9.9810   37.1460 C.ar   50  TYR50      -0.0009
     16  CD2      -16.8670   11.4170   35.9420 C.ar   50  TYR50      -0.0009
     17  CE1      -18.3780    9.1140   36.0740 C.ar   50  TYR50       0.0417
     18  CE2      -16.9010   10.5540   34.8620 C.ar   50  TYR50       0.0417
     19  CZ       -17.6580    9.4030   34.9350 C.ar   50  TYR50       0.1957
     20  OH       -17.7020    8.5350   33.8680 O.3    50  TYR50      -0.2866
     21  N        -24.0350    5.7890   33.8670 N.3   134  GLN134     -0.1245
     22  CA       -23.1890    4.6040   33.8050 C.3   134  GLN134      0.1566
     23  C        -23.5000    3.6550   34.9620 C.2   134  GLN134      0.2260
     24  O        -23.7290    4.0860   36.0930 O.2   134  GLN134     -0.2867
     25  CB       -21.7040    4.9780   33.8010 C.3   134  GLN134      0.0367
     26  CG       -21.2240    5.7620   35.0070 C.3   134  GLN134      0.0905
     27  CD       -19.7330    6.0390   34.9450 C.2   134  GLN134      0.2608
     28  OE1      -19.2310    6.5440   33.9440 O.2   134  GLN134     -0.2717
     29  NE2      -19.0190    5.7110   36.0150 N.am  134  GLN134     -0.0878
     30  N        -24.5550    3.7900   29.5160 N.3   165  ASN165     -0.1240
     31  CA       -23.3830    2.9270   29.4050 C.3   165  ASN165      0.1653
     32  C        -23.2370    2.0100   30.6090 C.2   165  ASN165      0.2266
     33  O        -23.4640    2.4260   31.7400 O.2   165  ASN165     -0.2867
     34  CB       -22.1100    3.7610   29.2460 C.3   165  ASN165      0.1155
     35  CG       -22.0850    4.5380   27.9500 C.2   165  ASN165      0.2627
     36  OD1      -22.7760    4.1870   26.9930 O.2   165  ASN165     -0.2716
     37  ND2      -21.2850    5.6020   27.9080 N.am  165  ASN165     -0.0877
     38  N        -20.6960   -0.9390   32.6920 N.3   167  PHE167     -0.1241
     39  CA       -19.4810   -1.7100   32.8840 C.3   167  PHE167      0.1605
     40  C        -19.8860   -3.0570   33.4630 C.2   167  PHE167      0.2264
     41  O        -20.0440   -3.2040   34.6710 O.2   167  PHE167     -0.2867
     42  CB       -18.5060   -0.9810   33.8050 C.3   167  PHE167      0.0534
     43  CG       -18.0460    0.3380   33.2670 C.ar  167  PHE167     -0.0203
     44  CD1      -18.7930    1.4850   33.4780 C.ar  167  PHE167     -0.0042
     45  CD2      -16.8720    0.4320   32.5430 C.ar  167  PHE167     -0.0042
     46  CE1      -18.3740    2.7030   32.9790 C.ar  167  PHE167     -0.0003
     47  CE2      -16.4460    1.6480   32.0420 C.ar  167  PHE167     -0.0003
     48  CZ       -17.1980    2.7850   32.2620 C.ar  167  PHE167     -0.0000
     49  N        -23.4270    1.6070   25.3110 N.3   198  GLU198     -0.1245
     50  CA       -22.1260    0.9650   25.4150 C.3   198  GLU198      0.1567
     51  C        -22.1120   -0.0290   26.5640 C.2   198  GLU198      0.2260
     52  O        -22.5760    0.2710   27.6650 O.2   198  GLU198     -0.2867
     53  CB       -21.0170    2.0000   25.6190 C.3   198  GLU198      0.0388
     54  CG       -20.8800    3.0160   24.5060 C.3   198  GLU198      0.1160
     55  CD       -19.8970    4.1120   24.8540 C.2   198  GLU198      0.3649
     56  OE1      -19.0530    3.8900   25.7490 O.co2 198  GLU198     -0.2457
     57  OE2      -19.9680    5.1940   24.2360 O.co2 198  GLU198     -0.2457
     58  N        -19.1410   -2.2680   28.3880 N.3   200  TYR200     -0.1241
     59  CA       -17.7650   -2.7120   28.5120 C.3   200  TYR200      0.1605
     60  C        -17.7380   -4.1020   29.1190 C.2   200  TYR200      0.2264
     61  O        -18.0290   -4.2840   30.3000 O.2   200  TYR200     -0.2867
     62  CB       -16.9570   -1.7190   29.3440 C.3   200  TYR200      0.0534
     63  CG       -16.8060   -0.4010   28.6300 C.ar  200  TYR200     -0.0201
     64  CD1      -17.7790    0.5820   28.7350 C.ar  200  TYR200     -0.0009
     65  CD2      -15.7070   -0.1550   27.8180 C.ar  200  TYR200     -0.0009
     66  CE1      -17.6520    1.7800   28.0710 C.ar  200  TYR200      0.0417
     67  CE2      -15.5720    1.0410   27.1480 C.ar  200  TYR200      0.0417
     68  CZ       -16.5480    2.0030   27.2780 C.ar  200  TYR200      0.1957
     69  OH       -16.4200    3.1930   26.6130 O.3   200  TYR200     -0.2866
     70  N         -9.2540    4.7700   32.6010 N.3   235  GLY235     -0.1210
     71  CA        -8.7880    5.0630   31.2590 C.3   235  GLY235      0.1956
     72  C         -9.8990    5.4540   30.3030 C.2   235  GLY235      0.2612
     73  O         -9.7830    6.4400   29.5760 O.2   235  GLY235     -0.2717
     74  N        -10.9840    4.6860   30.3130 N.am  236  VAL236     -0.1965
     75  CA       -12.0880    4.9160   29.3890 C.3   236  VAL236      0.1727
     76  C        -12.8830    6.1860   29.7060 C.2   236  VAL236      0.2616
     77  O        -13.7190    6.6020   28.9050 O.2   236  VAL236     -0.2715
     78  CB       -13.0600    3.7180   29.3700 C.3   236  VAL236      0.0290
     79  CG1      -12.3290    2.4440   28.9570 C.3   236  VAL236      0.0023
     80  CG2      -13.7140    3.5460   30.7240 C.3   236  VAL236      0.0023
     81  N        -12.6250    6.8020   30.8590 N.am  237  THR237     -0.1951
     82  CA       -13.3220    8.0340   31.2290 C.3   237  THR237      0.1897
     83  C        -12.3690    9.2240   31.3190 C.2   237  THR237      0.2313
     84  O        -12.7620   10.3130   31.7380 O.2   237  THR237     -0.2863
     85  CB       -14.0810    7.8900   32.5790 C.3   237  THR237      0.1794
     86  OG1      -13.1500    7.7720   33.6640 O.3   237  THR237     -0.2208
     87  CG2      -14.9980    6.6710   32.5570 C.3   237  THR237      0.0378
     88  N        -10.9080   11.0550   28.8900 N.3   239  CYS239     -0.1221
     89  CA       -11.2340   12.1500   27.9830 C.3   239  CYS239      0.1808
     90  C        -12.4420   12.9500   28.4680 C.2   239  CYS239      0.2601
     91  O        -12.6290   14.1030   28.0810 O.2   239  CYS239     -0.2717
     92  CB       -11.4910   11.6160   26.5740 C.3   239  CYS239      0.0970
     93  SG       -12.8770   10.4710   26.4680 S.3   239  CYS239     -0.0800
     94  N        -13.2600   12.3310   29.3130 N.am  240  LEU240     -0.1979
     95  CA       -14.4250   12.9970   29.8810 C.3   240  LEU240      0.1596
     96  C        -14.0500   13.8650   31.0790 C.2   240  LEU240      0.2287
     97  O        -14.6920   14.8780   31.3450 O.2   240  LEU240     -0.2864
     98  CB       -15.4760   11.9700   30.3050 C.3   240  LEU240      0.0297
     99  CG       -16.0760   11.0920   29.2110 C.3   240  LEU240      0.0022
    100  CD1      -16.7340    9.8670   29.8250 C.3   240  LEU240      0.0001
    101  CD2      -17.0770   11.8940   28.3940 C.3   240  LEU240      0.0001
    102  N         -9.9990   15.8960   22.8440 N.3   246  LEU246     -0.1245
    103  CA       -11.3950   15.5460   22.6090 C.3   246  LEU246      0.1561
    104  C        -12.3860   16.5300   23.2230 C.2   246  LEU246      0.2260
    105  O        -12.3320   16.8290   24.4180 O.2   246  LEU246     -0.2867
    106  CB       -11.6810   14.1430   23.1440 C.3   246  LEU246      0.0270
    107  CG       -11.9550   13.0710   22.0890 C.3   246  LEU246      0.0019
    108  CD1      -10.7590   12.9110   21.1740 C.3   246  LEU246      0.0001
    109  CD2      -12.2970   11.7510   22.7530 C.3   246  LEU246      0.0001
    110  N        -20.6820   11.7240   26.0120 N.3   250  LEU250     -0.1245
    111  CA       -20.9690   10.2950   25.8820 C.3   250  LEU250      0.1561
    112  C        -21.6190    9.9400   24.5440 C.2   250  LEU250      0.2260
    113  O        -21.3480    8.8800   23.9790 O.2   250  LEU250     -0.2867
    114  CB       -21.8690    9.8230   27.0270 C.3   250  LEU250      0.0270
    115  CG       -21.2720    9.8270   28.4360 C.3   250  LEU250      0.0019
    116  CD1      -22.2320    9.1810   29.4250 C.3   250  LEU250      0.0001
    117  CD2      -19.9330    9.1150   28.4460 C.3   250  LEU250      0.0001
    118  N        -19.0480   10.0790   21.6290 N.3   253  LEU253     -0.1245
    119  CA       -18.1470    8.9420   21.7660 C.3   253  LEU253      0.1561
    120  C        -18.8180    7.6610   21.2790 C.2   253  LEU253      0.2260
    121  O        -18.1960    6.8460   20.5970 O.2   253  LEU253     -0.2867
    122  CB       -17.6910    8.7920   23.2180 C.3   253  LEU253      0.0270
    123  CG       -16.8140    9.9240   23.7680 C.3   253  LEU253      0.0019
    124  CD1      -16.6420    9.8000   25.2800 C.3   253  LEU253      0.0001
    125  CD2      -15.4580    9.9470   23.0720 C.3   253  LEU253      0.0001
    126  N        -18.2880    5.0720   17.7220 N.3   257  MET257     -0.1245
    127  CA       -17.8430    3.7360   18.1270 C.3   257  MET257      0.1570
    128  C        -18.8510    2.6310   17.8320 C.2   257  MET257      0.2261
    129  O        -18.4860    1.4600   17.7860 O.2   257  MET257     -0.2867
    130  CB       -17.5100    3.7180   19.6220 C.3   257  MET257      0.0387
    131  CG       -16.1650    4.3300   19.9620 C.3   257  MET257      0.0595
    132  SD       -14.8130    3.4350   19.1870 S.3   257  MET257     -0.1393
    133  CE       -14.9230    1.8650   20.0420 C.3   257  MET257      0.0692
    134  N        -18.0360   -3.7700   23.9250 N.3   266  PHE266     -0.1241
    135  CA       -16.6260   -3.4490   23.7420 C.3   266  PHE266      0.1605
    136  C        -15.7260   -4.3710   24.5450 C.2   266  PHE266      0.2264
    137  O        -16.0090   -4.6670   25.7060 O.2   266  PHE266     -0.2867
    138  CB       -16.3410   -2.0020   24.1600 C.3   266  PHE266      0.0534
    139  CG       -17.1590   -0.9710   23.4320 C.ar  266  PHE266     -0.0203
    140  CD1      -17.7190   -1.2430   22.1930 C.ar  266  PHE266     -0.0042
    141  CD2      -17.3580    0.2820   23.9900 C.ar  266  PHE266     -0.0042
    142  CE1      -18.4660   -0.2840   21.5290 C.ar  266  PHE266     -0.0003
    143  CE2      -18.1000    1.2440   23.3320 C.ar  266  PHE266     -0.0003
    144  CZ       -18.6550    0.9620   22.1010 C.ar  266  PHE266     -0.0000
    145  N        -10.8880    2.6600   19.6750 N.3   304  ALA304     -0.1231
    146  CA       -10.4230    3.8800   20.3200 C.3   304  ALA304      0.1694
    147  C         -9.3320    3.5430   21.3310 C.2   304  ALA304      0.2592
    148  O         -9.4480    2.5800   22.0860 O.2   304  ALA304     -0.2718
    149  CB       -11.5710    4.6060   20.9960 C.3   304  ALA304      0.0304
    150  N         -8.2690    4.3360   21.3340 N.am  305  ALA305     -0.1966
    151  CA        -7.1550    4.1130   22.2410 C.3   305  ALA305      0.1728
    152  C         -6.7430    5.4210   22.8950 C.2   305  ALA305      0.2616
    153  O         -6.5800    6.4340   22.2160 O.2   305  ALA305     -0.2715
    154  CB        -5.9790    3.4920   21.5000 C.3   305  ALA305      0.0334
    155  N         -6.5890    5.4020   24.2150 N.am  306  ILE306     -0.1977
    156  CA        -6.1550    6.5910   24.9360 C.3   306  ILE306      0.1596
    157  C         -4.7750    6.3890   25.5320 C.2   306  ILE306      0.2287
    158  O         -4.5560    5.4770   26.3290 O.2   306  ILE306     -0.2864
    159  CB        -7.1190    6.9750   26.0710 C.3   306  ILE306      0.0276
    160  CG1       -8.5660    6.7690   25.6380 C.3   306  ILE306      0.0022
    161  CG2       -6.8820    8.4170   26.5070 C.3   306  ILE306      0.0022
    162  CD1       -9.1810    5.4820   26.1390 C.3   306  ILE306      0.0001
    163  N         -9.1630    5.3900   16.1530 N.3   340  LYS340     -0.1231
    164  CA        -8.9230    6.7500   16.6150 C.3   340  LYS340      0.1693
    165  C         -8.1270    6.7940   17.9170 C.2   340  LYS340      0.2593
    166  O         -8.2160    5.8930   18.7530 O.2   340  LYS340     -0.2718
    167  CB       -10.2530    7.4860   16.7790 C.3   340  LYS340      0.0285
    168  CG       -10.9700    7.7350   15.4590 C.3   340  LYS340      0.0035
    169  CD       -10.0330    8.4130   14.4630 C.3   340  LYS340      0.0206
    170  CE       -10.7590    8.8630   13.2090 C.3   340  LYS340      0.1093
    171  NZ        -9.8210    9.5250   12.2560 N.3   340  LYS340     -0.1314
    172  N         -7.3550    7.8630   18.0790 N.am  341  THR341     -0.1939
    173  CA        -6.4190    7.9840   19.1870 C.3   341  THR341      0.2028
    174  C         -6.5570    9.3370   19.8870 C.2   341  THR341      0.2642
    175  O         -6.8200   10.3520   19.2460 O.2   341  THR341     -0.2714
    176  CB        -4.9630    7.7960   18.6930 C.3   341  THR341      0.1808
    177  OG1       -4.7960    6.4600   18.2050 O.3   341  THR341     -0.2208
    178  CG2       -3.9630    8.0400   19.8080 C.3   341  THR341      0.0379
    179  N         -6.4040    9.3340   21.2070 N.am  342  ALA342     -0.1977
    180  CA        -6.3300   10.5680   21.9790 C.3   342  ALA342      0.1597
    181  C         -5.1670   10.4800   22.9590 C.2   342  ALA342      0.2287
    182  O         -4.7160    9.3860   23.3030 O.2   342  ALA342     -0.2864
    183  CB        -7.6390   10.8300   22.7150 C.3   342  ALA342      0.0319
    184  N        -10.0470    0.4940   23.7260 N.3   358  ILE358     -0.1245
    185  CA       -11.4640    0.1670   23.5760 C.3   358  ILE358      0.1561
    186  C        -11.7420   -0.3860   22.1880 C.2   358  ILE358      0.2260
    187  O        -11.7010    0.3490   21.1960 O.2   358  ILE358     -0.2867
    188  CB       -12.3760    1.3820   23.8010 C.3   358  ILE358      0.0252
    189  CG1      -12.0140    2.1060   25.0950 C.3   358  ILE358      0.0019
    190  CG2      -13.8410    0.9460   23.8080 C.3   358  ILE358      0.0019
    191  CD1      -12.8410    3.3530   25.3330 C.3   358  ILE358      0.0001
@<TRIPOS>BOND
     1   171   170    1
     2   170   169    1
     3   169   168    1
     4   168   167    1
     5   163   164    1
     6   164   167    1
     7   164   165    1
     8   126   127    1
     9   129   128    2
    10   128   127    1
    11   165   172   am
    12   165   166    2
    13   172   173    1
    14   127   130    1
    15   177   176    1
    16   176   173    1
    17   176   178    1
    18   173   174    1
    19   132   131    1
    20   132   133    1
    21   175   174    2
    22   130   131    1
    23   145   146    1
    24   174   179   am
    25   146   149    1
    26   146   147    1
    27   121   120    2
    28   108   107    1
    29   187   186    2
    30   179   180    1
    31   120   119    1
    32   147   150   am
    33   147   148    2
    34   150   151    1
    35   154   151    1
    36   142   144   ar
    37   142   140   ar
    38   118   119    1
    39   119   122    1
    40   180   183    1
    41   180   181    1
    42   107   109    1
    43   107   106    1
    44   144   143   ar
    45   186   185    1
    46   140   139   ar
    47   153   152    2
    48   151   152    1
    49   103   102    1
    50   103   106    1
    51   103   104    1
    52   152   155   am
    53   181   182    2
    54   125   123    1
    55   122   123    1
    56   104   105    2
    57   143   141   ar
    58   139   141   ar
    59   139   138    1
    60   185   184    1
    61   185   188    1
    62   135   134    1
    63   135   138    1
    64   135   136    1
    65   123   124    1
    66   188   190    1
    67   188   189    1
    68   113   112    2
    69   155   156    1
    70    57    55   ar
    71    54    55    1
    72    54    53    1
    73   112   111    1
    74   136   137    2
    75    55    56   ar
    76   156   157    1
    77   156   159    1
    78   189   191    1
    79    49    50    1
    80    50    53    1
    81    50    51    1
    82   157   158    2
    83   160   159    1
    84   160   162    1
    85   111   110    1
    86   111   114    1
    87   159   161    1
    88    93    92    1
    89    51    52    2
    90    92    89    1
    91    69    68    1
    92    36    35    2
    93   114   115    1
    94    67    68   ar
    95    67    65   ar
    96    68    66   ar
    97    65    63   ar
    98    37    35   am
    99    35    34    1
   100    89    90    1
   101    89    88    1
   102    66    64   ar
   103    91    90    2
   104    58    59    1
   105   101    99    1
   106   115   117    1
   107   115   116    1
   108    90    94   am
   109    59    60    1
   110    59    62    1
   111    63    64   ar
   112    63    62    1
   113    77    76    2
   114    79    78    1
   115    60    61    2
   116    99   100    1
   117    99    98    1
   118    34    31    1
   119    94    95    1
   120    78    75    1
   121    78    80    1
   122    75    76    1
   123    75    74    1
   124    31    30    1
   125    31    32    1
   126    73    72    2
   127    76    81   am
   128    95    98    1
   129    95    96    1
   130    72    74   am
   131    72    71    1
   132    32    33    2
   133    81    82    1
   134    96    97    2
   135    82    83    1
   136    82    85    1
   137    71    70    1
   138    83    84    2
   139    47    48   ar
   140    47    45   ar
   141     8     6    1
   142    48    46   ar
   143    45    43   ar
   144    87    85    1
   145    85    86    1
   146     6     5    1
   147    38    39    1
   148    39    40    1
   149    39    42    1
   150    46    44   ar
   151    43    44   ar
   152    43    42    1
   153    40    41    2
   154    25    22    1
   155    25    26    1
   156    22    21    1
   157    22    23    1
   158    20    19    1
   159    28    27    2
   160     7     5    1
   161     5     2    1
   162     2     1    1
   163     2     3    1
   164    18    19   ar
   165    18    16   ar
   166    19    17   ar
   167    27    26    1
   168    27    29   am
   169    23    24    2
   170     3     4    2
   171    16    14   ar
   172    17    15   ar
   173    14    15   ar
   174    14    13    1
   175     9    10    1
   176    10    13    1
   177    10    11    1
   178    11    12    2
