@<TRIPOS>MOLECULE
tmp/5ca3B01.pdb
 132 132 0 0 0
SMALL
GASTEIGER

@<TRIPOS>ATOM
      1  N         14.3690   41.5450   14.1010 N.3   314  TRP314     -0.1227
      2  CA        15.5480   41.2350   14.9000 C.3   314  TRP314      0.1737
      3  C         16.8290   41.8520   14.3370 C.2   314  TRP314      0.2595
      4  O         17.9210   41.5410   14.7970 O.2   314  TRP314     -0.2718
      5  CB        15.7050   39.7170   14.9740 C.3   314  TRP314      0.0564
      6  CG        14.5460   39.0260   15.6060 C.ar  314  TRP314      0.0003
      7  CD1       13.6260   38.2420   14.9880 C.ar  314  TRP314      0.0946
      8  CD2       14.1790   39.0610   16.9960 C.ar  314  TRP314      0.0152
      9  NE1       12.7070   37.7720   15.9040 N.ar  314  TRP314     -0.2442
     10  CE2       13.0310   38.2600   17.1420 C.ar  314  TRP314      0.0810
     11  CE3       14.7250   39.6770   18.1320 C.ar  314  TRP314      0.0012
     12  CZ2       12.4030   38.0810   18.3710 C.ar  314  TRP314      0.0191
     13  CZ3       14.1040   39.4960   19.3470 C.ar  314  TRP314      0.0001
     14  CH2       12.9600   38.7020   19.4600 C.ar  314  TRP314      0.0015
     15  N         16.6930   42.7390   13.3580 N.am  315  PHE315     -0.1976
     16  CA        17.8460   43.2940   12.6690 C.3   315  PHE315      0.1639
     17  C         17.9820   44.8060   12.7850 C.2   315  PHE315      0.2290
     18  O         18.7700   45.3790   12.0500 O.2   315  PHE315     -0.2864
     19  CB        17.7630   42.9580   11.1740 C.3   315  PHE315      0.0560
     20  CG        17.6880   41.4820   10.8580 C.ar  315  PHE315     -0.0200
     21  CD1       18.3790   40.5460   11.5990 C.ar  315  PHE315     -0.0042
     22  CD2       16.9750   41.0490    9.7500 C.ar  315  PHE315     -0.0042
     23  CE1       18.3020   39.1970   11.2930 C.ar  315  PHE315     -0.0003
     24  CE2       16.9020   39.7110    9.4310 C.ar  315  PHE315     -0.0003
     25  CZ        17.5780   38.7740   10.1890 C.ar  315  PHE315     -0.0000
     26  N         26.4800   42.5120   12.4350 N.3   321  TRP321     -0.1241
     27  CA        27.0860   41.1960   12.1970 C.3   321  TRP321      0.1605
     28  C         28.3080   41.3110   11.2550 C.2   321  TRP321      0.2264
     29  O         28.3220   42.1630   10.3680 O.2   321  TRP321     -0.2867
     30  CB        26.0820   40.2560   11.5130 C.3   321  TRP321      0.0550
     31  CG        24.9450   39.6730   12.3320 C.ar  321  TRP321      0.0003
     32  CD1       24.8400   38.3810   12.7410 C.ar  321  TRP321      0.0946
     33  CD2       23.7250   40.3210   12.7500 C.ar  321  TRP321      0.0152
     34  NE1       23.6680   38.1880   13.4120 N.ar  321  TRP321     -0.2442
     35  CE2       22.9580   39.3560   13.4330 C.ar  321  TRP321      0.0810
     36  CE3       23.2260   41.6240   12.6470 C.ar  321  TRP321      0.0012
     37  CZ2       21.7070   39.6400   13.9910 C.ar  321  TRP321      0.0191
     38  CZ3       21.9690   41.9130   13.2030 C.ar  321  TRP321      0.0001
     39  CH2       21.2280   40.9180   13.8630 C.ar  321  TRP321      0.0015
     40  N         29.8340   37.7260   16.7140 N.3   368  ASP368     -0.1225
     41  CA        28.7470   37.5490   15.7530 C.3   368  ASP368      0.1805
     42  C         27.7910   38.7310   15.7100 C.2   368  ASP368      0.2597
     43  O         27.3110   39.1070   14.6480 O.2   368  ASP368     -0.2718
     44  CB        27.9580   36.3090   16.1760 C.3   368  ASP368      0.1424
     45  CG        26.9020   35.8890   15.1760 C.2   368  ASP368      0.3668
     46  OD1       27.1470   35.9770   13.9470 O.co2 368  ASP368     -0.2456
     47  OD2       25.8380   35.4360   15.6480 O.co2 368  ASP368     -0.2456
     48  N         27.4560   39.2680   16.8800 N.am  369  LEU369     -0.1979
     49  CA        26.4330   40.2790   16.9740 C.3   369  LEU369      0.1596
     50  C         26.8270   41.2450   18.0750 C.2   369  LEU369      0.2287
     51  O         26.9330   40.8650   19.2530 O.2   369  LEU369     -0.2864
     52  CB        25.0720   39.6310   17.2470 C.3   369  LEU369      0.0297
     53  CG        23.8020   40.4230   16.9110 C.3   369  LEU369      0.0022
     54  CD1       22.6000   39.5040   17.0520 C.3   369  LEU369      0.0001
     55  CD2       23.6520   41.6690   17.7930 C.3   369  LEU369      0.0001
     56  N         20.7240   40.2730   22.7970 N.3   384  ASN384     -0.1240
     57  CA        21.1270   39.9330   21.4330 C.3   384  ASN384      0.1653
     58  C         22.6250   39.8080   21.2400 C.2   384  ASN384      0.2266
     59  O         23.0710   38.9590   20.4680 O.2   384  ASN384     -0.2867
     60  CB        20.5440   40.9600   20.4780 C.3   384  ASN384      0.1155
     61  CG        19.0470   40.8990   20.4500 C.2   384  ASN384      0.2627
     62  OD1       18.4830   39.8030   20.4130 O.2   384  ASN384     -0.2716
     63  ND2       18.3820   42.0570   20.5040 N.am  384  ASN384     -0.0877
     64  N         25.9850   38.6150   20.8920 N.3   386  ASN386     -0.1240
     65  CA        26.3130   37.1820   20.7820 C.3   386  ASN386      0.1653
     66  C         27.7770   36.8960   20.5510 C.2   386  ASN386      0.2266
     67  O         28.3630   37.4240   19.6100 O.2   386  ASN386     -0.2867
     68  CB        25.5460   36.5320   19.6220 C.3   386  ASN386      0.1155
     69  CG        25.7970   35.0450   19.5380 C.2   386  ASN386      0.2627
     70  OD1       25.8420   34.3650   20.5670 O.2   386  ASN386     -0.2716
     71  ND2       25.9520   34.5210   18.3220 N.am  386  ASN386     -0.0877
     72  N         31.3870   34.5930   12.0730 N.3   391  LYS391     -0.1245
     73  CA        30.8260   34.3730   10.7270 C.3   391  LYS391      0.1561
     74  C         31.9870   34.0440    9.7610 C.2   391  LYS391      0.2260
     75  O         33.1450   34.0860   10.1580 O.2   391  LYS391     -0.2867
     76  CB        30.0190   35.5860   10.2400 C.3   391  LYS391      0.0271
     77  CG        28.6630   35.7790   10.9150 C.3   391  LYS391      0.0035
     78  CD        27.5950   34.8160   10.3500 C.3   391  LYS391      0.0206
     79  CE        26.1810   35.1360   10.8440 C.3   391  LYS391      0.1093
     80  NZ        25.8140   34.4760   12.1330 N.3   391  LYS391     -0.1314
     81  N         25.1230   28.7750   12.7730 N.3   496  TRP496     -0.1241
     82  CA        25.1930   30.2460   12.8380 C.3   496  TRP496      0.1605
     83  C         26.5440   30.7770   12.3480 C.2   496  TRP496      0.2264
     84  O         26.6250   31.8500   11.7290 O.2   496  TRP496     -0.2867
     85  CB        24.9410   30.7490   14.2570 C.3   496  TRP496      0.0550
     86  CG        23.5700   30.5600   14.7660 C.ar  496  TRP496      0.0003
     87  CD1       22.4910   30.0570   14.0890 C.ar  496  TRP496      0.0946
     88  CD2       23.0970   30.9100   16.0730 C.ar  496  TRP496      0.0152
     89  NE1       21.3840   30.0580   14.9020 N.ar  496  TRP496     -0.2442
     90  CE2       21.7280   30.5840   16.1220 C.ar  496  TRP496      0.0810
     91  CE3       23.7060   31.4650   17.2090 C.ar  496  TRP496      0.0012
     92  CZ2       20.9550   30.7880   17.2570 C.ar  496  TRP496      0.0191
     93  CZ3       22.9390   31.6730   18.3340 C.ar  496  TRP496      0.0001
     94  CH2       21.5760   31.3480   18.3500 C.ar  496  TRP496      0.0015
     95  N         26.7440   31.2540    8.9110 N.3   499  GLY499     -0.1225
     96  CA        25.7210   32.2130    8.5060 C.3   499  GLY499      0.1811
     97  C         24.4350   31.5740    8.0170 C.2   499  GLY499      0.2280
     98  O         23.4030   32.2570    7.8770 O.2   499  GLY499     -0.2866
     99  N         21.8940   29.4230    9.1690 N.3   501  ASP501     -0.1239
    100  CA        21.1890   28.8130   10.3150 C.3   501  ASP501      0.1674
    101  C         20.3900   27.5990    9.8620 C.2   501  ASP501      0.2266
    102  O         19.6000   27.6880    8.9170 O.2   501  ASP501     -0.2867
    103  CB        20.1480   29.7510   10.9320 C.3   501  ASP501      0.1410
    104  CG        20.6880   31.1110   11.3360 C.2   501  ASP501      0.3668
    105  OD1       21.8370   31.4920   11.0200 O.co2 501  ASP501     -0.2456
    106  OD2       19.9020   31.8180   11.9780 O.co2 501  ASP501     -0.2456
    107  N         14.1150   28.7430    5.7370 N.3   679  TYR679     -0.1227
    108  CA        15.0410   29.8900    5.7560 C.3   679  TYR679      0.1736
    109  C         16.3080   29.6950    4.9100 C.2   679  TYR679      0.2595
    110  O         16.5060   30.4010    3.9170 O.2   679  TYR679     -0.2718
    111  CB        15.3990   30.1990    7.2120 C.3   679  TYR679      0.0548
    112  CG        15.8450   31.6110    7.5340 C.ar  679  TYR679     -0.0200
    113  CD1       15.1620   32.7210    7.0430 C.ar  679  TYR679     -0.0009
    114  CD2       16.8860   31.8290    8.4340 C.ar  679  TYR679     -0.0009
    115  CE1       15.5570   34.0200    7.3890 C.ar  679  TYR679      0.0417
    116  CE2       17.2800   33.1110    8.7990 C.ar  679  TYR679      0.0417
    117  CZ        16.6190   34.1980    8.2830 C.ar  679  TYR679      0.1957
    118  OH        17.0020   35.4590    8.6390 O.3   679  TYR679     -0.2866
    119  N         17.1410   28.7250    5.2870 N.am  680  TRP680     -0.1976
    120  CA        18.3990   28.4150    4.5780 C.3   680  TRP680      0.1640
    121  C         18.3870   27.0020    3.9670 C.2   680  TRP680      0.2290
    122  O         19.4390   26.3810    3.7600 O.2   680  TRP680     -0.2864
    123  CB        19.5930   28.5660    5.5330 C.3   680  TRP680      0.0576
    124  CG        20.0650   29.9800    5.7870 C.ar  680  TRP680      0.0006
    125  CD1       19.8580   30.7250    6.9120 C.ar  680  TRP680      0.0946
    126  CD2       20.8710   30.7910    4.9180 C.ar  680  TRP680      0.0152
    127  NE1       20.4840   31.9500    6.8000 N.ar  680  TRP680     -0.2442
    128  CE2       21.1060   32.0170    5.5810 C.ar  680  TRP680      0.0810
    129  CE3       21.4160   30.6000    3.6530 C.ar  680  TRP680      0.0012
    130  CZ2       21.8660   33.0400    5.0130 C.ar  680  TRP680      0.0191
    131  CZ3       22.1620   31.6290    3.0870 C.ar  680  TRP680      0.0001
    132  CH2       22.3740   32.8260    3.7650 C.ar  680  TRP680      0.0015
@<TRIPOS>BOND
     1   131   129   ar
     2   131   132   ar
     3   129   126   ar
     4   122   121    2
     5   132   130   ar
     6   110   109    2
     7   121   120    1
     8   120   119    1
     9   120   123    1
    10   109   119   am
    11   109   108    1
    12   126   128   ar
    13   126   124   ar
    14   130   128   ar
    15   123   124    1
    16   128   127   ar
    17   107   108    1
    18   108   111    1
    19   124   125   ar
    20   127   125   ar
    21   113   115   ar
    22   113   112   ar
    23   111   112    1
    24   115   117   ar
    25   112   114   ar
    26    98    97    2
    27    97    96    1
    28   117   118    1
    29   117   116   ar
    30   114   116   ar
    31    96    95    1
    32   102   101    2
    33    99   100    1
    34    24    22   ar
    35    24    25   ar
    36    22    20   ar
    37    74    75    2
    38    74    73    1
    39   101   100    1
    40    25    23   ar
    41    76    73    1
    42    76    77    1
    43   100   103    1
    44    78    79    1
    45    78    77    1
    46    29    28    2
    47    73    72    1
    48    79    80    1
    49    20    19    1
    50    20    21   ar
    51   103   104    1
    52   105   104   ar
    53    19    16    1
    54    28    27    1
    55    23    21   ar
    56   104   106   ar
    57    30    27    1
    58    30    31    1
    59    84    83    2
    60    18    17    2
    61    27    26    1
    62    31    32   ar
    63    31    33   ar
    64    83    82    1
    65    36    33   ar
    66    36    38   ar
    67    16    17    1
    68    16    15    1
    69    32    34   ar
    70    33    35   ar
    71    81    82    1
    72    82    85    1
    73    38    39   ar
    74    15     3   am
    75    34    35   ar
    76    35    37   ar
    77    39    37   ar
    78    46    45   ar
    79    87    86   ar
    80    87    89   ar
    81     1     2    1
    82    85    86    1
    83     3     4    2
    84     3     2    1
    85    43    42    2
    86    86    88   ar
    87     2     5    1
    88    89    90   ar
    89     5     6    1
    90     7     6   ar
    91     7     9   ar
    92    45    47   ar
    93    45    44    1
    94     6     8   ar
    95    42    41    1
    96    42    48   am
    97    41    44    1
    98    41    40    1
    99     9    10   ar
   100    88    90   ar
   101    88    91   ar
   102    90    92   ar
   103    48    49    1
   104    53    54    1
   105    53    52    1
   106    53    55    1
   107    49    52    1
   108    49    50    1
   109     8    10   ar
   110     8    11   ar
   111    10    12   ar
   112    91    93   ar
   113    92    94   ar
   114    50    51    2
   115    11    13   ar
   116    71    69   am
   117    93    94   ar
   118    12    14   ar
   119    13    14   ar
   120    69    68    1
   121    69    70    2
   122    67    66    2
   123    68    65    1
   124    62    61    2
   125    61    60    1
   126    61    63   am
   127    59    58    2
   128    60    57    1
   129    66    65    1
   130    65    64    1
   131    58    57    1
   132    57    56    1
