@<TRIPOS>MOLECULE
tmp/5ca6B00.pdb
 196 187 0 0 0
SMALL
GASTEIGER

@<TRIPOS>ATOM
      1  N         25.3710   61.1430    9.8740 N.3    12  PRO12      -0.2116
      2  CA        24.7750   61.8330   11.0090 C.3    12  PRO12       0.1372
      3  C         24.4760   63.3110   10.7310 C.2    12  PRO12       0.2244
      4  O         25.1940   63.9630    9.9620 O.2    12  PRO12      -0.2868
      5  CB        25.8410   61.7010   12.1230 C.3    12  PRO12       0.0268
      6  CG        26.8510   60.7120   11.6170 C.3    12  PRO12       0.0207
      7  CD        26.7850   60.7990   10.1290 C.3    12  PRO12       0.0892
      8  N         28.5100   62.4210   18.5760 N.3    18  ILE18      -0.1245
      9  CA        28.4070   60.9790   18.5510 C.3    18  ILE18       0.1561
     10  C         29.4660   60.4450   19.5060 C.2    18  ILE18       0.2260
     11  O         30.6620   60.6680   19.2980 O.2    18  ILE18      -0.2867
     12  CB        28.6240   60.4090   17.1380 C.3    18  ILE18       0.0252
     13  CG1       27.4530   60.7580   16.2200 C.3    18  ILE18       0.0019
     14  CG2       28.7430   58.8880   17.1970 C.3    18  ILE18       0.0019
     15  CD1       27.2610   62.2260   15.9480 C.3    18  ILE18       0.0001
     16  N         35.6780   53.4700   14.2020 N.3    29  VAL29      -0.1231
     17  CA        34.7670   54.2110   13.3450 C.3    29  VAL29       0.1692
     18  C         35.5260   54.6430   12.0930 C.2    29  VAL29       0.2592
     19  O         36.7340   54.9100   12.1500 O.2    29  VAL29      -0.2718
     20  CB        34.2210   55.4770   14.0640 C.3    29  VAL29       0.0266
     21  CG1       35.3330   56.4840   14.3120 C.3    29  VAL29       0.0020
     22  CG2       33.0710   56.1130   13.2860 C.3    29  VAL29       0.0020
     23  N         34.8220   54.6690   10.9640 N.am   30  GLN30      -0.1966
     24  CA        35.3380   55.2740    9.7350 C.3    30  GLN30       0.1733
     25  C         34.2030   56.0670    9.0630 C.2    30  GLN30       0.2616
     26  O         33.0200   55.7830    9.2870 O.2    30  GLN30      -0.2715
     27  CB        35.9680   54.2090    8.8120 C.3    30  GLN30       0.0408
     28  CG        35.0410   53.1160    8.3170 C.3    30  GLN30       0.0908
     29  CD        35.7700   52.0110    7.5570 C.2    30  GLN30       0.2608
     30  OE1       36.9780   51.7770    7.7480 O.2    30  GLN30      -0.2717
     31  NE2       35.0400   51.3260    6.6850 N.am   30  GLN30      -0.0878
     32  N         34.5530   57.0780    8.2720 N.am   31  GLY31      -0.1955
     33  CA        33.5520   57.9340    7.6290 C.3    31  GLY31       0.1869
     34  C         34.1200   58.6420    6.4050 C.2    31  GLY31       0.2309
     35  O         35.3070   58.9800    6.3690 O.2    31  GLY31      -0.2863
     36  N         37.5510   63.4030    1.5430 N.3    37  ARG37      -0.1245
     37  CA        38.0120   62.8820    2.8450 C.3    37  ARG37       0.1563
     38  C         37.5370   61.4700    3.1510 C.2    37  ARG37       0.2260
     39  O         36.3550   61.1730    3.0110 O.2    37  ARG37      -0.2867
     40  CB        37.5600   63.8080    3.9820 C.3    37  ARG37       0.0307
     41  CG        38.1890   65.1830    3.9800 C.3    37  ARG37       0.0489
     42  CD        39.6640   65.1280    4.3200 C.3    37  ARG37       0.2205
     43  NE        40.2530   66.4580    4.4960 N.pl3  37  ARG37      -0.0865
     44  CZ        40.6500   67.2460    3.4990 C.cat  37  ARG37       0.5346
     45  NH1       40.5070   66.8790    2.2230 N.pl3  37  ARG37       0.1354
     46  NH2       41.1860   68.4220    3.7810 N.pl3  37  ARG37       0.1354
     47  N         38.0390   59.1670    6.5530 N.3    39  LEU39      -0.1231
     48  CA        38.4720   59.4100    7.9160 C.3    39  LEU39       0.1693
     49  C         38.2180   58.2170    8.8160 C.2    39  LEU39       0.2592
     50  O         37.3030   57.4490    8.5700 O.2    39  LEU39      -0.2718
     51  CB        37.7180   60.6170    8.4580 C.3    39  LEU39       0.0284
     52  CG        37.6710   61.8730    7.5790 C.3    39  LEU39       0.0019
     53  CD1       36.7260   62.8850    8.2050 C.3    39  LEU39       0.0001
     54  CD2       39.0520   62.4580    7.3530 C.3    39  LEU39       0.0001
     55  N         39.0250   58.0670    9.8710 N.am   40  ALA40      -0.1966
     56  CA        38.7760   57.0690   10.8770 C.3    40  ALA40       0.1728
     57  C         39.4470   57.4440   12.1960 C.2    40  ALA40       0.2616
     58  O         40.2650   58.3670   12.2690 O.2    40  ALA40      -0.2715
     59  CB        39.2520   55.6940   10.4140 C.3    40  ALA40       0.0334
     60  N         39.0590   56.7360   13.2380 N.am   41  THR41      -0.1951
     61  CA        39.7450   56.8060   14.5290 C.3    41  THR41       0.1897
     62  C         40.1750   55.3980   14.9050 C.2    41  THR41       0.2313
     63  O         39.3720   54.4470   14.8350 O.2    41  THR41      -0.2863
     64  CB        38.8220   57.3450   15.6380 C.3    41  THR41       0.1794
     65  OG1       38.3030   58.6110   15.2340 O.3    41  THR41      -0.2208
     66  CG2       39.5930   57.5010   16.9790 C.3    41  THR41       0.0378
     67  N         43.2370   59.9250   15.4490 N.3    78  ASP78      -0.1225
     68  CA        42.4570   60.1800   14.2360 C.3    78  ASP78       0.1805
     69  C         43.3520   59.9970   13.0260 C.2    78  ASP78       0.2598
     70  O         44.5160   60.3800   13.0720 O.2    78  ASP78      -0.2718
     71  CB        41.9240   61.6230   14.2240 C.3    78  ASP78       0.1424
     72  CG        40.9330   61.8890   15.3240 C.2    78  ASP78       0.3668
     73  OD1       40.1520   60.9700   15.6660 O.co2  78  ASP78      -0.2456
     74  OD2       40.9340   63.0230   15.8660 O.co2  78  ASP78      -0.2456
     75  N         42.8010   59.4380   11.9450 N.am   79  VAL79      -0.1966
     76  CA        43.5150   59.3420   10.6660 C.3    79  VAL79       0.1727
     77  C         42.6620   59.9040    9.5330 C.2    79  VAL79       0.2616
     78  O         41.4260   59.9420    9.6320 O.2    79  VAL79      -0.2715
     79  CB        43.9800   57.8980   10.3510 C.3    79  VAL79       0.0290
     80  CG1       44.8720   57.3810   11.4730 C.3    79  VAL79       0.0023
     81  CG2       42.8080   56.9490   10.1200 C.3    79  VAL79       0.0023
     82  N         43.3270   60.3310    8.4620 N.am   80  SER80      -0.1950
     83  CA        42.6620   60.9580    7.3270 C.3    80  SER80       0.1924
     84  C         43.4740   60.8190    6.0480 C.2    80  SER80       0.2314
     85  O         44.7000   60.9250    6.0780 O.2    80  SER80      -0.2863
     86  CB        42.4660   62.4440    7.6040 C.3    80  SER80       0.2116
     87  OG        43.7140   63.1200    7.6130 O.3    80  SER80      -0.2180
     88  N         46.4590   62.3640   13.6320 N.3    91  HIS91      -0.1241
     89  CA        46.1820   63.6120   14.3390 C.3    91  HIS91       0.1621
     90  C         45.6210   63.3900   15.7160 C.2    91  HIS91       0.2264
     91  O         45.0140   62.3560   15.9940 O.2    91  HIS91      -0.2867
     92  CB        45.0940   64.4220   13.6510 C.3    91  HIS91       0.0745
     93  CG        45.1640   64.4260   12.1650 C.ar   91  HIS91       0.0817
     94  ND1       45.7390   65.4550   11.4590 N.ar   91  HIS91      -0.2268
     95  CD2       44.6730   63.5630   11.2490 C.ar   91  HIS91       0.1154
     96  CE1       45.6360   65.2080   10.1670 C.ar   91  HIS91       0.1986
     97  NE2       44.9890   64.0670   10.0120 N.ar   91  HIS91      -0.2212
     98  N         32.7230   62.6300   18.5570 N.3   103  VAL103     -0.1231
     99  CA        32.9410   63.4130   17.3490 C.3   103  VAL103      0.1692
    100  C         31.6580   64.1750   17.0250 C.2   103  VAL103      0.2592
    101  O         30.5610   63.6700   17.2540 O.2   103  VAL103     -0.2718
    102  CB        33.3600   62.5100   16.1620 C.3   103  VAL103      0.0266
    103  CG1       34.7700   61.9890   16.3560 C.3   103  VAL103      0.0020
    104  CG2       32.4120   61.3340   16.0060 C.3   103  VAL103      0.0020
    105  N         31.7920   65.4050   16.5290 N.am  104  MET104     -0.1965
    106  CA        30.6410   66.1910   16.0850 C.3   104  MET104      0.1736
    107  C         30.9720   66.9810   14.8270 C.2   104  MET104      0.2616
    108  O         32.0220   67.6270   14.7500 O.2   104  MET104     -0.2715
    109  CB        30.1760   67.1720   17.1630 C.3   104  MET104      0.0427
    110  CG        29.1230   68.1760   16.6870 C.3   104  MET104      0.0599
    111  SD        28.3870   69.2060   17.9740 S.3   104  MET104     -0.1393
    112  CE        29.7410   70.3180   18.3210 C.3   104  MET104      0.0692
    113  N         30.0430   66.9590   13.8730 N.am  105  LYS105     -0.1977
    114  CA        30.1130   67.8040   12.6990 C.3   105  LYS105      0.1596
    115  C         29.3540   69.0940   12.9780 C.2   105  LYS105      0.2287
    116  O         28.1500   69.0600   13.2870 O.2   105  LYS105     -0.2864
    117  CB        29.4700   67.1170   11.4980 C.3   105  LYS105      0.0298
    118  CG        30.1280   65.8180   11.1040 C.3   105  LYS105      0.0038
    119  CD        29.5440   65.2460    9.8260 C.3   105  LYS105      0.0206
    120  CE        28.1170   64.7360    9.9850 C.3   105  LYS105      0.1093
    121  NZ        27.5080   64.4500    8.6530 N.3   105  LYS105     -0.1314
    122  N         34.9380   69.3910   12.1170 N.3   110  ILE110     -0.1245
    123  CA        34.7260   68.2140   12.9520 C.3   110  ILE110      0.1561
    124  C         35.3570   68.4690   14.3080 C.2   110  ILE110      0.2260
    125  O         36.5580   68.7210   14.3980 O.2   110  ILE110     -0.2867
    126  CB        35.3180   66.9290   12.3400 C.3   110  ILE110      0.0252
    127  CG1       34.5120   66.4920   11.1260 C.3   110  ILE110      0.0019
    128  CG2       35.2970   65.7930   13.3500 C.3   110  ILE110      0.0019
    129  CD1       35.1170   65.3100   10.3900 C.3   110  ILE110      0.0001
    130  N         36.3620   67.2050   18.1490 N.3   112  THR112     -0.1218
    131  CA        36.7240   65.9900   18.8730 C.3   112  THR112      0.1862
    132  C         37.3400   66.4130   20.2140 C.2   112  THR112      0.2287
    133  O         37.5920   67.6100   20.4480 O.2   112  THR112     -0.2866
    134  CB        37.7660   65.1440   18.1000 C.3   112  THR112      0.1770
    135  OG1       39.0320   65.8340   18.0810 O.3   112  THR112     -0.2211
    136  CG2       37.3250   64.8880   16.6700 C.3   112  THR112      0.0375
    137  N         38.9270   70.0880   13.5980 N.3   125  TYR125     -0.1227
    138  CA        39.5770   70.0260   12.3090 C.3   125  TYR125      0.1736
    139  C         38.7910   70.9290   11.3670 C.2   125  TYR125      0.2596
    140  O         37.5600   71.0260   11.4640 O.2   125  TYR125     -0.2718
    141  CB        39.5860   68.5890   11.7890 C.3   125  TYR125      0.0548
    142  CG        40.2690   67.6130   12.7220 C.ar  125  TYR125     -0.0200
    143  CD1       41.6490   67.6220   12.8590 C.ar  125  TYR125     -0.0009
    144  CD2       39.5430   66.6930   13.4630 C.ar  125  TYR125     -0.0009
    145  CE1       42.2890   66.7550   13.7080 C.ar  125  TYR125      0.0417
    146  CE2       40.1810   65.8020   14.3160 C.ar  125  TYR125      0.0417
    147  CZ        41.5620   65.8440   14.4300 C.ar  125  TYR125      0.1957
    148  OH        42.2420   64.9760   15.2600 O.3   125  TYR125     -0.2866
    149  N         39.5000   71.5830   10.4480 N.am  126  SER126     -0.1938
    150  CA        38.8730   72.6110    9.6240 C.3   126  SER126      0.2055
    151  C         39.5160   72.8220    8.2400 C.2   126  SER126      0.2643
    152  O         39.3840   73.9040    7.6550 O.2   126  SER126     -0.2714
    153  CB        38.8820   73.9250   10.4050 C.3   126  SER126      0.2130
    154  OG        40.2100   74.3660   10.6570 O.3   126  SER126     -0.2179
    155  N         40.1670   71.7940    7.7030 N.am  127  THR127     -0.1950
    156  CA        40.8640   71.9180    6.4230 C.3   127  THR127      0.1897
    157  C         39.9360   71.8200    5.2130 C.2   127  THR127      0.2313
    158  O         40.3070   72.2250    4.1150 O.2   127  THR127     -0.2863
    159  CB        42.0050   70.8960    6.2870 C.3   127  THR127      0.1794
    160  OG1       41.4800   69.5570    6.3710 O.3   127  THR127     -0.2208
    161  CG2       43.0410   71.1300    7.3870 C.3   127  THR127      0.0378
    162  N         33.4030   69.4510    6.3690 N.3   130  TYR130     -0.1241
    163  CA        33.0950   68.0600    6.6860 C.3   130  TYR130      0.1605
    164  C         31.6030   67.7620    6.9160 C.2   130  TYR130      0.2264
    165  O         31.2690   66.6860    7.3730 O.2   130  TYR130     -0.2867
    166  CB        33.8400   67.6400    7.9540 C.3   130  TYR130      0.0534
    167  CG        35.3260   67.8380    7.9430 C.ar  130  TYR130     -0.0201
    168  CD1       36.1800   66.8850    7.4030 C.ar  130  TYR130     -0.0009
    169  CD2       35.8760   68.9840    8.4870 C.ar  130  TYR130     -0.0009
    170  CE1       37.5470   67.0780    7.4160 C.ar  130  TYR130      0.0417
    171  CE2       37.2230   69.1900    8.5000 C.ar  130  TYR130      0.0417
    172  CZ        38.0520   68.2490    7.9770 C.ar  130  TYR130      0.1957
    173  OH        39.3870   68.5230    8.0530 O.3   130  TYR130     -0.2866
    174  N         30.1830   64.3060    5.8120 N.3   133  VAL133     -0.1231
    175  CA        30.9090   63.0670    6.0960 C.3   133  VAL133      0.1692
    176  C         29.9920   62.1020    6.8460 C.2   133  VAL133      0.2592
    177  O         29.3680   62.4730    7.8540 O.2   133  VAL133     -0.2718
    178  CB        32.1890   63.3280    6.9160 C.3   133  VAL133      0.0266
    179  CG1       32.7930   62.0220    7.4110 C.3   133  VAL133      0.0020
    180  CG2       33.1890   64.1280    6.0880 C.3   133  VAL133      0.0020
    181  N         29.9130   60.8680    6.3490 N.am  134  ASN134     -0.1960
    182  CA        29.0810   59.8550    6.9820 C.3   134  ASN134      0.1819
    183  C         29.8310   59.1210    8.0880 C.2   134  ASN134      0.2621
    184  O         30.9580   59.4760    8.4260 O.2   134  ASN134     -0.2715
    185  CB        28.5010   58.8870    5.9410 C.3   134  ASN134      0.1195
    186  CG        29.4760   57.7920    5.5140 C.2   134  ASN134      0.2630
    187  OD1       30.6690   57.8350    5.7890 O.2   134  ASN134     -0.2716
    188  ND2       28.9430   56.7910    4.8440 N.am  134  ASN134     -0.0877
    189  N         29.1880   58.1120    8.6590 N.am  135  MET135     -0.1977
    190  CA        29.7850   57.3540    9.7260 C.3   135  MET135      0.1605
    191  C         29.4330   55.8870    9.6230 C.2   135  MET135      0.2287
    192  O         28.2660   55.5370    9.4650 O.2   135  MET135     -0.2864
    193  CB        29.2840   57.8620   11.0690 C.3   135  MET135      0.0413
    194  CG        29.8830   57.1090   12.2310 C.3   135  MET135      0.0598
    195  SD        29.1390   57.6030   13.7810 S.3   135  MET135     -0.1393
    196  CE        27.5530   56.8050   13.6800 C.3   135  MET135      0.0692
@<TRIPOS>BOND
     1    36    37    1
     2    45    44    1
     3    37    38    1
     4    37    40    1
     5    39    38    2
     6    44    46    1
     7    44    43    2
     8    41    40    1
     9    41    42    1
    10   158   157    2
    11    42    43    1
    12   188   186   am
    13   157   156    1
    14   186   187    2
    15   186   185    1
    16   174   175    1
    17   185   182    1
    18    84    85    2
    19    84    83    1
    20   180   178    1
    21   175   176    1
    22   175   178    1
    23   159   160    1
    24   159   156    1
    25   159   161    1
    26   181   176   am
    27   181   182    1
    28    35    34    2
    29   162   163    1
    30    34    33    1
    31   156   155    1
    32    47    48    1
    33    31    29   am
    34   163   164    1
    35   163   166    1
    36   176   177    2
    37   164   165    2
    38   178   179    1
    39   182   183    1
    40    83    86    1
    41    83    82    1
    42    54    52    1
    43   168   170   ar
    44   168   167   ar
    45   170   172   ar
    46    29    30    2
    47    29    28    1
    48    52    53    1
    49    52    51    1
    50    86    87    1
    51    33    32    1
    52   152   151    2
    53   155   151   am
    54    48    51    1
    55    48    49    1
    56   167   166    1
    57   167   169   ar
    58   172   173    1
    59   172   171   ar
    60   183   184    2
    61   183   189   am
    62   151   150    1
    63    32    25   am
    64    28    27    1
    65    82    77   am
    66   169   171   ar
    67    50    49    2
    68   121   120    1
    69   189   190    1
    70    27    24    1
    71    49    55   am
    72    25    26    2
    73    25    24    1
    74   192   191    2
    75    77    78    2
    76    77    76    1
    77   191   190    1
    78   150   153    1
    79   150   149    1
    80   190   193    1
    81    24    23    1
    82   119   120    1
    83   119   118    1
    84    55    56    1
    85     1     7    1
    86     1     2    1
    87     4     3    2
    88    97    96   ar
    89    97    95   ar
    90    81    79    1
    91     7     6    1
    92    96    94   ar
    93    79    76    1
    94    79    80    1
    95   129   127    1
    96   153   154    1
    97    59    56    1
    98   149   139   am
    99    76    75    1
   100     3     2    1
   101    56    57    1
   102    23    18   am
   103     2     5    1
   104   193   194    1
   105   118   117    1
   106   127   126    1
   107    95    93   ar
   108   139   140    2
   109   139   138    1
   110    94    93   ar
   111   117   114    1
   112     6     5    1
   113   141   138    1
   114   141   142    1
   115    75    69   am
   116    18    19    2
   117    18    17    1
   118   122   123    1
   119    93    92    1
   120    57    58    2
   121    57    60   am
   122   194   195    1
   123   138   137    1
   124   126   123    1
   125   126   128    1
   126   114   115    1
   127   114   113    1
   128   142   143   ar
   129   142   144   ar
   130   143   145   ar
   131   123   124    1
   132   115   116    2
   133    69    70    2
   134    69    68    1
   135    60    61    1
   136    22    20    1
   137    17    20    1
   138    17    16    1
   139   144   146   ar
   140    88    89    1
   141    92    89    1
   142   196   195    1
   143   145   147   ar
   144   113   107   am
   145    20    21    1
   146    71    68    1
   147    71    72    1
   148    68    67    1
   149   124   125    2
   150   146   147   ar
   151    89    90    1
   152   147   148    1
   153    61    62    1
   154    61    64    1
   155   108   107    2
   156   107   106    1
   157    63    62    2
   158    65    64    1
   159    72    73   ar
   160    72    74   ar
   161    64    66    1
   162    90    91    2
   163    15    13    1
   164   104   102    1
   165   106   105    1
   166   106   109    1
   167   102   103    1
   168   102    99    1
   169    13    12    1
   170   105   100   am
   171   136   134    1
   172   110   109    1
   173   110   111    1
   174   100   101    2
   175   100    99    1
   176    12    14    1
   177    12     9    1
   178    99    98    1
   179   111   112    1
   180   135   134    1
   181   134   131    1
   182   130   131    1
   183     9     8    1
   184     9    10    1
   185   131   132    1
   186    11    10    2
   187   132   133    2
