@<TRIPOS>MOLECULE
tmp/5ca9A00.pdb
 179 173 0 0 0
SMALL
GASTEIGER

@<TRIPOS>ATOM
      1  N         -6.2860   24.3380  -26.8570 N.3    42  GLN42      -0.1231
      2  CA        -7.5810   24.3900  -27.4760 C.3    42  GLN42       0.1698
      3  C         -7.4770   24.8190  -28.9370 C.2    42  GLN42       0.2593
      4  O         -6.6980   25.6990  -29.3170 O.2    42  GLN42      -0.2718
      5  CB        -8.5060   25.3140  -26.7040 C.3    42  GLN42       0.0381
      6  CG        -9.9500   25.2490  -27.1380 C.3    42  GLN42       0.0905
      7  CD       -10.9070   25.7480  -26.0670 C.2    42  GLN42       0.2608
      8  OE1      -11.0660   25.1040  -25.0230 O.2    42  GLN42      -0.2717
      9  NE2      -11.5490   26.8950  -26.3140 N.am   42  GLN42      -0.0878
     10  N         -8.2370   24.1360  -29.7730 N.am   43  SER43      -0.1938
     11  CA        -8.2940   24.3890  -31.1840 C.3    43  SER43       0.2055
     12  C         -6.9760   24.4230  -31.9280 C.2    43  SER43       0.2644
     13  O         -6.7870   25.1960  -32.8640 O.2    43  SER43      -0.2714
     14  CB        -9.0610   25.6730  -31.3270 C.3    43  SER43       0.2130
     15  OG       -10.2230   25.5010  -30.5130 O.3    43  SER43      -0.2179
     16  N         -6.0400   23.5860  -31.5390 N.am   44  THR44      -0.1936
     17  CA        -4.8100   23.3720  -32.3670 C.3    44  THR44       0.2028
     18  C         -4.9900   22.3990  -33.5720 C.2    44  THR44       0.2643
     19  O         -3.9960   22.0690  -34.2300 O.2    44  THR44      -0.2714
     20  CB        -3.6820   22.7880  -31.5060 C.3    44  THR44       0.1808
     21  OG1       -4.1870   21.6710  -30.7390 O.3    44  THR44      -0.2208
     22  CG2       -3.1260   23.8580  -30.6060 C.3    44  THR44       0.0379
     23  N         -6.2360   21.9340  -33.8200 N.am   45  GLY45      -0.1939
     24  CA        -6.5880   21.1190  -34.9950 C.3    45  GLY45       0.2014
     25  C         -6.3010   19.6460  -34.7400 C.2    45  GLY45       0.2639
     26  O         -5.7370   18.9450  -35.5850 O.2    45  GLY45      -0.2714
     27  N         -6.7250   19.1550  -33.5860 N.am   46  LYS46      -0.1963
     28  CA        -6.3520   17.8210  -33.1470 C.3    46  LYS46       0.1728
     29  C         -7.3800   16.8480  -33.6440 C.2    46  LYS46       0.2617
     30  O         -7.1000   15.8580  -34.2500 O.2    46  LYS46      -0.2715
     31  CB        -6.3180   17.7710  -31.6040 C.3    46  LYS46       0.0311
     32  CG        -5.1290   18.4560  -30.9680 C.3    46  LYS46       0.0038
     33  CD        -5.0900   18.2950  -29.4530 C.3    46  LYS46       0.0206
     34  CE        -6.3950   18.7420  -28.7610 C.3    46  LYS46       0.1093
     35  NZ        -6.5410   20.2300  -28.5800 N.3    46  LYS46      -0.1314
     36  N         -8.6110   17.1330  -33.3400 N.am   47  SER47      -0.1936
     37  CA        -9.6750   16.3530  -33.8590 C.3    47  SER47       0.2055
     38  C         -9.5470   16.2690  -35.4110 C.2    47  SER47       0.2643
     39  O         -9.8620   15.2890  -36.0360 O.2    47  SER47      -0.2714
     40  CB       -10.9830   17.0210  -33.4100 C.3    47  SER47       0.2130
     41  OG       -11.0660   17.1230  -31.9770 O.3    47  SER47      -0.2179
     42  N         -9.0570   17.3270  -36.0110 N.am   48  THR48      -0.1950
     43  CA        -8.7960   17.3960  -37.4270 C.3    48  THR48       0.1897
     44  C         -7.6820   16.4190  -37.7950 C.2    48  THR48       0.2313
     45  O         -7.7870   15.6800  -38.7860 O.2    48  THR48      -0.2863
     46  CB        -8.4040   18.8420  -37.8190 C.3    48  THR48       0.1794
     47  OG1       -9.5720   19.6920  -37.7680 O.3    48  THR48      -0.2208
     48  CG2       -7.7630   18.8870  -39.1990 C.3    48  THR48       0.0378
     49  N        -15.3350   18.6940  -35.4560 N.3    60  VAL60      -0.1231
     50  CA       -14.2650   19.6890  -35.4380 C.3    60  VAL60       0.1692
     51  C        -14.9240   21.0360  -35.3360 C.2    60  VAL60       0.2591
     52  O        -16.1200   21.1380  -35.5450 O.2    60  VAL60      -0.2718
     53  CB       -13.3130   19.5720  -36.6460 C.3    60  VAL60       0.0266
     54  CG1      -12.3360   18.4440  -36.4310 C.3    60  VAL60       0.0020
     55  CG2      -14.0830   19.3250  -37.9240 C.3    60  VAL60       0.0020
     56  N        -14.1530   22.0530  -34.9570 N.am   61  MET61      -0.1979
     57  CA       -14.6920   23.4130  -34.6710 C.3    61  MET61       0.1605
     58  C        -15.2810   23.9570  -35.9260 C.2    61  MET61       0.2287
     59  O        -14.6000   23.9620  -36.9400 O.2    61  MET61      -0.2864
     60  CB       -13.5500   24.3430  -34.2080 C.3    61  MET61       0.0413
     61  CG       -13.9360   25.7960  -33.8520 C.3    61  MET61       0.0598
     62  SD       -12.5620   26.9360  -33.7690 S.3    61  MET61      -0.1393
     63  CE       -11.5210   26.1540  -32.6360 C.3    61  MET61       0.0692
     64  N        -15.9170   27.0740  -38.1460 N.3    63  GLU63      -0.1245
     65  CA       -14.9540   28.1470  -38.1570 C.3    63  GLU63       0.1567
     66  C        -15.5660   29.5270  -37.9980 C.2    63  GLU63       0.2260
     67  O        -14.8690   30.5180  -37.8090 O.2    63  GLU63      -0.2867
     68  CB       -14.1080   28.0190  -39.4100 C.3    63  GLU63       0.0388
     69  CG       -13.4530   26.6490  -39.4620 C.3    63  GLU63       0.1160
     70  CD       -12.6490   26.4100  -40.7070 C.2    63  GLU63       0.3649
     71  OE1      -13.1720   26.8130  -41.7840 O.co2  63  GLU63      -0.2457
     72  OE2      -11.5230   25.8180  -40.6000 O.co2  63  GLU63      -0.2457
     73  N        -14.2490   30.8370  -32.9970 N.3    66  ARG66      -0.1245
     74  CA       -13.2540   30.0930  -32.2010 C.3    66  ARG66       0.1563
     75  C        -13.7120   29.7530  -30.7740 C.2    66  ARG66       0.2260
     76  O        -13.9240   30.6520  -29.9290 O.2    66  ARG66      -0.2867
     77  CB       -11.9250   30.8220  -32.1400 C.3    66  ARG66       0.0307
     78  CG       -11.2370   30.8380  -33.4710 C.3    66  ARG66       0.0489
     79  CD        -9.8090   31.3310  -33.3460 C.3    66  ARG66       0.2205
     80  NE        -8.8510   30.3550  -32.8070 N.pl3  66  ARG66      -0.0865
     81  CZ        -8.2090   29.4270  -33.5190 C.cat  66  ARG66       0.5346
     82  NH1       -8.4400   29.2280  -34.8290 N.pl3  66  ARG66       0.1354
     83  NH2       -7.3330   28.6710  -32.9040 N.pl3  66  ARG66       0.1354
     84  N        -14.3760   22.5630  -28.6920 N.3    69  THR69      -0.1203
     85  CA       -15.1970   21.6470  -29.4740 C.3    69  THR69       0.1994
     86  C        -15.2010   20.2160  -28.9410 C.2    69  THR69       0.2618
     87  O        -16.2200   19.7460  -28.4870 O.2    69  THR69      -0.2717
     88  CB       -14.7900   21.6840  -30.9390 C.3    69  THR69       0.1784
     89  OG1      -14.8230   23.0380  -31.4060 O.3    69  THR69      -0.2211
     90  CG2      -15.7330   20.8100  -31.7970 C.3    69  THR69       0.0376
     91  N        -14.0850   19.5190  -29.0050 N.am   70  THR70      -0.1952
     92  CA       -13.9480   18.2950  -28.2650 C.3    70  THR70       0.1897
     93  C        -14.1820   18.5900  -26.7670 C.2    70  THR70       0.2313
     94  O        -13.5390   19.4800  -26.1660 O.2    70  THR70      -0.2863
     95  CB       -12.5410   17.6640  -28.4270 C.3    70  THR70       0.1794
     96  OG1      -11.9290   17.9610  -29.7220 O.3    70  THR70      -0.2208
     97  CG2      -12.6620   16.1450  -28.1790 C.3    70  THR70       0.0378
     98  N         -9.0030   19.9630  -25.6310 N.3   101  GLY101     -0.1225
     99  CA        -7.7640   20.7610  -25.6880 C.3   101  GLY101      0.1811
    100  C         -7.4980   21.5950  -24.4500 C.2   101  GLY101      0.2280
    101  O         -8.4500   22.1570  -23.8760 O.2   101  GLY101     -0.2866
    102  N          1.5820   24.2710  -32.2460 N.3   133  TRP133     -0.1241
    103  CA         1.8490   25.1270  -33.3830 C.3   133  TRP133      0.1605
    104  C          3.3070   25.4150  -33.3350 C.2   133  TRP133      0.2264
    105  O          3.8870   25.4320  -32.2560 O.2   133  TRP133     -0.2867
    106  CB         1.1210   26.4220  -33.3120 C.3   133  TRP133      0.0550
    107  CG        -0.3640   26.4040  -33.2210 C.ar  133  TRP133      0.0003
    108  CD1       -1.0810   26.8790  -32.1710 C.ar  133  TRP133      0.0946
    109  CD2       -1.3140   26.0500  -34.2170 C.ar  133  TRP133      0.0152
    110  NE1       -2.4270   26.8380  -32.4420 N.ar  133  TRP133     -0.2442
    111  CE2       -2.6060   26.3020  -33.6890 C.ar  133  TRP133      0.0810
    112  CE3       -1.2130   25.5620  -35.4750 C.ar  133  TRP133      0.0012
    113  CZ2       -3.7980   26.0240  -34.3700 C.ar  133  TRP133      0.0191
    114  CZ3       -2.4080   25.3250  -36.2050 C.ar  133  TRP133      0.0001
    115  CH2       -3.6740   25.5480  -35.6220 C.ar  133  TRP133      0.0015
    116  N          2.2450   21.6240  -36.0330 N.3   179  ARG179     -0.1231
    117  CA         1.3270   22.2900  -36.9800 C.3   179  ARG179      0.1694
    118  C          1.4590   23.7530  -37.4420 C.2   179  ARG179      0.2592
    119  O          1.8610   24.6050  -36.6860 O.2   179  ARG179     -0.2718
    120  CB        -0.0100   22.4900  -36.2480 C.3   179  ARG179      0.0321
    121  CG        -0.6130   21.1890  -35.6960 C.3   179  ARG179      0.0489
    122  CD        -0.6220   20.0810  -36.7610 C.3   179  ARG179      0.2205
    123  NE        -1.7860   20.2470  -37.6210 N.pl3 179  ARG179     -0.0865
    124  CZ        -3.0070   19.8740  -37.2610 C.cat 179  ARG179      0.5346
    125  NH1       -3.2070   19.2850  -36.0840 N.pl3 179  ARG179      0.1354
    126  NH2       -4.0360   20.0660  -38.0740 N.pl3 179  ARG179      0.1354
    127  N          1.0730   24.0140  -38.6980 N.am  180  ASP180     -0.1974
    128  CA         1.3960   25.2210  -39.5310 C.3   180  ASP180      0.1709
    129  C          2.8830   25.5520  -39.6780 C.2   180  ASP180      0.2293
    130  O          3.3220   26.6400  -39.5960 O.2   180  ASP180     -0.2864
    131  CB         0.5250   26.4450  -39.3060 C.3   180  ASP180      0.1436
    132  CG        -0.9880   26.1670  -39.5130 C.2   180  ASP180      0.3671
    133  OD1       -1.4190   25.0880  -40.0170 O.co2 180  ASP180     -0.2456
    134  OD2       -1.7680   27.0860  -39.1910 O.co2 180  ASP180     -0.2456
    135  N          2.6310   21.2120  -42.7180 N.3   228  ASN228     -0.1225
    136  CA         2.3910   22.5270  -43.3260 C.3   228  ASN228      0.1785
    137  C          1.0280   23.0710  -43.0620 C.2   228  ASN228      0.2597
    138  O          0.1530   22.3810  -42.6160 O.2   228  ASN228     -0.2718
    139  CB         2.5640   22.4530  -44.8530 C.3   228  ASN228      0.1169
    140  CG         3.9560   22.1070  -45.2730 C.2   228  ASN228      0.2627
    141  OD1        4.1240   21.3280  -46.1480 O.2   228  ASN228     -0.2716
    142  ND2        4.9470   22.6670  -44.6510 N.am  228  ASN228     -0.0877
    143  N          0.8680   24.3240  -43.3930 N.am  229  HIS229     -0.1961
    144  CA        -0.3670   24.9930  -43.1810 C.3   229  HIS229      0.1787
    145  C         -1.5050   24.2800  -43.8850 C.2   229  HIS229      0.2620
    146  O         -1.5470   24.1900  -45.0620 O.2   229  HIS229     -0.2715
    147  CB        -0.2710   26.4520  -43.6340 C.3   229  HIS229      0.0785
    148  CG        -1.3280   27.3040  -43.0400 C.ar  229  HIS229      0.0821
    149  ND1       -2.6550   27.1530  -43.3660 N.ar  229  HIS229     -0.2267
    150  CD2       -1.2750   28.2480  -42.0760 C.ar  229  HIS229      0.1154
    151  CE1       -3.3800   27.9950  -42.6530 C.ar  229  HIS229      0.1986
    152  NE2       -2.5670   28.6560  -41.8440 N.ar  229  HIS229     -0.2212
    153  N         -2.4330   23.7730  -43.1090 N.am  230  LYS230     -0.1963
    154  CA        -3.5330   23.0510  -43.6880 C.3   230  LYS230      0.1728
    155  C         -4.3280   23.9690  -44.6170 C.2   230  LYS230      0.2616
    156  O         -4.4950   23.6320  -45.7590 O.2   230  LYS230     -0.2715
    157  CB        -4.4290   22.3680  -42.6310 C.3   230  LYS230      0.0311
    158  CG        -5.9050   22.2300  -43.0440 C.3   230  LYS230      0.0038
    159  CD        -6.8010   21.8700  -41.8640 C.3   230  LYS230      0.0206
    160  CE        -8.2300   22.3670  -42.0400 C.3   230  LYS230      0.1093
    161  NZ        -8.8880   21.6680  -43.2010 N.3   230  LYS230     -0.1314
    162  N         -4.8400   25.1000  -44.1800 N.am  231  VAL231     -0.1977
    163  CA        -5.5960   25.9460  -45.1170 C.3   231  VAL231      0.1596
    164  C         -4.8010   26.5330  -46.3230 C.2   231  VAL231      0.2287
    165  O         -5.2650   26.4740  -47.4670 O.2   231  VAL231     -0.2864
    166  CB        -6.3450   27.0790  -44.4530 C.3   231  VAL231      0.0276
    167  CG1       -7.2080   27.7710  -45.4810 C.3   231  VAL231      0.0022
    168  CG2       -7.2670   26.5360  -43.3920 C.3   231  VAL231      0.0022
    169  N          0.0890   19.6980  -46.8000 N.3   237  PHE237     -0.1241
    170  CA        -0.4960   19.2020  -45.5780 C.3   237  PHE237      0.1605
    171  C         -0.8560   17.7220  -45.7860 C.2   237  PHE237      0.2264
    172  O         -0.2240   16.8410  -45.2240 O.2   237  PHE237     -0.2867
    173  CB        -1.7110   20.0260  -45.2170 C.3   237  PHE237      0.0534
    174  CG        -2.4160   19.5640  -43.9820 C.ar  237  PHE237     -0.0203
    175  CD1       -1.8110   19.6790  -42.7570 C.ar  237  PHE237     -0.0042
    176  CD2       -3.7170   19.0590  -44.0480 C.ar  237  PHE237     -0.0042
    177  CE1       -2.4760   19.2470  -41.6120 C.ar  237  PHE237     -0.0003
    178  CE2       -4.3990   18.6440  -42.9230 C.ar  237  PHE237     -0.0003
    179  CZ        -3.7900   18.7450  -41.6950 C.ar  237  PHE237     -0.0000
@<TRIPOS>BOND
     1   165   164    2
     2   169   170    1
     3   164   163    1
     4   141   140    2
     5   171   170    1
     6   171   172    2
     7   156   155    2
     8   170   173    1
     9   167   166    1
    10   140   139    1
    11   140   142   am
    12   173   174    1
    13   163   166    1
    14   163   162    1
    15   146   145    2
    16   139   136    1
    17   155   162   am
    18   155   154    1
    19   166   168    1
    20   176   174   ar
    21   176   178   ar
    22   174   175   ar
    23   145   144    1
    24   145   153   am
    25   154   153    1
    26   154   157    1
    27   147   144    1
    28   147   148    1
    29   143   144    1
    30   143   137   am
    31   149   148   ar
    32   149   151   ar
    33   136   137    1
    34   136   135    1
    35   161   160    1
    36   137   138    2
    37   158   157    1
    38   158   159    1
    39   148   150   ar
    40   178   179   ar
    41   175   177   ar
    42   151   152   ar
    43   150   152   ar
    44   160   159    1
    45    71    70   ar
    46   179   177   ar
    47    70    72   ar
    48    70    69    1
    49   133   132   ar
    50   129   130    2
    51   129   128    1
    52   128   131    1
    53   128   127    1
    54   132   131    1
    55   132   134   ar
    56    69    68    1
    57    68    65    1
    58    48    46    1
    59    45    44    2
    60   127   118   am
    61    65    64    1
    62    65    66    1
    63   126   124    1
    64    66    67    2
    65    55    53    1
    66    46    47    1
    67    46    43    1
    68    44    43    1
    69   123   124    2
    70   123   122    1
    71   118   117    1
    72   118   119    2
    73    43    42    1
    74   124   125    1
    75   117   120    1
    76   117   116    1
    77    59    58    2
    78   122   121    1
    79    53    54    1
    80    53    50    1
    81   120   121    1
    82   114   115   ar
    83   114   112   ar
    84    39    38    2
    85    42    38   am
    86    58    57    1
    87   115   113   ar
    88    26    25    2
    89    52    51    2
    90   112   109   ar
    91    49    50    1
    92    50    51    1
    93    38    37    1
    94    51    56   am
    95    24    25    1
    96    24    23    1
    97    56    57    1
    98    82    81    1
    99    25    27   am
   100    57    60    1
   101   113   111   ar
   102    30    29    2
   103    19    18    2
   104   109   111   ar
   105   109   107   ar
   106    60    61    1
   107    37    40    1
   108    37    36    1
   109    61    62    1
   110    23    18   am
   111    62    63    1
   112   111   110   ar
   113    29    36   am
   114    29    28    1
   115    27    28    1
   116    18    17    1
   117    81    83    1
   118    81    80    2
   119    78    79    1
   120    78    77    1
   121    40    41    1
   122   103   104    1
   123   103   106    1
   124   103   102    1
   125    79    80    1
   126   104   105    2
   127   106   107    1
   128   107   108   ar
   129    28    31    1
   130    73    74    1
   131    13    12    2
   132   110   108   ar
   133    17    16    1
   134    17    20    1
   135    74    77    1
   136    74    75    1
   137    12    16   am
   138    12    11    1
   139    90    88    1
   140    31    32    1
   141    20    21    1
   142    20    22    1
   143    89    88    1
   144    14    11    1
   145    14    15    1
   146    11    10    1
   147    32    33    1
   148    88    85    1
   149    75    76    2
   150    10     3   am
   151    96    95    1
   152    85    86    1
   153    85    84    1
   154    33    34    1
   155     4     3    2
   156    91    86   am
   157    91    92    1
   158    86    87    2
   159     3     2    1
   160    34    35    1
   161    95    92    1
   162    95    97    1
   163    92    93    1
   164     2     1    1
   165     2     5    1
   166     6     5    1
   167     6     7    1
   168    93    94    2
   169     9     7   am
   170     7     8    2
   171    99    98    1
   172    99   100    1
   173   100   101    2
