@<TRIPOS>MOLECULE
tmp/5cadA00.pdb
 146 135 0 0 0
SMALL
GASTEIGER

@<TRIPOS>ATOM
      1  N         18.3750   45.9160   75.3470 N.3    26  PHE26      -0.1241
      2  CA        17.5150   46.9500   74.8140 C.3    26  PHE26       0.1605
      3  C         17.3350   47.8470   76.0120 C.2    26  PHE26       0.2264
      4  O         16.7360   47.4420   77.0090 O.2    26  PHE26      -0.2867
      5  CB        16.1450   46.4290   74.3590 C.3    26  PHE26       0.0534
      6  CG        15.1520   47.5360   74.0890 C.ar   26  PHE26      -0.0203
      7  CD1       15.5000   48.6140   73.2750 C.ar   26  PHE26      -0.0042
      8  CD2       13.8890   47.5200   74.6680 C.ar   26  PHE26      -0.0042
      9  CE1       14.6050   49.6600   73.0480 C.ar   26  PHE26      -0.0003
     10  CE2       12.9860   48.5620   74.4470 C.ar   26  PHE26      -0.0003
     11  CZ        13.3480   49.6330   73.6370 C.ar   26  PHE26      -0.0000
     12  N         16.3670   51.8740   77.4110 N.3    28  ILE28      -0.1245
     13  CA        15.7020   53.1060   77.0610 C.3    28  ILE28       0.1561
     14  C         15.8630   54.1790   78.1230 C.2    28  ILE28       0.2260
     15  O         15.8540   53.9040   79.3280 O.2    28  ILE28      -0.2867
     16  CB        14.2080   52.7810   76.7930 C.3    28  ILE28       0.0252
     17  CG1       13.4460   53.9940   76.2690 C.3    28  ILE28       0.0019
     18  CG2       13.5680   52.2430   78.0540 C.3    28  ILE28       0.0019
     19  CD1       12.0190   53.6470   75.8220 C.3    28  ILE28       0.0001
     20  N         16.5140   55.1760   72.7110 N.3    48  SER48      -0.1217
     21  CA        16.9480   53.8990   73.2400 C.3    48  SER48       0.1889
     22  C         18.0870   53.3390   72.4170 C.2    48  SER48       0.2288
     23  O         18.4560   53.8840   71.3750 O.2    48  SER48      -0.2866
     24  CB        15.7780   52.9120   73.2160 C.3    48  SER48       0.2089
     25  OG        15.2630   52.7550   71.9020 O.3    48  SER48      -0.2183
     26  N         19.6920   49.4500   71.0610 N.3    50  ILE50      -0.1245
     27  CA        19.5090   48.0170   70.8880 C.3    50  ILE50       0.1561
     28  C         20.8920   47.4950   70.5520 C.2    50  ILE50       0.2260
     29  O         21.5530   48.0110   69.6420 O.2    50  ILE50      -0.2867
     30  CB        18.5780   47.6490   69.7060 C.3    50  ILE50       0.0252
     31  CG1       17.1700   48.2060   69.9370 C.3    50  ILE50       0.0019
     32  CG2       18.5440   46.1230   69.5460 C.3    50  ILE50       0.0019
     33  CD1       16.2220   47.9760   68.7760 C.3    50  ILE50       0.0001
     34  N         16.8120   38.6680   68.0120 N.3    58  MET58      -0.1245
     35  CA        15.8610   39.3020   68.9170 C.3    58  MET58       0.1570
     36  C         14.4780   38.8620   68.4590 C.2    58  MET58       0.2261
     37  O         14.1200   39.0140   67.2850 O.2    58  MET58      -0.2867
     38  CB        15.9600   40.8250   68.8850 C.3    58  MET58       0.0387
     39  CG        14.9610   41.4740   69.8180 C.3    58  MET58       0.0595
     40  SD        15.0860   43.2510   69.8710 S.3    58  MET58      -0.1393
     41  CE        14.0140   43.6260   71.2710 C.3    58  MET58       0.0692
     42  N          8.3650   41.1800   67.9580 N.3    61  HIS61      -0.1226
     43  CA         7.6170   42.0560   68.8580 C.3    61  HIS61       0.1752
     44  C          7.2860   43.3220   68.0960 C.2    61  HIS61       0.2596
     45  O          7.8850   43.6020   67.0600 O.2    61  HIS61      -0.2718
     46  CB         8.4830   42.4750   70.0470 C.3    61  HIS61       0.0759
     47  CG         9.6870   43.2660   69.6430 C.ar   61  HIS61       0.0818
     48  ND1       10.8000   42.6820   69.0770 N.ar   61  HIS61      -0.2268
     49  CD2        9.9250   44.6000   69.6470 C.ar   61  HIS61       0.1154
     50  CE1       11.6710   43.6200   68.7520 C.ar   61  HIS61       0.1986
     51  NE2       11.1650   44.7930   69.0840 N.ar   61  HIS61      -0.2212
     52  N          6.3330   44.0860   68.6130 N.am   62  HIS62      -0.1961
     53  CA         6.0030   45.3660   68.0030 C.3    62  HIS62       0.1787
     54  C          6.0180   46.3940   69.1170 C.2    62  HIS62       0.2620
     55  O          6.0950   46.0430   70.2920 O.2    62  HIS62      -0.2715
     56  CB         4.6410   45.3560   67.2750 C.3    62  HIS62       0.0785
     57  CG         3.4470   45.1870   68.1670 C.ar   62  HIS62       0.0821
     58  ND1        2.9240   43.9520   68.4720 N.ar   62  HIS62      -0.2267
     59  CD2        2.6100   46.0980   68.7220 C.ar   62  HIS62       0.1154
     60  CE1        1.8130   44.1040   69.1700 C.ar   62  HIS62       0.1986
     61  NE2        1.5970   45.3980   69.3350 N.ar   62  HIS62      -0.2212
     62  N          6.0040   47.6640   68.7410 N.am   63  CYS63      -0.1968
     63  CA         5.9910   48.7400   69.7170 C.3    63  CYS63       0.1712
     64  C          4.8590   49.6740   69.3730 C.2    63  CYS63       0.2296
     65  O          4.3750   49.6760   68.2370 O.2    63  CYS63      -0.2864
     66  CB         7.3010   49.5190   69.6920 C.3    63  CYS63       0.0983
     67  SG         8.6750   48.6000   70.3630 S.3    63  CYS63      -0.0798
     68  N          5.0920   52.8670   69.3070 N.3    65  GLY65      -0.1225
     69  CA         5.7260   54.1430   69.0300 C.3    65  GLY65       0.1811
     70  C          6.2340   54.1310   67.6010 C.2    65  GLY65       0.2280
     71  O          6.6070   53.0740   67.0930 O.2    65  GLY65      -0.2866
     72  N          9.0080   54.8220   65.1020 N.3    67  ALA67      -0.1245
     73  CA        10.4460   54.8640   65.3400 C.3    67  ALA67       0.1562
     74  C         11.3570   55.1460   64.1660 C.2    67  ALA67       0.2260
     75  O         10.9570   55.0340   63.0110 O.2    67  ALA67      -0.2867
     76  CB        10.8800   53.5440   65.9670 C.3    67  ALA67       0.0290
     77  N         15.2950   54.0170   63.3050 N.3    69  PHE69      -0.1241
     78  CA        16.4360   53.2030   63.7000 C.3    69  PHE69       0.1605
     79  C         17.6650   53.7290   62.9630 C.2    69  PHE69       0.2264
     80  O         17.6010   53.9720   61.7580 O.2    69  PHE69      -0.2867
     81  CB        16.2330   51.7380   63.2660 C.3    69  PHE69       0.0534
     82  CG        15.4220   50.8840   64.2160 C.ar   69  PHE69      -0.0203
     83  CD1       14.4030   51.4190   64.9990 C.ar   69  PHE69      -0.0042
     84  CD2       15.6510   49.5070   64.2670 C.ar   69  PHE69      -0.0042
     85  CE1       13.6200   50.5920   65.8190 C.ar   69  PHE69      -0.0003
     86  CE2       14.8770   48.6750   65.0770 C.ar   69  PHE69      -0.0003
     87  CZ        13.8620   49.2170   65.8530 C.ar   69  PHE69      -0.0000
     88  N         10.5300   53.1280   60.9570 N.3    99  LEU99      -0.1245
     89  CA         9.7120   51.9560   61.2380 C.3    99  LEU99       0.1561
     90  C          8.3530   52.4030   61.7580 C.2    99  LEU99       0.2260
     91  O          8.2630   53.0610   62.7970 O.2    99  LEU99      -0.2867
     92  CB        10.4020   51.0840   62.2880 C.3    99  LEU99       0.0270
     93  CG         9.7540   49.7480   62.6370 C.3    99  LEU99       0.0019
     94  CD1        9.9160   48.7560   61.4860 C.3    99  LEU99       0.0001
     95  CD2       10.4110   49.2210   63.8990 C.3    99  LEU99       0.0001
     96  N          4.6300   47.7710   63.7980 N.3   103  SER103     -0.1217
     97  CA         5.2650   46.8230   62.8960 C.3   103  SER103      0.1889
     98  C          5.9270   45.7340   63.7210 C.2   103  SER103      0.2288
     99  O          6.7030   46.0270   64.6300 O.2   103  SER103     -0.2866
    100  CB         6.3270   47.5180   62.0430 C.3   103  SER103      0.2089
    101  OG         5.7410   48.4110   61.1110 O.3   103  SER103     -0.2183
    102  N          8.6060   43.2210   64.3190 N.3   105  ILE105     -0.1245
    103  CA         9.9460   43.0390   63.7960 C.3   105  ILE105      0.1561
    104  C         10.7900   42.0620   64.5810 C.2   105  ILE105      0.2260
    105  O         10.4930   41.7530   65.7320 O.2   105  ILE105     -0.2867
    106  CB        10.7600   44.3780   63.8040 C.3   105  ILE105      0.0252
    107  CG1       11.0260   44.8270   65.2460 C.3   105  ILE105      0.0019
    108  CG2       10.0010   45.4620   63.0530 C.3   105  ILE105      0.0019
    109  CD1       12.1180   45.8830   65.3810 C.3   105  ILE105      0.0001
    110  N         17.9150   54.3940   68.5950 N.3   120  VAL120     -0.1245
    111  CA        16.5130   54.5210   68.2220 C.3   120  VAL120      0.1561
    112  C         15.7850   55.7310   68.7940 C.2   120  VAL120      0.2260
    113  O         15.9440   56.0550   69.9680 O.2   120  VAL120     -0.2867
    114  CB        15.7450   53.2580   68.7050 C.3   120  VAL120      0.0252
    115  CG1       14.2910   53.3080   68.2720 C.3   120  VAL120      0.0019
    116  CG2       16.4430   52.0120   68.1960 C.3   120  VAL120      0.0019
    117  N         11.8940   57.1430   69.2640 N.3   122  ALA122     -0.1245
    118  CA        10.5110   56.6930   69.1290 C.3   122  ALA122      0.1562
    119  C          9.5970   57.7990   69.6300 C.2   122  ALA122      0.2260
    120  O          9.9660   58.5730   70.5160 O.2   122  ALA122     -0.2867
    121  CB        10.2560   55.3960   69.9180 C.3   122  ALA122      0.0290
    122  N          6.2330   54.4590   75.5990 N.3   131  VAL131     -0.1231
    123  CA         6.4130   53.5420   74.4740 C.3   131  VAL131      0.1692
    124  C          6.7330   52.1620   75.0340 C.2   131  VAL131      0.2592
    125  O          7.7370   51.9670   75.7230 O.2   131  VAL131     -0.2718
    126  CB         7.5420   53.9970   73.5230 C.3   131  VAL131      0.0266
    127  CG1        7.6740   53.0140   72.3660 C.3   131  VAL131      0.0020
    128  CG2        7.2400   55.3840   72.9870 C.3   131  VAL131      0.0020
    129  N          5.8550   51.2120   74.7280 N.am  132  GLN132     -0.1966
    130  CA         5.9700   49.8450   75.2170 C.3   132  GLN132      0.1733
    131  C          6.2110   48.8100   74.1270 C.2   132  GLN132      0.2616
    132  O          5.8620   49.0180   72.9610 O.2   132  GLN132     -0.2715
    133  CB         4.6900   49.4700   75.9640 C.3   132  GLN132      0.0408
    134  CG         4.4580   50.2340   77.2500 C.3   132  GLN132      0.0908
    135  CD         5.4050   49.8120   78.3470 C.2   132  GLN132      0.2608
    136  OE1        5.3740   48.6700   78.8080 O.2   132  GLN132     -0.2717
    137  NE2        6.2610   50.7310   78.7720 N.am  132  GLN132     -0.0878
    138  N          6.8000   47.6870   74.5260 N.am  133  GLU133     -0.1977
    139  CA         7.0820   46.5900   73.6130 C.3   133  GLU133      0.1602
    140  C          6.0410   45.4940   73.8500 C.2   133  GLU133      0.2287
    141  O          5.6680   45.2060   74.9910 O.2   133  GLU133     -0.2864
    142  CB         8.5010   46.0410   73.8510 C.3   133  GLU133      0.0415
    143  CG         8.6870   45.2520   75.1550 C.3   133  GLU133      0.1163
    144  CD         9.0420   46.1010   76.3770 C.2   133  GLU133      0.3649
    145  OE1        8.6360   47.2790   76.4670 O.co2 133  GLU133     -0.2457
    146  OE2        9.7230   45.5640   77.2740 O.co2 133  GLU133     -0.2457
@<TRIPOS>BOND
     1    88    89    1
     2   101   100    1
     3    89    90    1
     4    89    92    1
     5    94    93    1
     6    80    79    2
     7    90    91    2
     8   100    97    1
     9    92    93    1
    10    93    95    1
    11    97    98    1
    12    97    96    1
    13    79    78    1
    14    75    74    2
    15   108   106    1
    16    81    78    1
    17    81    82    1
    18    77    78    1
    19    98    99    2
    20   103   106    1
    21   103   102    1
    22   103   104    1
    23   106   107    1
    24    74    73    1
    25    82    84   ar
    26    82    83   ar
    27    84    86   ar
    28   104   105    2
    29    83    85   ar
    30    86    87   ar
    31    72    73    1
    32   107   109    1
    33    73    76    1
    34    85    87   ar
    35    45    44    2
    36    71    70    2
    37    56    53    1
    38    56    57    1
    39    37    36    2
    40    70    69    1
    41    42    43    1
    42    53    52    1
    43    53    54    1
    44    34    35    1
    45    44    52   am
    46    44    43    1
    47    57    58   ar
    48    57    59   ar
    49   116   114    1
    50   111   110    1
    51   111   114    1
    52   111   112    1
    53    65    64    2
    54   115   114    1
    55    36    35    1
    56    58    60   ar
    57    59    61   ar
    58    62    54   am
    59    62    63    1
    60    50    48   ar
    61    50    51   ar
    62    33    31    1
    63   112   113    2
    64    43    46    1
    65    38    35    1
    66    38    39    1
    67    69    68    1
    68    48    47   ar
    69    51    49   ar
    70    54    55    2
    71   118   117    1
    72   118   119    1
    73   118   121    1
    74    60    61   ar
    75    64    63    1
    76    32    30    1
    77   119   120    2
    78    29    28    2
    79    47    49   ar
    80    47    46    1
    81    66    63    1
    82    66    67    1
    83    30    31    1
    84    30    27    1
    85    39    40    1
    86    40    41    1
    87    28    27    1
    88    27    26    1
    89    23    22    2
    90    25    24    1
    91   127   126    1
    92    22    21    1
    93    20    21    1
    94   132   131    2
    95   128   126    1
    96     9     7   ar
    97     9    11   ar
    98    24    21    1
    99     7     6   ar
   100   126   123    1
   101   139   140    1
   102   139   142    1
   103   139   138    1
   104    11    10   ar
   105   140   141    2
   106   142   143    1
   107     6     5    1
   108     6     8   ar
   109   131   138   am
   110   131   130    1
   111     5     2    1
   112    10     8   ar
   113   123   124    1
   114   123   122    1
   115   129   124   am
   116   129   130    1
   117     2     1    1
   118     2     3    1
   119   124   125    2
   120   143   144    1
   121   130   133    1
   122    19    17    1
   123   133   134    1
   124     3     4    2
   125    17    16    1
   126   144   145   ar
   127   144   146   ar
   128    16    13    1
   129    16    18    1
   130    13    12    1
   131    13    14    1
   132   134   135    1
   133    14    15    2
   134   135   137   am
   135   135   136    2
