@<TRIPOS>MOLECULE
tmp/5caeB00.pdb
 63 59 0 0 0
SMALL
GASTEIGER

@<TRIPOS>ATOM
      1  N         19.7320  -14.0370   25.1070 N.3   270  ASN270     -0.1225
      2  CA        19.7540  -12.6280   25.4800 C.3   270  ASN270      0.1785
      3  C         19.7550  -11.6780   24.2850 C.2   270  ASN270      0.2598
      4  O         19.9460  -10.4720   24.4710 O.2   270  ASN270     -0.2718
      5  CB        20.9680  -12.3330   26.3640 C.3   270  ASN270      0.1169
      6  CG        22.2730  -12.3860   25.5960 C.2   270  ASN270      0.2627
      7  OD1       22.5560  -13.3600   24.8990 O.2   270  ASN270     -0.2716
      8  ND2       23.0740  -11.3290   25.7120 N.am  270  ASN270     -0.0877
      9  N         19.5510  -12.1750   23.0760 N.am  271  GLY271     -0.1942
     10  CA        19.5100  -11.3090   21.9090 C.3   271  GLY271      0.2014
     11  C         18.4990  -11.8090   20.9060 C.2   271  GLY271      0.2638
     12  O         18.2650  -13.0150   20.7840 O.2   271  GLY271     -0.2714
     13  N         17.8910  -10.8720   20.1780 N.am  272  ALA272     -0.1977
     14  CA        16.9140  -11.2530   19.1630 C.3   272  ALA272      0.1597
     15  C         17.5770  -12.0130   18.0210 C.2   272  ALA272      0.2287
     16  O         17.0650  -13.0430   17.5670 O.2   272  ALA272     -0.2864
     17  CB        16.1860  -10.0160   18.6380 C.3   272  ALA272      0.0319
     18  N         13.7310  -13.6230   23.7120 N.3   294  ASP294     -0.1239
     19  CA        14.6970  -12.5340   23.6450 C.3   294  ASP294      0.1674
     20  C         14.6540  -11.7930   24.9750 C.2   294  ASP294      0.2266
     21  O         13.6810  -11.0900   25.2690 O.2   294  ASP294     -0.2867
     22  CB        14.3900  -11.6040   22.4760 C.3   294  ASP294      0.1410
     23  CG        15.3110  -10.4020   22.4260 C.2   294  ASP294      0.3668
     24  OD1       16.4320  -10.4770   22.9770 O.co2 294  ASP294     -0.2456
     25  OD2       14.9130   -9.3820   21.8240 O.co2 294  ASP294     -0.2456
     26  N         16.9980   -9.2710   26.5560 N.3   296  GLY296     -0.1210
     27  CA        18.1640   -8.4120   26.4440 C.3   296  GLY296      0.1956
     28  C         18.1180   -7.1430   27.2740 C.2   296  GLY296      0.2612
     29  O         17.4410   -7.0890   28.3050 O.2   296  GLY296     -0.2717
     30  N         18.8380   -6.1140   26.8330 N.am  297  GLY297     -0.1956
     31  CA        18.9020   -4.8740   27.5820 C.3   297  GLY297      0.1869
     32  C         19.5410   -5.0830   28.9430 C.2   297  GLY297      0.2309
     33  O         20.3070   -6.0250   29.1720 O.2   297  GLY297     -0.2863
     34  N         25.4880  -14.4820   24.9720 N.3   325  PHE325     -0.1241
     35  CA        26.6890  -13.7080   24.6680 C.3   325  PHE325      0.1605
     36  C         26.4220  -12.3090   25.2110 C.2   325  PHE325      0.2264
     37  O         25.7830  -11.4820   24.5500 O.2   325  PHE325     -0.2867
     38  CB        27.0200  -13.7000   23.1770 C.3   325  PHE325      0.0534
     39  CG        28.5040  -13.6290   22.8910 C.ar  325  PHE325     -0.0203
     40  CD1       29.3300  -12.7910   23.6290 C.ar  325  PHE325     -0.0042
     41  CD2       29.0740  -14.4220   21.9040 C.ar  325  PHE325     -0.0042
     42  CE1       30.6930  -12.7340   23.3760 C.ar  325  PHE325     -0.0003
     43  CE2       30.4380  -14.3720   21.6500 C.ar  325  PHE325     -0.0003
     44  CZ        31.2470  -13.5280   22.3840 C.ar  325  PHE325     -0.0000
     45  N         26.8200   -8.5380   26.4780 N.3   327  GLY327     -0.1210
     46  CA        27.5290   -7.2820   26.3500 C.3   327  GLY327      0.1956
     47  C         27.0170   -6.3170   27.3980 C.2   327  GLY327      0.2612
     48  O         27.6930   -6.0400   28.3930 O.2   327  GLY327     -0.2717
     49  N         25.8050   -5.8060   27.1850 N.am  328  ILE328     -0.1965
     50  CA        25.1010   -5.1150   28.2560 C.3   328  ILE328      0.1727
     51  C         24.5530   -6.1050   29.2790 C.2   328  ILE328      0.2616
     52  O         24.2790   -5.7200   30.4230 O.2   328  ILE328     -0.2715
     53  CB        23.9780   -4.2430   27.6700 C.3   328  ILE328      0.0290
     54  CG1       23.4540   -3.2480   28.7100 C.3   328  ILE328      0.0022
     55  CG2       22.8530   -5.1160   27.1270 C.3   328  ILE328      0.0023
     56  CD1       22.4570   -2.2550   28.1520 C.3   328  ILE328      0.0001
     57  N         24.4010   -7.3730   28.9020 N.am  329  VAL329     -0.1977
     58  CA        23.9370   -8.4150   29.8110 C.3   329  VAL329      0.1596
     59  C         25.1370   -8.9830   30.5620 C.2   329  VAL329      0.2287
     60  O         26.1120   -9.4320   29.9480 O.2   329  VAL329     -0.2864
     61  CB        23.1900   -9.5230   29.0500 C.3   329  VAL329      0.0276
     62  CG1       22.9150  -10.7100   29.9670 C.3   329  VAL329      0.0022
     63  CG2       21.8920   -8.9870   28.4550 C.3   329  VAL329      0.0022
@<TRIPOS>BOND
     1    16    15    2
     2    15    14    1
     3    17    14    1
     4    14    13    1
     5    13    11   am
     6    12    11    2
     7    11    10    1
     8    43    41   ar
     9    43    44   ar
    10    25    23   ar
    11    41    39   ar
    12    10     9    1
    13    44    42   ar
    14    23    22    1
    15    23    24   ar
    16    22    19    1
    17    39    38    1
    18    39    40   ar
    19     9     3   am
    20    38    35    1
    21    42    40   ar
    22    19    18    1
    23    19    20    1
    24     3     4    2
    25     3     2    1
    26    37    36    2
    27    35    34    1
    28    35    36    1
    29     7     6    2
    30    20    21    2
    31     1     2    1
    32     2     5    1
    33     6     8   am
    34     6     5    1
    35    46    45    1
    36    46    47    1
    37    27    26    1
    38    27    28    1
    39    30    28   am
    40    30    31    1
    41    55    53    1
    42    49    47   am
    43    49    50    1
    44    28    29    2
    45    47    48    2
    46    31    32    1
    47    53    50    1
    48    53    54    1
    49    56    54    1
    50    50    51    1
    51    63    61    1
    52    57    51   am
    53    57    58    1
    54    32    33    2
    55    61    58    1
    56    61    62    1
    57    51    52    2
    58    58    59    1
    59    60    59    2
