@<TRIPOS>MOLECULE
tmp/5caeA00.pdb
 218 212 0 0 0
SMALL
GASTEIGER

@<TRIPOS>ATOM
      1  N         24.9670   11.1460   25.9060 N.3    20  GLN20      -0.1231
      2  CA        23.6320   11.6410   26.2180 C.3    20  GLN20       0.1698
      3  C         22.9150   10.6240   27.1000 C.2    20  GLN20       0.2592
      4  O         22.8450    9.4370   26.7630 O.2    20  GLN20      -0.2718
      5  CB        22.8470   11.9200   24.9360 C.3    20  GLN20       0.0381
      6  CG        23.4890   13.0080   24.0790 C.3    20  GLN20       0.0905
      7  CD        22.8190   13.1820   22.7300 C.2    20  GLN20       0.2608
      8  OE1       23.4120   12.8900   21.6920 O.2    20  GLN20      -0.2717
      9  NE2       21.5820   13.6690   22.7370 N.am   20  GLN20      -0.0878
     10  N         22.3910   11.0910   28.2290 N.am   21  GLY21      -0.1957
     11  CA        21.9930   10.1900   29.2910 C.3    21  GLY21       0.1869
     12  C         23.1510    9.8250   30.1880 C.2    21  GLY21       0.2309
     13  O         23.1580    8.7390   30.7780 O.2    21  GLY21      -0.2863
     14  N         24.2740   10.6650   33.1380 N.3    23  THR23      -0.1203
     15  CA        24.0790   10.3810   34.5540 C.3    23  THR23       0.1994
     16  C         23.1170    9.2280   34.8150 C.2    23  THR23       0.2618
     17  O         22.9320    8.8530   35.9770 O.2    23  THR23      -0.2717
     18  CB        23.5890   11.6360   35.2820 C.3    23  THR23       0.1784
     19  OG1       22.3750   12.1030   34.6790 O.3    23  THR23      -0.2211
     20  CG2       24.6430   12.7340   35.2110 C.3    23  THR23       0.0376
     21  N         22.5090    8.6550   33.7820 N.am   24  GLY24      -0.1942
     22  CA        21.5980    7.5480   33.9720 C.3    24  GLY24       0.2014
     23  C         22.3240    6.2690   34.3500 C.2    24  GLY24       0.2639
     24  O         23.5500    6.2020   34.4390 O.2    24  GLY24      -0.2714
     25  N         21.5310    5.2200   34.5700 N.am   25  LYS25      -0.1963
     26  CA        22.0930    3.9460   35.0070 C.3    25  LYS25       0.1728
     27  C         23.0560    3.3810   33.9660 C.2    25  LYS25       0.2616
     28  O         24.2390    3.1620   34.2470 O.2    25  LYS25      -0.2715
     29  CB        20.9670    2.9540   35.3050 C.3    25  LYS25       0.0311
     30  CG        21.4380    1.6330   35.8960 C.3    25  LYS25       0.0038
     31  CD        20.2670    0.6980   36.1520 C.3    25  LYS25       0.0206
     32  CE        20.7330   -0.6280   36.7330 C.3    25  LYS25       0.1093
     33  NZ        19.5990   -1.5670   36.9860 N.3    25  LYS25      -0.1314
     34  N         22.5670    3.1470   32.7460 N.am   26  GLN26      -0.1963
     35  CA        23.4090    2.5340   31.7230 C.3    26  GLN26       0.1733
     36  C         24.4230    3.5190   31.1630 C.2    26  GLN26       0.2616
     37  O         25.5320    3.1180   30.7900 O.2    26  GLN26      -0.2715
     38  CB        22.5520    1.9600   30.5930 C.3    26  GLN26       0.0408
     39  CG        21.6280    0.8280   31.0190 C.3    26  GLN26       0.0908
     40  CD        22.3820   -0.4090   31.4790 C.2    26  GLN26       0.2608
     41  OE1       23.5700   -0.5740   31.1900 O.2    26  GLN26      -0.2717
     42  NE2       21.6940   -1.2840   32.2010 N.am   26  GLN26      -0.0878
     43  N         24.0640    4.8000   31.0810 N.am   27  GLY27      -0.1955
     44  CA        25.0270    5.7900   30.6300 C.3    27  GLY27       0.1869
     45  C         26.2350    5.8760   31.5430 C.2    27  GLY27       0.2309
     46  O         27.3700    5.9880   31.0780 O.2    27  GLY27      -0.2863
     47  N         25.6550   14.7650   28.5650 N.3    45  THR45      -0.1203
     48  CA        24.5070   15.6410   28.7400 C.3    45  THR45       0.1994
     49  C         23.4040   14.9420   29.5190 C.2    45  THR45       0.2619
     50  O         23.1810   13.7370   29.3640 O.2    45  THR45      -0.2717
     51  CB        23.9360   16.1040   27.3950 C.3    45  THR45       0.1784
     52  OG1       23.4130   14.9720   26.6880 O.3    45  THR45      -0.2211
     53  CG2       25.0100   16.7750   26.5550 C.3    45  THR45       0.0376
     54  N         22.7210   15.7150   30.3560 N.am   46  THR46      -0.1939
     55  CA        21.4600   15.3550   30.9900 C.3    46  THR46       0.2013
     56  C         20.7080   16.6560   31.2310 C.2    46  THR46       0.2484
     57  O         21.2180   17.5390   31.9330 O.2    46  THR46      -0.2729
     58  CB        21.6630   14.5970   32.3050 C.3    46  THR46       0.1807
     59  OG1       22.3880   13.3850   32.0620 O.3    46  THR46      -0.2208
     60  CG2       20.3160   14.2520   32.9330 C.3    46  THR46       0.0379
     61  N         19.5180   16.8250   30.6560 N.am   47  PRO47      -0.2726
     62  CA        18.8020   18.1000   30.8040 C.3    47  PRO47       0.1402
     63  C         18.5480   18.4160   32.2710 C.2    47  PRO47       0.2269
     64  O         18.0020   17.6000   33.0140 O.2    47  PRO47      -0.2865
     65  CB        17.4920   17.8650   30.0410 C.3    47  PRO47       0.0296
     66  CG        17.7570   16.6840   29.1530 C.3    47  PRO47       0.0237
     67  CD        18.7380   15.8340   29.8980 C.3    47  PRO47       0.0939
     68  N         20.9400   18.9730   34.5370 N.3    49  LYS49      -0.1245
     69  CA        22.0720   18.6220   35.3830 C.3    49  LYS49       0.1561
     70  C         23.3850   19.2260   34.8970 C.2    49  LYS49       0.2260
     71  O         24.4520   18.8250   35.3750 O.2    49  LYS49      -0.2867
     72  CB        22.1990   17.1020   35.4940 C.3    49  LYS49       0.0271
     73  CG        21.0120   16.4420   36.1750 C.3    49  LYS49       0.0035
     74  CD        21.3330   15.0240   36.5990 C.3    49  LYS49       0.0206
     75  CE        20.1200   14.3520   37.2200 C.3    49  LYS49       0.1093
     76  NZ        20.4470   12.9950   37.7410 N.3    49  LYS49      -0.1314
     77  N         22.0930    7.0720   25.6630 N.3    78  TYR78      -0.1227
     78  CA        21.4460    6.1310   26.5680 C.3    78  TYR78       0.1736
     79  C         20.2050    6.7770   27.1730 C.2    78  TYR78       0.2595
     80  O         20.0860    6.8780   28.3980 O.2    78  TYR78      -0.2718
     81  CB        22.4050    5.6850   27.6750 C.3    78  TYR78       0.0548
     82  CG        23.6080    4.9160   27.1820 C.ar   78  TYR78      -0.0200
     83  CD1       24.7740    5.5720   26.8150 C.ar   78  TYR78      -0.0009
     84  CD2       23.5770    3.5300   27.0880 C.ar   78  TYR78      -0.0009
     85  CE1       25.8740    4.8710   26.3650 C.ar   78  TYR78       0.0417
     86  CE2       24.6710    2.8210   26.6390 C.ar   78  TYR78       0.0417
     87  CZ        25.8170    3.4950   26.2810 C.ar   78  TYR78       0.1957
     88  OH        26.9080    2.7940   25.8310 O.3    78  TYR78      -0.2866
     89  N         19.2820    7.2170   26.3210 N.am   79  VAL79      -0.1966
     90  CA        18.1070    7.9810   26.7410 C.3    79  VAL79       0.1712
     91  C         16.8650    7.1060   26.6000 C.2    79  VAL79       0.2458
     92  O         16.7080    6.4220   25.5790 O.2    79  VAL79      -0.2730
     93  CB        17.9870    9.2790   25.9240 C.3    79  VAL79       0.0289
     94  CG1       16.6940   10.0180   26.2420 C.3    79  VAL79       0.0023
     95  CG2       19.2000   10.1720   26.1770 C.3    79  VAL79       0.0023
     96  N         15.9690    7.0910   27.5880 N.am   80  PRO80      -0.2716
     97  CA        14.8090    6.1850   27.5440 C.3    80  PRO80       0.1521
     98  C         13.9280    6.4530   26.3360 C.2    80  PRO80       0.2440
     99  O         13.9650    7.5500   25.7580 O.2    80  PRO80      -0.2731
    100  CB        14.0740    6.4970   28.8580 C.3    80  PRO80       0.0310
    101  CG        15.1470    6.9800   29.7660 C.3    80  PRO80       0.0237
    102  CD        16.0640    7.7860   28.8810 C.3    80  PRO80       0.0939
    103  N         13.1150    5.4730   25.9390 N.am   81  PRO81      -0.2727
    104  CA        12.3920    5.5440   24.6540 C.3    81  PRO81       0.1402
    105  C         11.5250    6.7860   24.5000 C.2    81  PRO81       0.2269
    106  O         11.4520    7.3330   23.3910 O.2    81  PRO81      -0.2865
    107  CB        11.5410    4.2650   24.6660 C.3    81  PRO81       0.0296
    108  CG        12.3510    3.3090   25.4710 C.3    81  PRO81       0.0237
    109  CD        13.0020    4.1360   26.5520 C.3    81  PRO81       0.0939
    110  N         11.9930    9.7810   25.1470 N.3    83  PHE83      -0.1241
    111  CA        12.7380   11.0020   24.8760 C.3    83  PHE83       0.1605
    112  C         13.9140   10.8090   23.9310 C.2    83  PHE83       0.2264
    113  O         14.5630   11.7980   23.5700 O.2    83  PHE83      -0.2867
    114  CB        13.2520   11.6080   26.1890 C.3    83  PHE83       0.0534
    115  CG        12.2550   11.5630   27.3080 C.ar   83  PHE83      -0.0203
    116  CD1       11.0780   12.2870   27.2320 C.ar   83  PHE83      -0.0042
    117  CD2       12.5010   10.8060   28.4390 C.ar   83  PHE83      -0.0042
    118  CE1       10.1610   12.2500   28.2620 C.ar   83  PHE83      -0.0003
    119  CE2       11.5880   10.7670   29.4710 C.ar   83  PHE83      -0.0003
    120  CZ        10.4160   11.4910   29.3810 C.ar   83  PHE83      -0.0000
    121  N         14.0280   12.8410   20.5960 N.3    86  ALA86      -0.1231
    122  CA        14.4330   14.2290   20.7850 C.3    86  ALA86       0.1694
    123  C         15.9280   14.3390   21.0610 C.2    86  ALA86       0.2591
    124  O         16.5670   15.3070   20.6310 O.2    86  ALA86      -0.2718
    125  CB        13.6240   14.8640   21.9170 C.3    86  ALA86       0.0304
    126  N         16.5040   13.3510   21.7570 N.am   87  ALA87      -0.1980
    127  CA        17.9440   13.3500   21.9950 C.3    87  ALA87       0.1597
    128  C         18.7210   13.1630   20.6960 C.2    87  ALA87       0.2287
    129  O         19.7810   13.7710   20.5110 O.2    87  ALA87      -0.2864
    130  CB        18.3120   12.2640   23.0050 C.3    87  ALA87       0.0319
    131  N         18.3560   16.5360   18.8390 N.3    90  GLU90      -0.1245
    132  CA        19.2360   17.5670   19.3790 C.3    90  GLU90       0.1567
    133  C         20.6610   17.3880   18.8730 C.2    90  GLU90       0.2260
    134  O         21.3560   18.3690   18.5840 O.2    90  GLU90      -0.2867
    135  CB        19.2050   17.5510   20.9080 C.3    90  GLU90       0.0388
    136  CG        20.0510   18.6530   21.5320 C.3    90  GLU90       0.1160
    137  CD        20.1710   18.5500   23.0430 C.2    90  GLU90       0.3649
    138  OE1       19.5990   17.6150   23.6460 O.co2  90  GLU90      -0.2457
    139  OE2       20.8500   19.4170   23.6290 O.co2  90  GLU90      -0.2457
    140  N         21.7530    3.7790   21.4090 N.3   102  ILE102     -0.1231
    141  CA        21.6230    2.4160   21.9100 C.3   102  ILE102      0.1692
    142  C         20.1630    2.0620   22.1890 C.2   102  ILE102      0.2593
    143  O         19.7830    0.8870   22.1090 O.2   102  ILE102     -0.2718
    144  CB        22.4890    2.2390   23.1700 C.3   102  ILE102      0.0266
    145  CG1       23.9150    2.7400   22.9220 C.3   102  ILE102      0.0019
    146  CG2       22.4890    0.7820   23.6270 C.3   102  ILE102      0.0020
    147  CD1       24.6700    1.9750   21.8450 C.3   102  ILE102      0.0001
    148  N         19.3350    3.0600   22.5020 N.am  103  THR103     -0.1939
    149  CA        17.9810    2.8410   23.0080 C.3   103  THR103      0.2028
    150  C         17.1830    1.8670   22.1490 C.2   103  THR103      0.2642
    151  O         17.1170    2.0070   20.9240 O.2   103  THR103     -0.2714
    152  CB        17.2350    4.1750   23.0790 C.3   103  THR103      0.1808
    153  OG1       17.9850    5.1070   23.8680 O.3   103  THR103     -0.2208
    154  CG2       15.8470    3.9800   23.6830 C.3   103  THR103      0.0379
    155  N         16.5760    0.8790   22.8050 N.am  104  GLU104     -0.1976
    156  CA        15.5590    0.0330   22.1970 C.3   104  GLU104      0.1602
    157  C         14.1850    0.4680   22.6960 C.2   104  GLU104      0.2287
    158  O         14.0180    0.8010   23.8730 O.2   104  GLU104     -0.2864
    159  CB        15.7930   -1.4480   22.5210 C.3   104  GLU104      0.0415
    160  CG        14.7490   -2.3840   21.9020 C.3   104  GLU104      0.1163
    161  CD        15.0820   -3.8650   22.0540 C.2   104  GLU104      0.3649
    162  OE1       15.5560   -4.2730   23.1350 O.co2 104  GLU104     -0.2457
    163  OE2       14.8690   -4.6250   21.0820 O.co2 104  GLU104     -0.2457
    164  N         18.4720    1.1120   18.7410 N.3   130  ASN130     -0.1225
    165  CA        18.3740   -0.3150   19.0580 C.3   130  ASN130      0.1785
    166  C         19.6080   -1.0740   18.5660 C.2   130  ASN130      0.2597
    167  O         19.5120   -2.1470   17.9680 O.2   130  ASN130     -0.2718
    168  CB        17.0870   -0.9180   18.4840 C.3   130  ASN130      0.1169
    169  CG        16.8190   -2.3180   18.9980 C.2   130  ASN130      0.2627
    170  OD1       17.4070   -2.7450   19.9880 O.2   130  ASN130     -0.2716
    171  ND2       15.9310   -3.0410   18.3270 N.am  130  ASN130     -0.0877
    172  N         20.7790   -0.5150   18.8340 N.am  131  CYS131     -0.1957
    173  CA        22.0200   -1.0330   18.2830 C.3   131  CYS131      0.1828
    174  C         23.0830   -1.1180   19.3670 C.2   131  CYS131      0.2467
    175  O         22.9840   -0.4480   20.4010 O.2   131  CYS131     -0.2730
    176  CB        22.5100   -0.1480   17.1260 C.3   131  CYS131      0.0996
    177  SG        23.4160    1.3290   17.6140 S.3   131  CYS131     -0.0797
    178  N         24.1130   -1.9500   19.1690 N.am  132  PRO132     -0.2726
    179  CA        25.1890   -2.0420   20.1660 C.3   132  PRO132      0.1402
    180  C         26.2550   -0.9680   20.0260 C.2   132  PRO132      0.2269
    181  O         27.0640   -0.8040   20.9500 O.2   132  PRO132     -0.2865
    182  CB        25.7820   -3.4300   19.9000 C.3   132  PRO132      0.0296
    183  CG        25.6100   -3.6040   18.4260 C.3   132  PRO132      0.0237
    184  CD        24.2810   -2.9430   18.0910 C.3   132  PRO132      0.0939
    185  N         28.0910   -0.8470   23.7670 N.3   144  ILE144     -0.1245
    186  CA        27.9090   -1.8060   24.8520 C.3   144  ILE144      0.1561
    187  C         28.6370   -3.1110   24.6080 C.2   144  ILE144      0.2260
    188  O         28.5400   -4.0210   25.4460 O.2   144  ILE144     -0.2867
    189  CB        26.4150   -2.0850   25.0960 C.3   144  ILE144      0.0252
    190  CG1       25.8430   -2.8990   23.9280 C.3   144  ILE144      0.0019
    191  CG2       25.6470   -0.7840   25.2740 C.3   144  ILE144      0.0019
    192  CD1       24.3860   -3.2840   24.0970 C.3   144  ILE144      0.0001
    193  N         23.0770   -7.2460   17.7750 N.3   162  GLY162     -0.1225
    194  CA        24.2240   -7.0070   18.6360 C.3   162  GLY162      0.1811
    195  C         24.8910   -8.2930   19.0890 C.2   162  GLY162      0.2280
    196  O         26.1160   -8.4320   19.0140 O.2   162  GLY162     -0.2866
    197  N         28.8270  -10.0310   18.3950 N.3   166  TYR166     -0.1241
    198  CA        29.7750  -10.6120   19.3420 C.3   166  TYR166      0.1605
    199  C         30.2220  -11.9910   18.8820 C.2   166  TYR166      0.2264
    200  O         31.3910  -12.3580   19.0460 O.2   166  TYR166     -0.2867
    201  CB        29.1630  -10.7060   20.7430 C.3   166  TYR166      0.0534
    202  CG        28.4330   -9.4770   21.2480 C.ar  166  TYR166     -0.0201
    203  CD1       28.7080   -8.2070   20.7490 C.ar  166  TYR166     -0.0009
    204  CD2       27.4680   -9.5930   22.2410 C.ar  166  TYR166     -0.0009
    205  CE1       28.0250   -7.0920   21.2180 C.ar  166  TYR166      0.0417
    206  CE2       26.7880   -8.4880   22.7180 C.ar  166  TYR166      0.0417
    207  CZ        27.0690   -7.2420   22.2060 C.ar  166  TYR166      0.1957
    208  OH        26.3890   -6.1480   22.6880 O.3   166  TYR166     -0.2866
    209  N         13.2930   -8.1200   17.7660 N.3   258  HIS258     -0.1241
    210  CA        13.5480   -6.8340   17.1340 C.3   258  HIS258      0.1621
    211  C         12.2550   -6.2590   16.5760 C.2   258  HIS258      0.2264
    212  O         11.4200   -6.9870   16.0350 O.2   258  HIS258     -0.2867
    213  CB        14.5670   -6.9790   16.0060 C.3   258  HIS258      0.0745
    214  CG        15.9760   -7.1320   16.4800 C.ar  258  HIS258      0.0817
    215  ND1       16.9590   -7.7170   15.7130 N.ar  258  HIS258     -0.2268
    216  CD2       16.5710   -6.7650   17.6390 C.ar  258  HIS258      0.1154
    217  CE1       18.0980   -7.7110   16.3810 C.ar  258  HIS258      0.1986
    218  NE2       17.8900   -7.1390   17.5530 N.ar  258  HIS258     -0.2212
@<TRIPOS>BOND
     1   215   217   ar
     2   215   214   ar
     3   213   214    1
     4   213   210    1
     5   212   211    2
     6   217   218   ar
     7   214   216   ar
     8   211   210    1
     9   176   177    1
    10   176   173    1
    11   210   209    1
    12   218   216   ar
    13   193   194    1
    14   167   166    2
    15   184   183    1
    16   184   178    1
    17   173   172    1
    18   173   174    1
    19   171   169   am
    20   197   198    1
    21   183   182    1
    22   168   169    1
    23   168   165    1
    24   166   172   am
    25   166   165    1
    26   134   133    2
    27   194   195    1
    28   164   165    1
    29   131   132    1
    30   133   132    1
    31   199   200    2
    32   199   198    1
    33   169   170    2
    34   196   195    2
    35   178   174   am
    36   178   179    1
    37   198   201    1
    38   174   175    2
    39   132   135    1
    40   182   179    1
    41   180   179    1
    42   180   181    2
    43   129   128    2
    44   121   122    1
    45   124   123    2
    46   128   127    1
    47   201   202    1
    48   203   205   ar
    49   203   202   ar
    50   122   123    1
    51   122   125    1
    52   135   136    1
    53   151   150    2
    54   123   126   am
    55   163   161   ar
    56   205   207   ar
    57   202   204   ar
    58   140   141    1
    59   136   137    1
    60     8     7    2
    61   126   127    1
    62   147   145    1
    63   160   161    1
    64   160   159    1
    65   141   142    1
    66   141   144    1
    67   127   130    1
    68   161   162   ar
    69   143   142    2
    70   150   155   am
    71   150   149    1
    72   142   148   am
    73   156   159    1
    74   156   157    1
    75   156   155    1
    76   207   208    1
    77   207   206   ar
    78   204   206   ar
    79   148   149    1
    80   157   158    2
    81     7     9   am
    82     7     6    1
    83   145   144    1
    84   149   152    1
    85   137   139   ar
    86   137   138   ar
    87   152   154    1
    88   152   153    1
    89   144   146    1
    90   106   105    2
    91   113   112    2
    92   185   186    1
    93   190   192    1
    94   190   189    1
    95   112   111    1
    96     6     5    1
    97   105   104    1
    98   187   186    1
    99   187   188    2
   100   104   107    1
   101   104   103    1
   102   107   108    1
   103   186   189    1
   104   111   110    1
   105   111   114    1
   106     5     2    1
   107   189   191    1
   108   108   109    1
   109    92    91    2
   110    77    78    1
   111    99    98    2
   112    88    87    1
   113     1     2    1
   114    93    95    1
   115    93    94    1
   116    93    90    1
   117   103    98   am
   118   103   109    1
   119   114   115    1
   120     2     3    1
   121    87    85   ar
   122    87    86   ar
   123    89    90    1
   124    89    79   am
   125    98    97    1
   126    85    83   ar
   127    53    51    1
   128    78    79    1
   129    78    81    1
   130    91    90    1
   131    91    96   am
   132    86    84   ar
   133    52    51    1
   134     4     3    2
   135    83    82   ar
   136    84    82   ar
   137     3    10   am
   138    79    80    2
   139    82    81    1
   140   116   115   ar
   141   116   118   ar
   142   115   117   ar
   143    51    48    1
   144    97    96    1
   145    97   100    1
   146    96   102    1
   147    10    11    1
   148   118   120   ar
   149   117   119   ar
   150    47    48    1
   151    48    49    1
   152   100   101    1
   153   102   101    1
   154    66    67    1
   155    66    65    1
   156    11    12    1
   157    50    49    2
   158   120   119   ar
   159    49    54   am
   160    67    61    1
   161    65    62    1
   162    12    13    2
   163    54    55    1
   164    38    39    1
   165    38    35    1
   166    44    43    1
   167    44    45    1
   168    61    62    1
   169    61    56   am
   170    37    36    2
   171    62    63    1
   172    55    56    1
   173    55    58    1
   174    39    40    1
   175    46    45    2
   176    43    36   am
   177    36    35    1
   178    41    40    2
   179    56    57    2
   180    40    42   am
   181    35    34    1
   182    59    58    1
   183    63    64    2
   184    58    60    1
   185    34    27   am
   186    14    15    1
   187    21    22    1
   188    21    16   am
   189    27    28    2
   190    27    26    1
   191    22    23    1
   192    23    24    2
   193    23    25   am
   194    68    69    1
   195    15    16    1
   196    15    18    1
   197    25    26    1
   198    19    18    1
   199    16    17    2
   200    70    71    2
   201    70    69    1
   202    26    29    1
   203    20    18    1
   204    29    30    1
   205    69    72    1
   206    72    73    1
   207    30    31    1
   208    31    32    1
   209    73    74    1
   210    74    75    1
   211    32    33    1
   212    75    76    1
