@<TRIPOS>MOLECULE
tmp/5cahA00.pdb
 105 98 0 0 0
SMALL
GASTEIGER

@<TRIPOS>ATOM
      1  N         26.7220   82.6120   61.1030 N.3   113  VAL113     -0.1245
      2  CA        27.7540   82.4870   60.0860 C.3   113  VAL113      0.1561
      3  C         27.5100   81.1680   59.3900 C.2   113  VAL113      0.2260
      4  O         27.3520   80.1400   60.0470 O.2   113  VAL113     -0.2867
      5  CB        29.1720   82.4790   60.6760 C.3   113  VAL113      0.0252
      6  CG1       30.2090   82.3080   59.5620 C.3   113  VAL113      0.0019
      7  CG2       29.4380   83.7540   61.4730 C.3   113  VAL113      0.0019
      8  N         28.2510   78.7100   55.6060 N.3   115  PRO115     -0.2116
      9  CA        29.0040   78.4540   54.3770 C.3   115  PRO115      0.1372
     10  C         28.1940   78.8280   53.1440 C.2   115  PRO115      0.2244
     11  O         27.1670   78.1870   52.8870 O.2   115  PRO115     -0.2868
     12  CB        29.2350   76.9430   54.4140 C.3   115  PRO115      0.0268
     13  CG        28.2140   76.4090   55.3860 C.3   115  PRO115      0.0207
     14  CD        28.0510   77.4840   56.3980 C.3   115  PRO115      0.0892
     15  N         34.5960   78.3620   56.3370 N.3   270  SER270     -0.1217
     16  CA        33.5340   77.3400   56.4090 C.3   270  SER270      0.1889
     17  C         33.1790   76.7040   55.0630 C.2   270  SER270      0.2288
     18  O         32.1980   75.9720   54.9550 O.2   270  SER270     -0.2866
     19  CB        32.2660   77.8660   57.0890 C.3   270  SER270      0.2089
     20  OG        31.6740   78.9340   56.3650 O.3   270  SER270     -0.2183
     21  N         31.7990   87.2660   53.9630 N.3   324  ARG324     -0.1245
     22  CA        33.2110   87.1540   54.3340 C.3   324  ARG324      0.1563
     23  C         34.0460   86.6920   53.1350 C.2   324  ARG324      0.2260
     24  O         33.9270   85.5530   52.6860 O.2   324  ARG324     -0.2867
     25  CB        33.4270   86.2320   55.5620 C.3   324  ARG324      0.0307
     26  CG        34.9040   86.0110   55.9460 C.3   324  ARG324      0.0489
     27  CD        35.1220   85.4370   57.3770 C.3   324  ARG324      0.2205
     28  NE        34.8750   83.9960   57.4780 N.pl3 324  ARG324     -0.0865
     29  CZ        35.2190   83.2280   58.5140 C.cat 324  ARG324      0.5346
     30  NH1       35.8410   83.7490   59.5640 N.pl3 324  ARG324      0.1354
     31  NH2       34.9420   81.9290   58.5080 N.pl3 324  ARG324      0.1354
     32  N         40.3260   79.9050   67.5070 N.3   440  LEU440     -0.1245
     33  CA        41.0880   79.0230   66.6300 C.3   440  LEU440      0.1561
     34  C         42.2440   79.6870   65.8590 C.2   440  LEU440      0.2260
     35  O         43.4060   79.4170   66.1430 O.2   440  LEU440     -0.2867
     36  CB        40.1400   78.3110   65.6670 C.3   440  LEU440      0.0270
     37  CG        39.5830   76.9310   66.0300 C.3   440  LEU440      0.0019
     38  CD1       39.8000   76.5810   67.4700 C.3   440  LEU440      0.0001
     39  CD2       38.1060   76.8360   65.6700 C.3   440  LEU440      0.0001
     40  N         32.5810   81.9540   68.2730 N.3   494  MET494     -0.1245
     41  CA        31.5330   80.9820   67.9970 C.3   494  MET494      0.1570
     42  C         31.2980   80.0070   69.1430 C.2   494  MET494      0.2261
     43  O         32.2540   79.5520   69.7830 O.2   494  MET494     -0.2867
     44  CB        31.9240   80.1700   66.7560 C.3   494  MET494      0.0387
     45  CG        31.0060   78.9890   66.4380 C.3   494  MET494      0.0595
     46  SD        29.3970   79.5600   65.8540 S.3   494  MET494     -0.1393
     47  CE        29.7930   80.2100   64.2260 C.3   494  MET494      0.0692
     48  N         30.5780   76.3600   69.5440 N.3   496  THR496     -0.1218
     49  CA        30.8500   75.2780   68.6150 C.3   496  THR496      0.1862
     50  C         30.0850   73.9980   68.9260 C.2   496  THR496      0.2287
     51  O         29.9960   73.1130   68.0780 O.2   496  THR496     -0.2866
     52  CB        32.3660   74.9540   68.5940 C.3   496  THR496      0.1770
     53  OG1       32.8110   74.6300   69.9200 O.3   496  THR496     -0.2211
     54  CG2       33.1550   76.1510   68.0930 C.3   496  THR496      0.0375
     55  N         28.9990   84.9650   67.6860 N.3   520  TRP520     -0.1241
     56  CA        28.6640   83.9530   66.6860 C.3   520  TRP520      0.1605
     57  C         27.9490   82.7230   67.2150 C.2   520  TRP520      0.2264
     58  O         28.3230   82.1590   68.2540 O.2   520  TRP520     -0.2867
     59  CB        29.9110   83.5190   65.9040 C.3   520  TRP520      0.0550
     60  CG        30.4490   84.5830   64.9820 C.ar  520  TRP520      0.0003
     61  CD1       29.9270   85.8230   64.7680 C.ar  520  TRP520      0.0946
     62  CD2       31.6270   84.4980   64.1620 C.ar  520  TRP520      0.0152
     63  NE1       30.6990   86.5120   63.8590 N.ar  520  TRP520     -0.2442
     64  CE2       31.7510   85.7190   63.4790 C.ar  520  TRP520      0.0810
     65  CE3       32.5780   83.4940   63.9410 C.ar  520  TRP520      0.0012
     66  CZ2       32.7920   85.9720   62.5700 C.ar  520  TRP520      0.0191
     67  CZ3       33.6100   83.7450   63.0530 C.ar  520  TRP520      0.0001
     68  CH2       33.7080   84.9740   62.3760 C.ar  520  TRP520      0.0015
     69  N         26.1030   78.8650   65.6720 N.3   522  PRO522     -0.2116
     70  CA        26.2480   77.8960   64.5850 C.3   522  PRO522      0.1372
     71  C         24.9260   77.4850   63.9230 C.2   522  PRO522      0.2244
     72  O         24.9560   76.7020   62.9710 O.2   522  PRO522     -0.2868
     73  CB        26.8210   76.6860   65.3040 C.3   522  PRO522      0.0268
     74  CG        26.0970   76.7170   66.6320 C.3   522  PRO522      0.0207
     75  CD        26.0010   78.1950   66.9810 C.3   522  PRO522      0.0892
     76  N         32.2110   72.8590   56.7670 N.3   598  ALA598     -0.1245
     77  CA        31.5620   73.0900   58.0490 C.3   598  ALA598      0.1562
     78  C         30.4460   72.0800   58.2580 C.2   598  ALA598      0.2260
     79  O         29.5060   72.0090   57.4640 O.2   598  ALA598     -0.2867
     80  CB        31.0130   74.4980   58.1140 C.3   598  ALA598      0.0290
     81  N         31.0970   72.3110   65.7690 N.3   610  MET610     -0.1230
     82  CA        30.9620   72.9800   64.4840 C.3   610  MET610      0.1702
     83  C         32.0330   74.0340   64.2800 C.2   610  MET610      0.2592
     84  O         31.7500   75.2240   64.3730 O.2   610  MET610     -0.2718
     85  CB        29.6060   73.6630   64.3770 C.3   610  MET610      0.0401
     86  CG        28.6480   72.9360   63.4970 C.3   610  MET610      0.0596
     87  SD        28.0780   73.9180   62.1010 S.3   610  MET610     -0.1393
     88  CE        26.9700   72.7000   61.3870 C.3   610  MET610      0.0692
     89  N         33.2490   73.6000   63.9710 N.am  611  GLU611     -0.1966
     90  CA        34.3630   74.5200   63.7640 C.3   611  GLU611      0.1733
     91  C         34.5960   74.7560   62.2720 C.2   611  GLU611      0.2616
     92  O         34.2440   73.9080   61.4480 O.2   611  GLU611     -0.2715
     93  CB        35.6280   73.9420   64.4040 C.3   611  GLU611      0.0429
     94  CG        35.4690   73.6750   65.8890 C.3   611  GLU611      0.1163
     95  CD        36.6320   72.9090   66.4920 C.2   611  GLU611      0.3649
     96  OE1       37.1400   73.3540   67.5440 O.co2 611  GLU611     -0.2457
     97  OE2       37.0220   71.8570   65.9330 O.co2 611  GLU611     -0.2457
     98  N         35.1870   75.8940   61.9180 N.am  612  ASP612     -0.1971
     99  CA        35.6290   76.0820   60.5350 C.3   612  ASP612      0.1709
    100  C         37.0740   75.5950   60.3890 C.2   612  ASP612      0.2293
    101  O         37.6250   75.0090   61.3220 O.2   612  ASP612     -0.2864
    102  CB        35.4470   77.5290   60.0450 C.3   612  ASP612      0.1436
    103  CG        36.2790   78.5200   60.8150 C.2   612  ASP612      0.3671
    104  OD1       37.0850   78.0900   61.6620 O.co2 612  ASP612     -0.2456
    105  OD2       36.1450   79.7340   60.5500 O.co2 612  ASP612     -0.2456
@<TRIPOS>BOND
     1    24    23    2
     2    11    10    2
     3    23    22    1
     4    10     9    1
     5    21    22    1
     6    22    25    1
     7     9    12    1
     8     9     8    1
     9    12    13    1
    10    18    17    2
    11    17    16    1
    12    13    14    1
    13    25    26    1
    14     8    14    1
    15    26    27    1
    16    15    16    1
    17    20    19    1
    18    16    19    1
    19    76    77    1
    20    27    28    1
    21    79    78    2
    22    28    29    2
    23    77    80    1
    24    77    78    1
    25    31    29    1
    26    29    30    1
    27     3     4    2
    28     3     2    1
    29     6     5    1
    30   102    99    1
    31   102   103    1
    32     2     5    1
    33     2     1    1
    34   100    99    1
    35   100   101    2
    36    99    98    1
    37   105   103   ar
    38     5     7    1
    39   103   104   ar
    40    88    87    1
    41    92    91    2
    42    98    91   am
    43    87    86    1
    44    91    90    1
    45    68    66   ar
    46    68    67   ar
    47    66    64   ar
    48    72    71    2
    49    67    65   ar
    50    64    63   ar
    51    64    62   ar
    52    86    85    1
    53    90    89    1
    54    90    93    1
    55    63    61   ar
    56    71    70    1
    57    65    62   ar
    58    89    83   am
    59    62    60   ar
    60    47    46    1
    61    83    84    2
    62    83    82    1
    63    85    82    1
    64    93    94    1
    65    82    81    1
    66    70    73    1
    67    70    69    1
    68    61    60   ar
    69    60    59    1
    70    73    74    1
    71    36    37    1
    72    36    33    1
    73    39    37    1
    74    69    75    1
    75    46    45    1
    76    34    35    2
    77    34    33    1
    78    94    95    1
    79    59    56    1
    80    97    95   ar
    81    37    38    1
    82    45    44    1
    83    95    96   ar
    84    33    32    1
    85    74    75    1
    86    56    57    1
    87    56    55    1
    88    44    41    1
    89    57    58    2
    90    41    40    1
    91    41    42    1
    92    51    50    2
    93    54    52    1
    94    52    49    1
    95    52    53    1
    96    49    50    1
    97    49    48    1
    98    42    43    2
