@<TRIPOS>MOLECULE
tmp/5cakA00.pdb
 142 134 0 0 0
SMALL
GASTEIGER

@<TRIPOS>ATOM
      1  N         26.6440   79.7830   60.7410 N.3   117  VAL117     -0.1245
      2  CA        27.6230   79.6290   59.6570 C.3   117  VAL117      0.1561
      3  C         27.3530   78.2960   58.9890 C.2   117  VAL117      0.2260
      4  O         27.2090   77.2870   59.6670 O.2   117  VAL117     -0.2867
      5  CB        29.0840   79.6160   60.1690 C.3   117  VAL117      0.0252
      6  CG1       30.0600   79.7490   58.9950 C.3   117  VAL117      0.0019
      7  CG2       29.3140   80.7360   61.1650 C.3   117  VAL117      0.0019
      8  N         27.9420   75.7240   55.2020 N.3   119  PRO119     -0.2116
      9  CA        28.6650   75.5360   53.9380 C.3   119  PRO119      0.1372
     10  C         27.8170   75.9150   52.7280 C.2   119  PRO119      0.2244
     11  O         26.7240   75.3700   52.5230 O.2   119  PRO119     -0.2868
     12  CB        28.9690   74.0310   53.9250 C.3   119  PRO119      0.0268
     13  CG        27.9870   73.4270   54.8790 C.3   119  PRO119      0.0207
     14  CD        27.8340   74.4610   55.9560 C.3   119  PRO119      0.0892
     15  N         34.4250   75.4830   55.8580 N.3   274  SER274     -0.1217
     16  CA        33.3930   74.4430   55.9410 C.3   274  SER274      0.1889
     17  C         33.0290   73.7860   54.6090 C.2   274  SER274      0.2288
     18  O         32.1610   72.9180   54.5730 O.2   274  SER274     -0.2866
     19  CB        32.1250   74.9440   56.6550 C.3   274  SER274      0.2089
     20  OG        31.3810   75.8430   55.8450 O.3   274  SER274     -0.2183
     21  N         31.4900   84.3670   53.5760 N.3   329  ARG329     -0.1245
     22  CA        32.8970   84.2740   53.9500 C.3   329  ARG329      0.1563
     23  C         33.7150   83.8460   52.7480 C.2   329  ARG329      0.2260
     24  O         33.5630   82.7260   52.2510 O.2   329  ARG329     -0.2867
     25  CB        33.1360   83.3270   55.1380 C.3   329  ARG329      0.0307
     26  CG        34.6090   83.2380   55.5450 C.3   329  ARG329      0.0489
     27  CD        34.7930   82.6540   56.9650 C.3   329  ARG329      0.2205
     28  NE        34.5510   81.2090   57.0280 N.pl3 329  ARG329     -0.0865
     29  CZ        34.8890   80.4370   58.0670 C.cat 329  ARG329      0.5346
     30  NH1       35.5010   80.9600   59.1150 N.pl3 329  ARG329      0.1354
     31  NH2       34.6420   79.1410   58.0520 N.pl3 329  ARG329      0.1354
     32  N         41.8840   85.5220   64.0300 N.3   424  GLU424     -0.1245
     33  CA        42.1630   84.1030   64.1680 C.3   424  GLU424      0.1567
     34  C         43.6130   83.7730   63.8410 C.2   424  GLU424      0.2260
     35  O         43.9440   82.6250   63.5570 O.2   424  GLU424     -0.2867
     36  CB        41.2140   83.2660   63.3050 C.3   424  GLU424      0.0388
     37  CG        41.3180   83.5100   61.7950 C.3   424  GLU424      0.1160
     38  CD        40.2970   82.6830   61.0250 C.2   424  GLU424      0.3649
     39  OE1       40.0220   82.9960   59.8470 O.co2 424  GLU424     -0.2457
     40  OE2       39.7570   81.7150   61.6010 O.co2 424  GLU424     -0.2457
     41  N         38.0530   82.9150   67.7120 N.3   449  GLY449     -0.1210
     42  CA        37.8160   81.4910   67.5840 C.3   449  GLY449      0.1956
     43  C         38.6130   80.6450   68.5420 C.2   449  GLY449      0.2612
     44  O         39.3480   81.1430   69.3900 O.2   449  GLY449     -0.2717
     45  N         38.4310   79.3410   68.4470 N.am  450  PHE450     -0.1962
     46  CA        39.3310   78.4570   69.1530 C.3   450  PHE450      0.1771
     47  C         40.2940   77.9320   68.1110 C.2   450  PHE450      0.2619
     48  O         41.5030   78.1500   68.2010 O.2   450  PHE450     -0.2715
     49  CB        38.5830   77.3170   69.8680 C.3   450  PHE450      0.0574
     50  CG        39.4930   76.2240   70.4120 C.ar  450  PHE450     -0.0200
     51  CD1       40.6850   76.5440   71.0660 C.ar  450  PHE450     -0.0042
     52  CD2       39.1420   74.8810   70.2920 C.ar  450  PHE450     -0.0042
     53  CE1       41.5150   75.5630   71.5650 C.ar  450  PHE450     -0.0003
     54  CE2       39.9710   73.8780   70.7950 C.ar  450  PHE450     -0.0003
     55  CZ        41.1620   74.2200   71.4280 C.ar  450  PHE450     -0.0000
     56  N         39.7410   77.2940   67.0870 N.am  451  LEU451     -0.1963
     57  CA        40.5230   76.3510   66.3150 C.3   451  LEU451      0.1728
     58  C         41.6640   76.9760   65.5010 C.2   451  LEU451      0.2616
     59  O         42.8180   76.6110   65.7070 O.2   451  LEU451     -0.2715
     60  CB        39.6350   75.3830   65.5070 C.3   451  LEU451      0.0311
     61  CG        38.7420   74.3140   66.1940 C.3   451  LEU451      0.0022
     62  CD1       39.5230   73.2090   66.9020 C.3   451  LEU451      0.0001
     63  CD2       37.7540   74.9170   67.1790 C.3   451  LEU451      0.0001
     64  N         41.3570   77.9100   64.6030 N.am  452  ASP452     -0.1971
     65  CA        42.3900   78.4920   63.7360 C.3   452  ASP452      0.1709
     66  C         43.4400   79.2210   64.5510 C.2   452  ASP452      0.2293
     67  O         44.6330   79.0430   64.3290 O.2   452  ASP452     -0.2864
     68  CB        41.7810   79.4720   62.7330 C.3   452  ASP452      0.1436
     69  CG        41.6950   78.8910   61.3300 C.2   452  ASP452      0.3671
     70  OD1       42.5480   78.0540   60.9940 O.co2 452  ASP452     -0.2456
     71  OD2       40.7720   79.2660   60.5750 O.co2 452  ASP452     -0.2456
     72  N         32.4160   79.2590   67.7250 N.3   505  MET505     -0.1245
     73  CA        31.4300   78.2240   67.4620 C.3   505  MET505      0.1570
     74  C         31.3060   77.2100   68.5800 C.2   505  MET505      0.2261
     75  O         32.3150   76.7220   69.1040 O.2   505  MET505     -0.2867
     76  CB        31.8140   77.4710   66.1740 C.3   505  MET505      0.0387
     77  CG        30.8850   76.3270   65.8390 C.3   505  MET505      0.0595
     78  SD        29.2650   76.9130   65.2670 S.3   505  MET505     -0.1393
     79  CE        29.6700   77.4410   63.5870 C.3   505  MET505      0.0692
     80  N         30.7030   73.5590   69.0120 N.3   507  THR507     -0.1218
     81  CA        30.8880   72.4640   68.0650 C.3   507  THR507      0.1862
     82  C         30.1720   71.1720   68.4250 C.2   507  THR507      0.2287
     83  O         30.0130   70.2910   67.5770 O.2   507  THR507     -0.2866
     84  CB        32.3720   72.1450   67.9140 C.3   507  THR507      0.1770
     85  OG1       32.9020   71.7820   69.1950 O.3   507  THR507     -0.2211
     86  CG2       33.1040   73.3690   67.4180 C.3   507  THR507      0.0375
     87  N         28.8750   82.2450   67.2510 N.3   531  TRP531     -0.1241
     88  CA        28.5750   81.2370   66.2290 C.3   531  TRP531      0.1605
     89  C         27.8490   79.9900   66.7190 C.2   531  TRP531      0.2264
     90  O         28.1870   79.4300   67.7720 O.2   531  TRP531     -0.2867
     91  CB        29.8540   80.8550   65.4740 C.3   531  TRP531      0.0550
     92  CG        30.2940   81.9140   64.5170 C.ar  531  TRP531      0.0003
     93  CD1       29.7080   83.1260   64.3140 C.ar  531  TRP531      0.0946
     94  CD2       31.4080   81.8510   63.6140 C.ar  531  TRP531      0.0152
     95  NE1       30.3940   83.8280   63.3490 N.ar  531  TRP531     -0.2442
     96  CE2       31.4410   83.0650   62.9060 C.ar  531  TRP531      0.0810
     97  CE3       32.3740   80.8820   63.3360 C.ar  531  TRP531      0.0012
     98  CZ2       32.4010   83.3360   61.9280 C.ar  531  TRP531      0.0191
     99  CZ3       33.3270   81.1540   62.3720 C.ar  531  TRP531      0.0001
    100  CH2       33.3280   82.3660   61.6760 C.ar  531  TRP531      0.0015
    101  N         26.0560   76.1350   65.1640 N.3   533  PRO533     -0.2116
    102  CA        26.2380   75.1620   64.0820 C.3   533  PRO533      0.1372
    103  C         24.9480   74.7700   63.3580 C.2   533  PRO533      0.2244
    104  O         25.0310   74.1400   62.3030 O.2   533  PRO533     -0.2868
    105  CB        26.7970   73.9440   64.8200 C.3   533  PRO533      0.0268
    106  CG        26.1560   74.0170   66.1730 C.3   533  PRO533      0.0207
    107  CD        26.1470   75.4960   66.4940 C.3   533  PRO533      0.0892
    108  N         32.3650   69.9110   56.1380 N.3   609  ALA609     -0.1245
    109  CA        31.7480   70.0640   57.4520 C.3   609  ALA609      0.1562
    110  C         30.5470   69.1370   57.5780 C.2   609  ALA609      0.2260
    111  O         29.6980   69.0910   56.6940 O.2   609  ALA609     -0.2867
    112  CB        31.3200   71.4970   57.6830 C.3   609  ALA609      0.0290
    113  N         30.7530   69.1210   65.0900 N.3   621  MET621     -0.1230
    114  CA        30.7640   69.7290   63.7630 C.3   621  MET621      0.1702
    115  C         31.8140   70.8180   63.7320 C.2   621  MET621      0.2592
    116  O         31.5790   71.9450   64.1860 O.2   621  MET621     -0.2718
    117  CB        29.4050   70.2880   63.3510 C.3   621  MET621      0.0401
    118  CG        29.4480   70.9410   61.9520 C.3   621  MET621      0.0596
    119  SD        27.8340   71.3920   61.3170 S.3   621  MET621     -0.1393
    120  CE        28.2620   72.0800   59.7080 C.3   621  MET621      0.0692
    121  N         32.9850   70.4590   63.2160 N.am  622  GLU622     -0.1966
    122  CA        34.1080   71.3770   63.1340 C.3   622  GLU622      0.1733
    123  C         34.4290   71.6410   61.6610 C.2   622  GLU622      0.2616
    124  O         34.2580   70.7580   60.8100 O.2   622  GLU622     -0.2715
    125  CB        35.3320   70.7680   63.8340 C.3   622  GLU622      0.0429
    126  CG        35.0330   70.2000   65.2250 C.3   622  GLU622      0.1163
    127  CD        36.2260   69.4900   65.8550 C.2   622  GLU622      0.3649
    128  OE1       36.7520   68.5400   65.2350 O.co2 622  GLU622     -0.2457
    129  OE2       36.6330   69.8750   66.9730 O.co2 622  GLU622     -0.2457
    130  N         34.8810   72.8540   61.3530 N.am  623  ASP623     -0.1971
    131  CA        35.3710   73.1270   60.0100 C.3   623  ASP623      0.1709
    132  C         36.8400   72.7030   59.8890 C.2   623  ASP623      0.2293
    133  O         37.3600   71.9940   60.7550 O.2   623  ASP623     -0.2864
    134  CB        35.1170   74.5810   59.5870 C.3   623  ASP623      0.1436
    135  CG        35.9720   75.5860   60.3310 C.2   623  ASP623      0.3671
    136  OD1       36.8400   75.1930   61.1450 O.co2 623  ASP623     -0.2456
    137  OD2       35.7790   76.7990   60.0740 O.co2 623  ASP623     -0.2456
    138  N         39.6430   74.1480   60.3740 N.3   625  ALA625     -0.1245
    139  CA        40.5740   74.5700   61.4210 C.3   625  ALA625      0.1562
    140  C         40.8610   73.4690   62.4600 C.2   625  ALA625      0.2260
    141  O         41.8880   73.5070   63.1480 O.2   625  ALA625     -0.2867
    142  CB        40.0780   75.8390   62.1090 C.3   625  ALA625      0.0290
@<TRIPOS>BOND
     1    24    23    2
     2    11    10    2
     3    10     9    1
     4    23    22    1
     5    21    22    1
     6    12     9    1
     7    12    13    1
     8     9     8    1
     9    22    25    1
    10    18    17    2
    11    17    16    1
    12    13    14    1
    13    25    26    1
    14     8    14    1
    15    26    27    1
    16    20    19    1
    17    15    16    1
    18    16    19    1
    19   108   109    1
    20   111   110    2
    21    27    28    1
    22    28    29    2
    23   109   110    1
    24   109   112    1
    25    31    29    1
    26    29    30    1
    27     3     2    1
    28     3     4    2
    29     6     5    1
    30   134   131    1
    31   134   135    1
    32     2     5    1
    33     2     1    1
    34   120   119    1
    35    39    38   ar
    36   132   131    1
    37   132   133    2
    38   131   130    1
    39   137   135   ar
    40     5     7    1
    41   135   136   ar
    42   138   139    1
    43    71    69   ar
    44   124   123    2
    45    70    69   ar
    46    38    40   ar
    47    38    37    1
    48   119   118    1
    49    69    68    1
    50   130   123   am
    51   139   142    1
    52   139   140    1
    53   123   122    1
    54   100    98   ar
    55   100    99   ar
    56    37    36    1
    57    98    96   ar
    58   118   117    1
    59   104   103    2
    60    99    97   ar
    61   140   141    2
    62    68    65    1
    63    96    95   ar
    64    96    94   ar
    65   122   121    1
    66   122   125    1
    67   121   115   am
    68    36    33    1
    69    97    94   ar
    70    95    93   ar
    71   117   114    1
    72   103   102    1
    73    35    34    2
    74    79    78    1
    75    94    92   ar
    76   115   114    1
    77   115   116    2
    78    65    66    1
    79    65    64    1
    80   114   113    1
    81   125   126    1
    82    34    33    1
    83    32    33    1
    84   102   105    1
    85   102   101    1
    86    93    92   ar
    87    67    66    2
    88    92    91    1
    89    64    58   am
    90   105   106    1
    91   101   107    1
    92   126   127    1
    93   128   127   ar
    94    78    77    1
    95    91    88    1
    96    58    59    2
    97    58    57    1
    98    60    61    1
    99    60    57    1
   100    77    76    1
   101   127   129   ar
   102   106   107    1
   103    76    73    1
   104    61    62    1
   105    61    63    1
   106    88    89    1
   107    88    87    1
   108    57    56    1
   109    89    90    2
   110    56    47   am
   111    86    84    1
   112    73    72    1
   113    73    74    1
   114    83    82    2
   115    42    41    1
   116    42    43    1
   117    84    81    1
   118    84    85    1
   119    81    82    1
   120    81    80    1
   121    47    48    2
   122    47    46    1
   123    45    43   am
   124    45    46    1
   125    43    44    2
   126    74    75    2
   127    46    49    1
   128    49    50    1
   129    52    50   ar
   130    52    54   ar
   131    50    51   ar
   132    54    55   ar
   133    51    53   ar
   134    55    53   ar
