@<TRIPOS>MOLECULE
tmp/5calA00.pdb
 159 148 0 0 0
SMALL
GASTEIGER

@<TRIPOS>ATOM
      1  N        -46.4490    4.2130  -18.9080 N.3    22  LEU22      -0.1231
      2  CA       -47.3320    3.2120  -18.3120 C.3    22  LEU22       0.1693
      3  C        -46.7020    1.8290  -18.3580 C.2    22  LEU22       0.2592
      4  O        -46.8410    1.0650  -17.4060 O.2    22  LEU22      -0.2718
      5  CB       -48.7080    3.1970  -18.9900 C.3    22  LEU22       0.0284
      6  CG       -49.5670    4.4390  -18.8280 C.3    22  LEU22       0.0019
      7  CD1      -50.6520    4.4730  -19.8760 C.3    22  LEU22       0.0001
      8  CD2      -50.1580    4.5260  -17.4300 C.3    22  LEU22       0.0001
      9  N        -46.0240    1.5210  -19.4600 N.am   23  GLY23      -0.1957
     10  CA       -45.3680    0.2360  -19.6570 C.3    23  GLY23       0.1869
     11  C        -44.5030    0.1560  -20.8960 C.2    23  GLY23       0.2309
     12  O        -44.7360    0.8650  -21.8810 O.2    23  GLY23      -0.2863
     13  N        -44.2340   -4.7910  -27.6430 N.3    27  PHE27      -0.1241
     14  CA       -45.0480   -3.8320  -28.4000 C.3    27  PHE27       0.1605
     15  C        -44.3000   -2.5150  -28.6620 C.2    27  PHE27       0.2264
     16  O        -44.2750   -2.0330  -29.7980 O.2    27  PHE27      -0.2867
     17  CB       -46.3980   -3.5690  -27.6900 C.3    27  PHE27       0.0534
     18  CG       -46.3470   -3.3890  -26.1850 C.ar   27  PHE27      -0.0203
     19  CD1      -46.1720   -2.1290  -25.6220 C.ar   27  PHE27      -0.0042
     20  CD2      -46.5250   -4.4730  -25.3320 C.ar   27  PHE27      -0.0042
     21  CE1      -46.1380   -1.9630  -24.2320 C.ar   27  PHE27      -0.0003
     22  CE2      -46.4880   -4.3050  -23.9420 C.ar   27  PHE27      -0.0003
     23  CZ       -46.2970   -3.0520  -23.4030 C.ar   27  PHE27      -0.0000
     24  N        -45.7920    2.5170  -24.0140 N.3    30  VAL30      -0.1245
     25  CA       -47.1030    3.1550  -23.8520 C.3    30  VAL30       0.1561
     26  C        -46.9890    4.2630  -22.7970 C.2    30  VAL30       0.2260
     27  O        -46.4340    4.0340  -21.7190 O.2    30  VAL30      -0.2867
     28  CB       -48.2250    2.1210  -23.5200 C.3    30  VAL30       0.0252
     29  CG1      -49.5820    2.7980  -23.3410 C.3    30  VAL30       0.0019
     30  CG2      -48.3150    1.0370  -24.5930 C.3    30  VAL30       0.0019
     31  N        -53.8320    7.1500  -24.0090 N.3    47  ALA47      -0.1245
     32  CA       -52.7120    6.2290  -23.9490 C.3    47  ALA47       0.1562
     33  C        -52.0090    6.3620  -25.3030 C.2    47  ALA47       0.2260
     34  O        -52.6450    6.2090  -26.3540 O.2    47  ALA47      -0.2867
     35  CB       -53.2060    4.8150  -23.7430 C.3    47  ALA47       0.0290
     36  N        -49.1360    4.9660  -27.7210 N.3    49  LYS49      -0.1245
     37  CA       -48.2550    3.8430  -28.0550 C.3    49  LYS49       0.1561
     38  C        -47.2700    4.2480  -29.1670 C.2    49  LYS49       0.2260
     39  O        -47.7050    4.6220  -30.2570 O.2    49  LYS49      -0.2867
     40  CB       -49.0950    2.6290  -28.4930 C.3    49  LYS49       0.0271
     41  CG       -48.3100    1.3510  -28.7740 C.3    49  LYS49       0.0035
     42  CD       -49.2210    0.2510  -29.3060 C.3    49  LYS49       0.0206
     43  CE       -48.4610   -1.0100  -29.6220 C.3    49  LYS49       0.1093
     44  NZ       -49.3600   -2.0960  -30.0940 N.3    49  LYS49      -0.1314
     45  N        -51.9340   -1.9870  -37.7560 N.3    64  GLU64      -0.1245
     46  CA       -52.6800   -2.1040  -36.5110 C.3    64  GLU64       0.1567
     47  C        -53.6300   -0.9200  -36.3990 C.2    64  GLU64       0.2260
     48  O        -54.7570   -1.0920  -35.9310 O.2    64  GLU64      -0.2867
     49  CB       -51.7220   -2.1590  -35.3100 C.3    64  GLU64       0.0388
     50  CG       -52.3670   -2.6660  -34.0300 C.3    64  GLU64       0.1160
     51  CD       -51.6040   -2.4090  -32.7450 C.2    64  GLU64       0.3649
     52  OE1      -50.4890   -1.8400  -32.8060 O.co2  64  GLU64      -0.2457
     53  OE2      -52.1290   -2.7780  -31.6690 O.co2  64  GLU64      -0.2457
     54  N        -57.6980   -1.0060  -35.7910 N.3    68  MET68      -0.1245
     55  CA       -58.1520   -0.2950  -34.5900 C.3    68  MET68       0.1570
     56  C        -59.0860    0.8950  -34.8820 C.2    68  MET68       0.2261
     57  O        -59.9430    1.2060  -34.0560 O.2    68  MET68      -0.2867
     58  CB       -56.9550    0.1330  -33.7310 C.3    68  MET68       0.0387
     59  CG       -57.2140    0.0190  -32.2520 C.3    68  MET68       0.0595
     60  SD       -55.8350    0.5930  -31.2310 S.3    68  MET68      -0.1393
     61  CE       -54.7140   -0.8210  -31.3600 C.3    68  MET68       0.0692
     62  N        -61.3590   -1.8870  -27.9830 N.3    77  CYS77      -0.1235
     63  CA       -60.5410   -0.6720  -27.9600 C.3    77  CYS77       0.1677
     64  C        -60.4030   -0.0620  -29.3490 C.2    77  CYS77       0.2270
     65  O        -59.8220   -0.6800  -30.2380 O.2    77  CYS77      -0.2867
     66  CB       -59.1800   -0.9390  -27.3270 C.3    77  CYS77       0.0956
     67  SG       -59.2290   -1.1290  -25.5290 S.3    77  CYS77      -0.0801
     68  N        -54.7150    6.1720  -28.2580 N.3    92  MET92      -0.1230
     69  CA       -55.8010    5.3010  -27.8290 C.3    92  MET92       0.1702
     70  C        -56.4160    5.8230  -26.5400 C.2    92  MET92       0.2592
     71  O        -55.9290    6.8020  -25.9770 O.2    92  MET92      -0.2718
     72  CB       -55.2690    3.8690  -27.6490 C.3    92  MET92       0.0401
     73  CG       -54.4410    3.3840  -28.8380 C.3    92  MET92       0.0596
     74  SD       -53.2860    2.0390  -28.5070 S.3    92  MET92      -0.1393
     75  CE       -52.4660    2.6320  -27.0210 C.3    92  MET92       0.0692
     76  N        -57.5050    5.1940  -26.0920 N.am   93  GLN93      -0.1966
     77  CA       -58.2070    5.5510  -24.8630 C.3    93  GLN93       0.1733
     78  C        -57.4120    5.0680  -23.6480 C.2    93  GLN93       0.2616
     79  O        -56.8910    3.9470  -23.6630 O.2    93  GLN93      -0.2715
     80  CB       -59.6100    4.9110  -24.8620 C.3    93  GLN93       0.0408
     81  CG       -60.4750    5.2750  -23.6520 C.3    93  GLN93       0.0908
     82  CD       -61.7310    4.4540  -23.5170 C.2    93  GLN93       0.2608
     83  OE1      -61.8760    3.3620  -24.0830 O.2    93  GLN93      -0.2717
     84  NE2      -62.6480    4.9440  -22.7140 N.am   93  GLN93      -0.0878
     85  N        -57.3450    5.9030  -22.5830 N.am   94  LEU94      -0.1963
     86  CA       -56.7040    5.5120  -21.3250 C.3    94  LEU94       0.1728
     87  C        -57.6300    4.5380  -20.5950 C.2    94  LEU94       0.2616
     88  O        -58.8000    4.8530  -20.3520 O.2    94  LEU94      -0.2715
     89  CB       -56.4100    6.7280  -20.4240 C.3    94  LEU94       0.0311
     90  CG       -55.5330    6.4630  -19.1850 C.3    94  LEU94       0.0022
     91  CD1      -54.0460    6.4290  -19.5470 C.3    94  LEU94       0.0001
     92  CD2      -55.7800    7.5010  -18.1120 C.3    94  LEU94       0.0001
     93  N        -57.1050    3.3440  -20.2920 N.am   95  MET95      -0.1964
     94  CA       -57.7660    2.2730  -19.5350 C.3    95  MET95       0.1722
     95  C        -57.0040    2.3240  -18.2130 C.2    95  MET95       0.2458
     96  O        -55.9290    1.7410  -18.1240 O.2    95  MET95      -0.2730
     97  CB       -57.5920    0.9410  -20.2790 C.3    95  MET95       0.0427
     98  CG       -58.1360    0.9780  -21.7170 C.3    95  MET95       0.0599
     99  SD       -59.9220    1.2840  -21.8330 S.3    95  MET95      -0.1393
    100  CE       -60.5340   -0.3700  -21.5670 C.3    95  MET95       0.0692
    101  N        -57.4370    3.1730  -17.2400 N.am   96  PRO96      -0.2727
    102  CA       -56.5830    3.4480  -16.0660 C.3    96  PRO96       0.1402
    103  C        -56.1200    2.2650  -15.2280 C.2    96  PRO96       0.2269
    104  O        -55.0500    2.3450  -14.6320 O.2    96  PRO96      -0.2865
    105  CB       -57.4290    4.4120  -15.2300 C.3    96  PRO96       0.0296
    106  CG       -58.3520    5.0540  -16.1990 C.3    96  PRO96       0.0237
    107  CD       -58.6660    3.9970  -17.2030 C.3    96  PRO96       0.0939
    108  N        -55.2010   -0.7240  -16.2350 N.3    98  GLY98      -0.1210
    109  CA       -54.3250   -1.5940  -17.0150 C.3    98  GLY98       0.1956
    110  C        -54.9780   -2.8660  -17.5160 C.2    98  GLY98       0.2612
    111  O        -56.1950   -2.9010  -17.7190 O.2    98  GLY98      -0.2717
    112  N        -54.1680   -3.9250  -17.7140 N.am   99  CYS99      -0.1970
    113  CA       -54.6590   -5.2100  -18.2150 C.3    99  CYS99       0.1712
    114  C        -55.3440   -6.0370  -17.1400 C.2    99  CYS99       0.2296
    115  O        -54.9840   -5.9550  -15.9630 O.2    99  CYS99      -0.2864
    116  CB       -53.5660   -5.9990  -18.9320 C.3    99  CYS99       0.0983
    117  SG       -52.3660   -6.7880  -17.8330 S.3    99  CYS99      -0.0798
    118  N        -54.0920  -10.6810  -20.9950 N.3   143  ARG143     -0.1231
    119  CA       -53.1580   -9.5620  -21.1500 C.3   143  ARG143      0.1694
    120  C        -53.6860   -8.5390  -22.1710 C.2   143  ARG143      0.2592
    121  O        -53.3190   -7.3680  -22.1050 O.2   143  ARG143     -0.2718
    122  CB       -51.7460  -10.0660  -21.5430 C.3   143  ARG143      0.0321
    123  CG       -51.5100  -10.2980  -23.0400 C.3   143  ARG143      0.0489
    124  CD       -50.2190  -11.0460  -23.3440 C.3   143  ARG143      0.2205
    125  NE       -50.5180  -12.3180  -24.0060 N.pl3 143  ARG143     -0.0865
    126  CZ       -50.4870  -12.5100  -25.3220 C.cat 143  ARG143      0.5346
    127  NH1      -50.1080  -11.5280  -26.1370 N.pl3 143  ARG143      0.1354
    128  NH2      -50.8050  -13.6950  -25.8320 N.pl3 143  ARG143      0.1354
    129  N        -54.5310   -8.9920  -23.1210 N.am  144  ASN144     -0.1974
    130  CA       -55.0680   -8.1560  -24.1930 C.3   144  ASN144      0.1688
    131  C        -56.5220   -7.7370  -23.9550 C.2   144  ASN144      0.2292
    132  O        -57.2260   -7.3510  -24.8940 O.2   144  ASN144     -0.2864
    133  CB       -54.8550   -8.8190  -25.5580 C.3   144  ASN144      0.1181
    134  CG       -53.3940   -8.8780  -25.9340 C.2   144  ASN144      0.2629
    135  OD1      -52.5850   -8.0340  -25.5290 O.2   144  ASN144     -0.2716
    136  ND2      -53.0120   -9.8870  -26.6950 N.am  144  ASN144     -0.0877
    137  N        -58.2490   -4.9550  -21.4800 N.3   146  LEU146     -0.1245
    138  CA       -57.9390   -3.8230  -20.6130 C.3   146  LEU146      0.1561
    139  C        -59.1320   -3.4030  -19.7860 C.2   146  LEU146      0.2260
    140  O        -60.2740   -3.6550  -20.1730 O.2   146  LEU146     -0.2867
    141  CB       -57.3470   -2.6420  -21.3930 C.3   146  LEU146      0.0270
    142  CG       -56.1030   -2.9010  -22.2630 C.3   146  LEU146      0.0019
    143  CD1      -55.5360   -1.6360  -22.7170 C.3   146  LEU146      0.0001
    144  CD2      -54.9960   -3.6610  -21.5220 C.3   146  LEU146      0.0001
    145  N        -58.2950   -5.5500  -26.7320 N.3   156  THR156     -0.1203
    146  CA       -57.2950   -4.7530  -27.4430 C.3   156  THR156      0.1994
    147  C        -56.2810   -5.6470  -28.1750 C.2   156  THR156      0.2617
    148  O        -56.4520   -6.8670  -28.2010 O.2   156  THR156     -0.2717
    149  CB       -56.6420   -3.7170  -26.5000 C.3   156  THR156      0.1784
    150  OG1      -55.9710   -2.7470  -27.3060 O.3   156  THR156     -0.2211
    151  CG2      -55.6630   -4.3460  -25.4880 C.3   156  THR156      0.0376
    152  N        -55.2200   -5.0210  -28.7460 N.am  157  ASP157     -0.1973
    153  CA       -54.0980   -5.6090  -29.4850 C.3   157  ASP157      0.1709
    154  C        -54.5570   -6.2490  -30.7990 C.2   157  ASP157      0.2293
    155  O        -54.9010   -7.4320  -30.8590 O.2   157  ASP157     -0.2864
    156  CB       -53.2390   -6.5570  -28.6190 C.3   157  ASP157      0.1436
    157  CG       -51.8790   -6.9280  -29.1880 C.2   157  ASP157      0.3671
    158  OD1      -51.4230   -6.2550  -30.1360 O.co2 157  ASP157     -0.2456
    159  OD2      -51.2530   -7.8660  -28.6560 O.co2 157  ASP157     -0.2456
@<TRIPOS>BOND
     1    45    46    1
     2    46    47    1
     3    46    49    1
     4    47    48    2
     5    54    55    1
     6    49    50    1
     7    56    55    1
     8    56    57    2
     9    55    58    1
    10    50    51    1
    11    58    59    1
    12    52    51   ar
    13    51    53   ar
    14    59    60    1
    15    61    60    1
    16   155   154    2
    17   154   153    1
    18    39    38    2
    19    65    64    2
    20   158   157   ar
    21    44    43    1
    22    16    15    2
    23    43    42    1
    24   153   152    1
    25   153   156    1
    26    64    63    1
    27    42    41    1
    28   157   159   ar
    29   157   156    1
    30    38    37    1
    31    73    74    1
    32    73    72    1
    33    41    40    1
    34   152   147   am
    35    15    14    1
    36    74    75    1
    37    40    37    1
    38    14    17    1
    39    14    13    1
    40    68    69    1
    41   148   147    2
    42   147   146    1
    43    37    36    1
    44    62    63    1
    45    63    66    1
    46    69    72    1
    47    69    70    1
    48    17    18    1
    49   146   145    1
    50   146   149    1
    51    66    67    1
    52   150   149    1
    53   136   134   am
    54    70    76   am
    55    70    71    2
    56   149   151    1
    57    34    33    2
    58    18    19   ar
    59    18    20   ar
    60   127   126    1
    61    76    77    1
    62   134   133    1
    63   134   135    2
    64   128   126    1
    65    19    21   ar
    66   133   130    1
    67    20    22   ar
    68   126   125    2
    69    33    32    1
    70   132   131    2
    71    77    80    1
    72    77    78    1
    73    80    81    1
    74    30    28    1
    75    21    23   ar
    76   130   131    1
    77   130   129    1
    78    83    82    2
    79    24    25    1
    80    31    32    1
    81   125   124    1
    82    32    35    1
    83    22    23   ar
    84    25    28    1
    85    25    26    1
    86    79    78    2
    87    81    82    1
    88    78    85   am
    89    28    29    1
    90    82    84   am
    91   124   123    1
    92   129   120   am
    93   123   122    1
    94    26    27    2
    95   143   142    1
    96    85    86    1
    97   142   144    1
    98   142   141    1
    99   120   121    2
   100   120   119    1
   101    12    11    2
   102    99    98    1
   103    99   100    1
   104    98    97    1
   105   122   119    1
   106   137   138    1
   107   141   138    1
   108    86    87    1
   109    86    89    1
   110   119   118    1
   111    11    10    1
   112   138   139    1
   113    87    88    2
   114    87    93   am
   115    89    90    1
   116    93    94    1
   117    97    94    1
   118   140   139    2
   119     7     6    1
   120    10     9    1
   121    91    90    1
   122    94    95    1
   123     9     3   am
   124    90    92    1
   125     5     6    1
   126     5     2    1
   127   116   113    1
   128   116   117    1
   129     1     2    1
   130     6     8    1
   131     3     2    1
   132     3     4    2
   133   113   112    1
   134   113   114    1
   135    95    96    2
   136    95   101   am
   137   111   110    2
   138   112   110   am
   139   110   109    1
   140   101   107    1
   141   101   102    1
   142   107   106    1
   143   114   115    2
   144   109   108    1
   145   106   105    1
   146   102   105    1
   147   102   103    1
   148   103   104    2
