@<TRIPOS>MOLECULE
tmp/5canA00.pdb
 159 148 0 0 0
SMALL
GASTEIGER

@<TRIPOS>ATOM
      1  N        -46.6800    4.1760  -19.0160 N.3    23  LEU23      -0.1231
      2  CA       -47.5340    3.1520  -18.4070 C.3    23  LEU23       0.1693
      3  C        -46.9220    1.7610  -18.5800 C.2    23  LEU23       0.2592
      4  O        -47.0540    0.9250  -17.6910 O.2    23  LEU23      -0.2718
      5  CB       -48.9570    3.1670  -18.9890 C.3    23  LEU23       0.0284
      6  CG       -49.7670    4.4510  -18.8750 C.3    23  LEU23       0.0019
      7  CD1      -50.8440    4.4870  -19.9320 C.3    23  LEU23       0.0001
      8  CD2      -50.3740    4.6030  -17.4960 C.3    23  LEU23       0.0001
      9  N        -46.2820    1.5260  -19.7250 N.am   24  GLY24      -0.1957
     10  CA       -45.6470    0.2540  -20.0450 C.3    24  GLY24       0.1869
     11  C        -44.6800    0.2980  -21.2120 C.2    24  GLY24       0.2309
     12  O        -44.8190    1.1250  -22.1160 O.2    24  GLY24      -0.2863
     13  N        -43.3790   -4.0530  -28.6730 N.3    28  PHE28      -0.1241
     14  CA       -44.0190   -3.0450  -29.5210 C.3    28  PHE28       0.1605
     15  C        -43.2580   -1.7050  -29.4660 C.2    28  PHE28       0.2264
     16  O        -42.8350   -1.1800  -30.5050 O.2    28  PHE28      -0.2867
     17  CB       -45.5010   -2.8640  -29.0990 C.3    28  PHE28       0.0534
     18  CG       -45.7820   -2.8280  -27.6070 C.ar   28  PHE28      -0.0203
     19  CD1      -45.8720   -1.6180  -26.9270 C.ar   28  PHE28      -0.0042
     20  CD2      -45.9900   -4.0020  -26.8900 C.ar   28  PHE28      -0.0042
     21  CE1      -46.1300   -1.5850  -25.5490 C.ar   28  PHE28      -0.0003
     22  CE2      -46.2460   -3.9680  -25.5140 C.ar   28  PHE28      -0.0003
     23  CZ       -46.3200   -2.7600  -24.8530 C.ar   28  PHE28      -0.0000
     24  N        -45.8890    2.7470  -24.2240 N.3    31  VAL31      -0.1245
     25  CA       -47.2350    3.3090  -24.0720 C.3    31  VAL31       0.1561
     26  C        -47.1930    4.3830  -22.9770 C.2    31  VAL31       0.2260
     27  O        -46.7410    4.1180  -21.8570 O.2    31  VAL31      -0.2867
     28  CB       -48.3200    2.2150  -23.8100 C.3    31  VAL31       0.0252
     29  CG1      -49.6760    2.8300  -23.4780 C.3    31  VAL31       0.0019
     30  CG2      -48.4490    1.2740  -25.0060 C.3    31  VAL31       0.0019
     31  N        -54.0920    7.1060  -24.1270 N.3    48  ALA48      -0.1245
     32  CA       -52.9540    6.2070  -24.0820 C.3    48  ALA48       0.1562
     33  C        -52.2780    6.3810  -25.4380 C.2    48  ALA48       0.2260
     34  O        -52.9500    6.3140  -26.4760 O.2    48  ALA48      -0.2867
     35  CB       -53.4090    4.7820  -23.8970 C.3    48  ALA48       0.0290
     36  N        -49.3620    4.9610  -27.8790 N.3    50  LYS50      -0.1245
     37  CA       -48.4170    3.8870  -28.2260 C.3    50  LYS50       0.1561
     38  C        -47.3600    4.4490  -29.1970 C.2    50  LYS50       0.2260
     39  O        -47.7100    5.0660  -30.2090 O.2    50  LYS50      -0.2867
     40  CB       -49.1350    2.6680  -28.8280 C.3    50  LYS50       0.0271
     41  CG       -48.2830    1.3990  -28.8420 C.3    50  LYS50       0.0035
     42  CD       -49.0530    0.1900  -29.3460 C.3    50  LYS50       0.0206
     43  CE       -48.2170   -0.6360  -30.2890 C.3    50  LYS50       0.1093
     44  NZ       -48.8840   -1.9170  -30.6510 N.3    50  LYS50      -0.1314
     45  N        -52.0830   -1.9640  -37.9190 N.3    65  GLU65      -0.1245
     46  CA       -52.8080   -2.0430  -36.6500 C.3    65  GLU65       0.1567
     47  C        -53.7810   -0.8820  -36.5420 C.2    65  GLU65       0.2260
     48  O        -54.9100   -1.0950  -36.0990 O.2    65  GLU65      -0.2867
     49  CB       -51.8380   -2.0470  -35.4530 C.3    65  GLU65       0.0388
     50  CG       -52.3910   -2.7570  -34.2290 C.3    65  GLU65       0.1160
     51  CD       -51.8570   -2.3140  -32.8800 C.2    65  GLU65       0.3649
     52  OE1      -50.7080   -1.8130  -32.8230 O.co2  65  GLU65      -0.2457
     53  OE2      -52.5820   -2.4970  -31.8720 O.co2  65  GLU65      -0.2457
     54  N        -57.8580   -1.0280  -36.0140 N.3    69  MET69      -0.1245
     55  CA       -58.3340   -0.3330  -34.8190 C.3    69  MET69       0.1570
     56  C        -59.2840    0.8440  -35.1160 C.2    69  MET69       0.2261
     57  O        -60.1910    1.1060  -34.3220 O.2    69  MET69      -0.2867
     58  CB       -57.1530    0.1010  -33.9600 C.3    69  MET69       0.0387
     59  CG       -57.3560   -0.1870  -32.5190 C.3    69  MET69       0.0595
     60  SD       -55.9370    0.3380  -31.5470 S.3    69  MET69      -0.1393
     61  CE       -56.6510    0.2500  -29.9040 C.3    69  MET69       0.0692
     62  N        -61.6430   -1.8340  -28.1320 N.3    78  CYS78      -0.1235
     63  CA       -60.8530   -0.5990  -28.1280 C.3    78  CYS78       0.1677
     64  C        -60.7050   -0.0510  -29.5300 C.2    78  CYS78       0.2270
     65  O        -60.0860   -0.6980  -30.3790 O.2    78  CYS78      -0.2867
     66  CB       -59.4910   -0.8230  -27.4830 C.3    78  CYS78       0.0956
     67  SG       -59.5660   -1.2050  -25.7220 S.3    78  CYS78      -0.0801
     68  N        -54.9880    6.2120  -28.3700 N.3    93  MET93      -0.1230
     69  CA       -56.0460    5.3010  -27.9390 C.3    93  MET93       0.1702
     70  C        -56.7050    5.8010  -26.6560 C.2    93  MET93       0.2592
     71  O        -56.2110    6.7420  -26.0380 O.2    93  MET93      -0.2718
     72  CB       -55.4600    3.8940  -27.7210 C.3    93  MET93       0.0401
     73  CG       -54.5280    3.4450  -28.8500 C.3    93  MET93       0.0596
     74  SD       -53.5410    2.0120  -28.4170 S.3    93  MET93      -0.1393
     75  CE       -52.5110    2.6780  -27.1000 C.3    93  MET93       0.0692
     76  N        -57.8280    5.1820  -26.2630 N.am   94  GLN94      -0.1966
     77  CA       -58.5340    5.5280  -25.0290 C.3    94  GLN94       0.1733
     78  C        -57.7150    5.0450  -23.8150 C.2    94  GLN94       0.2616
     79  O        -57.2450    3.9000  -23.8120 O.2    94  GLN94      -0.2715
     80  CB       -59.9500    4.8990  -25.0070 C.3    94  GLN94       0.0408
     81  CG       -60.7330    5.1730  -23.7130 C.3    94  GLN94       0.0908
     82  CD       -62.0710    4.4850  -23.6260 C.2    94  GLN94       0.2608
     83  OE1      -62.2540    3.3360  -24.0500 O.2    94  GLN94      -0.2717
     84  NE2      -63.0300    5.1600  -23.0190 N.am   94  GLN94      -0.0878
     85  N        -57.5500    5.9140  -22.7930 N.am   95  LEU95      -0.1963
     86  CA       -56.8910    5.5200  -21.5420 C.3    95  LEU95       0.1728
     87  C        -57.8320    4.5820  -20.7790 C.2    95  LEU95       0.2616
     88  O        -58.9670    4.9630  -20.4690 O.2    95  LEU95      -0.2715
     89  CB       -56.5490    6.7400  -20.6630 C.3    95  LEU95       0.0311
     90  CG       -55.8120    6.4400  -19.3460 C.3    95  LEU95       0.0022
     91  CD1      -54.2970    6.3050  -19.5690 C.3    95  LEU95       0.0001
     92  CD2      -56.1090    7.5080  -18.2970 C.3    95  LEU95       0.0001
     93  N        -57.3580    3.3500  -20.5280 N.am   96  MET96      -0.1964
     94  CA       -58.0070    2.2650  -19.7750 C.3    96  MET96       0.1722
     95  C        -57.3040    2.3040  -18.3970 C.2    96  MET96       0.2458
     96  O        -56.2540    1.6860  -18.2430 O.2    96  MET96      -0.2730
     97  CB       -57.7730    0.9540  -20.5360 C.3    96  MET96       0.0427
     98  CG       -58.3980    0.9640  -21.9480 C.3    96  MET96       0.0599
     99  SD       -60.1990    1.2160  -21.9530 S.3    96  MET96      -0.1393
    100  CE       -60.7500   -0.4280  -21.6590 C.3    96  MET96       0.0692
    101  N        -57.7700    3.1610  -17.4470 N.am   97  PRO97      -0.2727
    102  CA       -56.9720    3.4440  -16.2390 C.3    97  PRO97       0.1402
    103  C        -56.4900    2.2800  -15.3740 C.2    97  PRO97       0.2269
    104  O        -55.4680    2.4230  -14.6980 O.2    97  PRO97      -0.2865
    105  CB       -57.8910    4.3600  -15.4160 C.3    97  PRO97       0.0296
    106  CG       -58.7710    4.9980  -16.3820 C.3    97  PRO97       0.0237
    107  CD       -58.9930    3.9940  -17.4700 C.3    97  PRO97       0.0939
    108  N        -55.5240   -0.7570  -16.3950 N.3    99  GLY99      -0.1210
    109  CA       -54.6460   -1.6300  -17.1670 C.3    99  GLY99       0.1956
    110  C        -55.3090   -2.9050  -17.6500 C.2    99  GLY99       0.2612
    111  O        -56.5250   -2.9190  -17.8680 O.2    99  GLY99      -0.2717
    112  N        -54.5070   -3.9850  -17.8350 N.am  100  CYS100     -0.1970
    113  CA       -55.0130   -5.2670  -18.3360 C.3   100  CYS100      0.1712
    114  C        -55.6630   -6.0980  -17.2560 C.2   100  CYS100      0.2296
    115  O        -55.2770   -6.0170  -16.0840 O.2   100  CYS100     -0.2864
    116  CB       -53.9520   -6.0560  -19.1010 C.3   100  CYS100      0.0983
    117  SG       -52.6820   -6.8050  -18.0530 S.3   100  CYS100     -0.0798
    118  N        -54.3360  -10.7080  -21.0790 N.3   144  ARG144     -0.1231
    119  CA       -53.4110   -9.5740  -21.2210 C.3   144  ARG144      0.1694
    120  C        -53.9180   -8.5570  -22.2690 C.2   144  ARG144      0.2592
    121  O        -53.5020   -7.4000  -22.2410 O.2   144  ARG144     -0.2718
    122  CB       -51.9820  -10.0550  -21.5670 C.3   144  ARG144      0.0321
    123  CG       -51.7960  -10.4830  -23.0150 C.3   144  ARG144      0.0489
    124  CD       -50.4350  -11.0890  -23.3590 C.3   144  ARG144      0.2205
    125  NE       -50.5470  -11.7880  -24.6440 N.pl3 144  ARG144     -0.0865
    126  CZ       -50.8950  -13.0660  -24.7790 C.cat 144  ARG144      0.5346
    127  NH1      -51.0560  -13.8380  -23.7090 N.pl3 144  ARG144      0.1354
    128  NH2      -51.0470  -13.5930  -25.9860 N.pl3 144  ARG144      0.1354
    129  N        -54.8060   -8.9980  -23.1910 N.am  145  ASN145     -0.1974
    130  CA       -55.3620   -8.1770  -24.2710 C.3   145  ASN145      0.1688
    131  C        -56.8220   -7.7350  -24.0070 C.2   145  ASN145      0.2292
    132  O        -57.5120   -7.2370  -24.9080 O.2   145  ASN145     -0.2864
    133  CB       -55.1820   -8.8720  -25.6170 C.3   145  ASN145      0.1181
    134  CG       -53.7250   -8.9470  -26.0380 C.2   145  ASN145      0.2629
    135  OD1      -52.8790   -8.1470  -25.6200 O.2   145  ASN145     -0.2716
    136  ND2      -53.3900   -9.9050  -26.8840 N.am  145  ASN145     -0.0877
    137  N        -58.5690   -4.9930  -21.5910 N.3   147  LEU147     -0.1245
    138  CA       -58.2640   -3.8450  -20.7420 C.3   147  LEU147      0.1561
    139  C        -59.4560   -3.3980  -19.9330 C.2   147  LEU147      0.2260
    140  O        -60.5970   -3.5900  -20.3320 O.2   147  LEU147     -0.2867
    141  CB       -57.6340   -2.6740  -21.5100 C.3   147  LEU147      0.0270
    142  CG       -56.3340   -2.9330  -22.3030 C.3   147  LEU147      0.0019
    143  CD1      -55.7410   -1.6580  -22.7420 C.3   147  LEU147      0.0001
    144  CD2      -55.2780   -3.6750  -21.4960 C.3   147  LEU147      0.0001
    145  N        -58.5770   -5.6070  -26.9370 N.3   157  THR157     -0.1203
    146  CA       -57.6040   -4.7920  -27.6500 C.3   157  THR157      0.1994
    147  C        -56.5400   -5.6590  -28.3200 C.2   157  THR157      0.2617
    148  O        -56.6360   -6.8890  -28.2720 O.2   157  THR157     -0.2717
    149  CB       -57.0310   -3.6840  -26.7430 C.3   157  THR157      0.1784
    150  OG1      -56.4130   -2.7100  -27.5850 O.3   157  THR157     -0.2211
    151  CG2      -56.0500   -4.2090  -25.6700 C.3   157  THR157      0.0376
    152  N        -55.5190   -5.0040  -28.9250 N.am  158  ASP158     -0.1973
    153  CA       -54.3810   -5.5930  -29.6410 C.3   158  ASP158      0.1709
    154  C        -54.8450   -6.2420  -30.9400 C.2   158  ASP158      0.2293
    155  O        -55.2730   -7.3970  -30.9660 O.2   158  ASP158     -0.2864
    156  CB       -53.5110   -6.5250  -28.7640 C.3   158  ASP158      0.1436
    157  CG       -52.1770   -6.9090  -29.3710 C.2   158  ASP158      0.3671
    158  OD1      -52.1720   -7.6080  -30.4050 O.co2 158  ASP158     -0.2456
    159  OD2      -51.1370   -6.5700  -28.7750 O.co2 158  ASP158     -0.2456
@<TRIPOS>BOND
     1    45    46    1
     2    46    47    1
     3    46    49    1
     4    47    48    2
     5    54    55    1
     6    49    50    1
     7    56    55    1
     8    56    57    2
     9    55    58    1
    10    50    51    1
    11    58    59    1
    12    51    52   ar
    13    51    53   ar
    14    59    60    1
    15    60    61    1
    16   155   154    2
    17   154   153    1
    18    44    43    1
    19    16    15    2
    20   158   157   ar
    21    65    64    2
    22    43    42    1
    23    39    38    2
    24   153   152    1
    25   153   156    1
    26    64    63    1
    27    14    15    1
    28    14    17    1
    29    14    13    1
    30   157   159   ar
    31   157   156    1
    32    42    41    1
    33    38    37    1
    34    17    18    1
    35   152   147   am
    36    73    74    1
    37    73    72    1
    38    41    40    1
    39    40    37    1
    40    74    75    1
    41    68    69    1
    42   147   148    2
    43   147   146    1
    44    37    36    1
    45    62    63    1
    46    63    66    1
    47    69    72    1
    48    69    70    1
    49   146   145    1
    50   146   149    1
    51    18    19   ar
    52    18    20   ar
    53   150   149    1
    54    66    67    1
    55    19    21   ar
    56    20    22   ar
    57   136   134   am
    58   149   151    1
    59    70    76   am
    60    70    71    2
    61    34    33    2
    62    76    77    1
    63   134   135    2
    64   134   133    1
    65   128   126    1
    66   133   130    1
    67    21    23   ar
    68    22    23   ar
    69    33    32    1
    70    77    80    1
    71    77    78    1
    72    80    81    1
    73    30    28    1
    74   132   131    2
    75   126   125    2
    76   126   127    1
    77   125   124    1
    78   130   131    1
    79   130   129    1
    80    24    25    1
    81    31    32    1
    82    32    35    1
    83    25    28    1
    84    25    26    1
    85    83    82    2
    86    78    79    2
    87    78    85   am
    88    28    29    1
    89    81    82    1
    90    82    84   am
    91   124   123    1
    92   129   120   am
    93   123   122    1
    94    26    27    2
    95    85    86    1
    96   143   142    1
    97   142   141    1
    98   142   144    1
    99   120   121    2
   100   120   119    1
   101    12    11    2
   102    99    98    1
   103    99   100    1
   104    98    97    1
   105   137   138    1
   106   122   119    1
   107    86    87    1
   108    86    89    1
   109   141   138    1
   110   119   118    1
   111    11    10    1
   112    87    93   am
   113    87    88    2
   114   138   139    1
   115    89    90    1
   116    97    94    1
   117    93    94    1
   118   140   139    2
   119    10     9    1
   120     7     6    1
   121    94    95    1
   122     9     3   am
   123    91    90    1
   124    90    92    1
   125   116   113    1
   126   116   117    1
   127     1     2    1
   128     5     6    1
   129     5     2    1
   130     6     8    1
   131     3     2    1
   132     3     4    2
   133    95    96    2
   134    95   101   am
   135   113   112    1
   136   113   114    1
   137   111   110    2
   138   112   110   am
   139   110   109    1
   140   107   101    1
   141   107   106    1
   142   101   102    1
   143   114   115    2
   144   109   108    1
   145   106   105    1
   146   102   105    1
   147   102   103    1
   148   103   104    2
