@<TRIPOS>MOLECULE
tmp/5caoA00.pdb
 181 169 0 0 0
SMALL
GASTEIGER

@<TRIPOS>ATOM
      1  N        -48.1010    4.1530  -20.2040 N.3    22  LEU22      -0.1231
      2  CA       -49.0190    3.1580  -19.6340 C.3    22  LEU22       0.1693
      3  C        -48.4730    1.7370  -19.7810 C.2    22  LEU22       0.2592
      4  O        -48.7530    0.8820  -18.9400 O.2    22  LEU22      -0.2718
      5  CB       -50.4240    3.2420  -20.2680 C.3    22  LEU22       0.0284
      6  CG       -51.2240    4.5220  -20.0450 C.3    22  LEU22       0.0019
      7  CD1      -52.3610    4.6210  -21.0340 C.3    22  LEU22       0.0001
      8  CD2      -51.7390    4.6210  -18.6170 C.3    22  LEU22       0.0001
      9  N        -47.7320    1.5000  -20.8610 N.am   23  GLY23      -0.1957
     10  CA       -47.1240    0.2140  -21.1810 C.3    23  GLY23       0.1869
     11  C        -46.0730    0.3430  -22.2610 C.2    23  GLY23       0.2309
     12  O        -46.2030    1.1820  -23.1580 O.2    23  GLY23      -0.2863
     13  N        -44.9350   -4.1130  -29.0040 N.3    27  PHE27      -0.1241
     14  CA       -45.8870   -3.2390  -29.7100 C.3    27  PHE27       0.1605
     15  C        -45.3780   -1.7920  -29.8270 C.2    27  PHE27       0.2264
     16  O        -45.8390   -1.0430  -30.6900 O.2    27  PHE27      -0.2867
     17  CB       -47.2610   -3.2590  -29.0080 C.3    27  PHE27       0.0534
     18  CG       -47.2300   -3.0400  -27.5090 C.ar   27  PHE27      -0.0203
     19  CD1      -47.2110   -1.7540  -26.9760 C.ar   27  PHE27      -0.0042
     20  CD2      -47.2520   -4.1180  -26.6310 C.ar   27  PHE27      -0.0042
     21  CE1      -47.1850   -1.5520  -25.5940 C.ar   27  PHE27      -0.0003
     22  CE2      -47.2300   -3.9140  -25.2470 C.ar   27  PHE27      -0.0003
     23  CZ       -47.1980   -2.6320  -24.7380 C.ar   27  PHE27      -0.0000
     24  N        -47.0770    2.8350  -25.2670 N.3    30  VAL30      -0.1245
     25  CA       -48.4140    3.4200  -25.1590 C.3    30  VAL30       0.1561
     26  C        -48.4150    4.5060  -24.0810 C.2    30  VAL30       0.2260
     27  O        -47.9320    4.2800  -22.9690 O.2    30  VAL30      -0.2867
     28  CB       -49.5290    2.3530  -24.9590 C.3    30  VAL30       0.0252
     29  CG1      -50.9120    2.9970  -24.8980 C.3    30  VAL30       0.0019
     30  CG2      -49.4910    1.3090  -26.0720 C.3    30  VAL30       0.0019
     31  N        -55.3340    7.2400  -25.6400 N.3    47  ALA47      -0.1245
     32  CA       -54.1780    6.3590  -25.5180 C.3    47  ALA47       0.1562
     33  C        -53.3830    6.5120  -26.8230 C.2    47  ALA47       0.2260
     34  O        -53.9380    6.3270  -27.9070 O.2    47  ALA47      -0.2867
     35  CB       -54.6190    4.9230  -25.3170 C.3    47  ALA47       0.0290
     36  N        -50.2730    5.3470  -29.2090 N.3    49  LYS49      -0.1245
     37  CA       -49.3330    4.2660  -29.5250 C.3    49  LYS49       0.1561
     38  C        -48.2560    4.7180  -30.5230 C.2    49  LYS49       0.2260
     39  O        -48.5780    5.2930  -31.5590 O.2    49  LYS49      -0.2867
     40  CB       -50.0830    3.0300  -30.0610 C.3    49  LYS49       0.0271
     41  CG       -49.2210    1.7720  -30.1850 C.3    49  LYS49       0.0035
     42  CD       -49.9150    0.6810  -30.9880 C.3    49  LYS49       0.0206
     43  CE       -49.0640   -0.5600  -31.0730 C.3    49  LYS49       0.1093
     44  NZ       -49.8630   -1.7660  -31.4150 N.3    49  LYS49      -0.1314
     45  N        -52.4860   -2.0920  -39.1950 N.3    63  GLU63      -0.1245
     46  CA       -53.2380   -2.2140  -37.9520 C.3    63  GLU63       0.1567
     47  C        -54.2400   -1.0760  -37.8600 C.2    63  GLU63       0.2260
     48  O        -55.3630   -1.3060  -37.4140 O.2    63  GLU63      -0.2867
     49  CB       -52.3000   -2.2090  -36.7380 C.3    63  GLU63       0.0388
     50  CG       -52.9650   -2.6890  -35.4560 C.3    63  GLU63       0.1160
     51  CD       -52.0990   -2.6230  -34.2140 C.2    63  GLU63       0.3649
     52  OE1      -51.5510   -1.5340  -33.9240 O.co2  63  GLU63      -0.2457
     53  OE2      -51.9970   -3.6540  -33.5110 O.co2  63  GLU63      -0.2457
     54  N        -58.4450   -1.3390  -37.4330 N.3    67  MET67      -0.1245
     55  CA       -58.9380   -0.6060  -36.2820 C.3    67  MET67       0.1570
     56  C        -59.8460    0.5810  -36.6180 C.2    67  MET67       0.2261
     57  O        -60.6750    0.9530  -35.7880 O.2    67  MET67      -0.2867
     58  CB       -57.7670   -0.1670  -35.4210 C.3    67  MET67       0.0387
     59  CG       -58.0170   -0.3750  -33.9830 C.3    67  MET67       0.0595
     60  SD       -56.6180    0.1690  -33.0100 S.3    67  MET67      -0.1393
     61  CE       -57.4540    0.4920  -31.4770 C.3    67  MET67       0.0692
     62  N        -62.5460   -2.1230  -29.6370 N.3    76  CYS76      -0.1221
     63  CA       -61.7350   -0.8930  -29.6160 C.3    76  CYS76       0.1808
     64  C        -61.5900   -0.3000  -31.0090 C.2    76  CYS76       0.2601
     65  O        -61.1440   -0.9830  -31.9260 O.2    76  CYS76      -0.2717
     66  CB       -60.3770   -1.1250  -28.9620 C.3    76  CYS76       0.0970
     67  SG       -60.4420   -1.2450  -27.1580 S.3    76  CYS76      -0.0800
     68  N        -61.9810    0.9610  -31.1700 N.am   77  ARG77      -0.1979
     69  CA       -61.9010    1.6870  -32.4430 C.3    77  ARG77       0.1597
     70  C        -60.7340    2.6940  -32.4340 C.2    77  ARG77       0.2287
     71  O        -60.3330    3.2020  -31.3750 O.2    77  ARG77      -0.2864
     72  CB       -63.2310    2.4300  -32.6730 C.3    77  ARG77       0.0334
     73  CG       -63.4400    2.9930  -34.0590 C.3    77  ARG77       0.0492
     74  CD       -64.7800    3.6830  -34.1480 C.3    77  ARG77       0.2205
     75  NE       -64.8360    4.5850  -35.2970 N.pl3  77  ARG77      -0.0865
     76  CZ       -64.5390    5.8800  -35.2440 C.cat  77  ARG77       0.5346
     77  NH1      -64.1860    6.4420  -34.0930 N.pl3  77  ARG77       0.1354
     78  NH2      -64.6200    6.6290  -36.3340 N.pl3  77  ARG77       0.1354
     79  N        -55.9520    6.2700  -29.8730 N.3    91  MET91      -0.1230
     80  CA       -57.0200    5.3570  -29.4740 C.3    91  MET91       0.1702
     81  C        -57.7440    5.8800  -28.2390 C.2    91  MET91       0.2592
     82  O        -57.2820    6.8280  -27.6140 O.2    91  MET91      -0.2718
     83  CB       -56.4250    3.9700  -29.1800 C.3    91  MET91       0.0401
     84  CG       -55.4760    3.4690  -30.2550 C.3    91  MET91       0.0596
     85  SD       -54.5140    2.0170  -29.7750 S.3    91  MET91      -0.1393
     86  CE       -53.5010    2.6900  -28.4490 C.3    91  MET91       0.0692
     87  N        -58.8730    5.2590  -27.8830 N.am   92  GLN92      -0.1966
     88  CA       -59.6390    5.6220  -26.6960 C.3    92  GLN92       0.1733
     89  C        -58.8730    5.1320  -25.4740 C.2    92  GLN92       0.2616
     90  O        -58.2750    4.0560  -25.5200 O.2    92  GLN92      -0.2715
     91  CB       -61.0320    4.9610  -26.7370 C.3    92  GLN92       0.0408
     92  CG       -61.9660    5.3910  -25.5970 C.3    92  GLN92       0.0908
     93  CD       -63.1860    4.5160  -25.4080 C.2    92  GLN92       0.2608
     94  OE1      -63.3210    3.4170  -25.9610 O.2    92  GLN92      -0.2717
     95  NE2      -64.0970    4.9800  -24.5840 N.am   92  GLN92      -0.0878
     96  N        -58.8880    5.9250  -24.3870 N.am   93  LEU93      -0.1963
     97  CA       -58.2660    5.5480  -23.1220 C.3    93  LEU93       0.1728
     98  C        -59.2090    4.5750  -22.4130 C.2    93  LEU93       0.2616
     99  O        -60.4110    4.8400  -22.2890 O.2    93  LEU93      -0.2715
    100  CB       -57.9970    6.7830  -22.2380 C.3    93  LEU93       0.0311
    101  CG       -57.2220    6.5430  -20.9180 C.3    93  LEU93       0.0022
    102  CD1      -55.7340    6.3240  -21.1650 C.3    93  LEU93       0.0001
    103  CD2      -57.3860    7.7120  -19.9640 C.3    93  LEU93       0.0001
    104  N        -58.6500    3.4360  -21.9800 N.am   94  MET94      -0.1964
    105  CA       -59.3150    2.3630  -21.2400 C.3    94  MET94       0.1722
    106  C        -58.6350    2.4430  -19.8810 C.2    94  MET94       0.2458
    107  O        -57.5840    1.8300  -19.6850 O.2    94  MET94      -0.2730
    108  CB       -59.0750    1.0210  -21.9560 C.3    94  MET94       0.0427
    109  CG       -59.5600    1.0250  -23.4090 C.3    94  MET94       0.0599
    110  SD       -61.3520    1.2550  -23.5670 S.3    94  MET94      -0.1393
    111  CE       -61.8970   -0.4290  -23.3470 C.3    94  MET94       0.0692
    112  N        -59.1540    3.3060  -18.9650 N.am   95  PRO95      -0.2727
    113  CA       -58.4080    3.6110  -17.7260 C.3    95  PRO95       0.1402
    114  C        -57.9880    2.4550  -16.8360 C.2    95  PRO95       0.2269
    115  O        -56.9670    2.5790  -16.1550 O.2    95  PRO95      -0.2865
    116  CB       -59.3470    4.5490  -16.9700 C.3    95  PRO95       0.0296
    117  CG       -60.1620    5.1890  -18.0150 C.3    95  PRO95       0.0237
    118  CD       -60.3710    4.1420  -19.0660 C.3    95  PRO95       0.0939
    119  N        -56.9890   -0.6180  -17.6820 N.3    97  GLY97      -0.1210
    120  CA       -56.0390   -1.5060  -18.3490 C.3    97  GLY97       0.1956
    121  C        -56.6540   -2.7690  -18.9130 C.2    97  GLY97       0.2612
    122  O        -57.8490   -2.7940  -19.2150 O.2    97  GLY97      -0.2717
    123  N        -55.8310   -3.8190  -19.0810 N.am   98  CYS98      -0.1970
    124  CA       -56.2840   -5.0990  -19.6130 C.3    98  CYS98       0.1712
    125  C        -56.9580   -5.9250  -18.5410 C.2    98  CYS98       0.2296
    126  O        -56.6060   -5.8170  -17.3630 O.2    98  CYS98      -0.2864
    127  CB       -55.1630   -5.8670  -20.3110 C.3    98  CYS98       0.0983
    128  SG       -53.9870   -6.6700  -19.1890 S.3    98  CYS98      -0.0798
    129  N        -55.5690  -10.7030  -22.0620 N.3   142  ARG142     -0.1231
    130  CA       -54.6110   -9.5950  -22.2170 C.3   142  ARG142      0.1694
    131  C        -55.0580   -8.6280  -23.3370 C.2   142  ARG142      0.2592
    132  O        -54.6840   -7.4610  -23.3110 O.2   142  ARG142     -0.2718
    133  CB       -53.1810  -10.1290  -22.4830 C.3   142  ARG142      0.0321
    134  CG       -52.9470  -10.6350  -23.9100 C.3   142  ARG142      0.0489
    135  CD       -51.6900  -11.4680  -24.0760 C.3   142  ARG142      0.2205
    136  NE       -51.9890  -12.7150  -24.7880 N.pl3 142  ARG142     -0.0865
    137  CZ       -51.9120  -12.8710  -26.1070 C.cat 142  ARG142      0.5346
    138  NH1      -51.5100  -11.8660  -26.8810 N.pl3 142  ARG142      0.1354
    139  NH2      -52.2210  -14.0370  -26.6610 N.pl3 142  ARG142      0.1354
    140  N        -55.8610   -9.1160  -24.3080 N.am  143  ASN143     -0.1974
    141  CA       -56.3520   -8.3110  -25.4250 C.3   143  ASN143      0.1688
    142  C        -57.7950   -7.8450  -25.2390 C.2   143  ASN143      0.2292
    143  O        -58.4510   -7.4480  -26.2080 O.2   143  ASN143     -0.2864
    144  CB       -56.1420   -9.0390  -26.7520 C.3   143  ASN143      0.1181
    145  CG       -54.6960   -9.0720  -27.1700 C.2   143  ASN143      0.2629
    146  OD1      -53.8490   -8.3320  -26.6550 O.2   143  ASN143     -0.2716
    147  ND2      -54.3840   -9.9020  -28.1410 N.am  143  ASN143     -0.0877
    148  N        -59.6980   -4.9810  -23.0450 N.3   145  LEU145     -0.1245
    149  CA       -59.4420   -3.7960  -22.2300 C.3   145  LEU145      0.1561
    150  C        -60.6530   -3.3510  -21.4360 C.2   145  LEU145      0.2260
    151  O        -61.7910   -3.6120  -21.8270 O.2   145  LEU145     -0.2867
    152  CB       -58.8530   -2.6490  -23.0490 C.3   145  LEU145      0.0270
    153  CG       -57.6020   -2.9550  -23.8820 C.3   145  LEU145      0.0019
    154  CD1      -57.1000   -1.7260  -24.5040 C.3   145  LEU145      0.0001
    155  CD2      -56.4810   -3.5990  -23.0620 C.3   145  LEU145      0.0001
    156  N        -59.5250   -5.6800  -28.2000 N.3   155  THR155     -0.1203
    157  CA       -58.5140   -4.9480  -28.9520 C.3   155  THR155      0.1994
    158  C        -57.4900   -5.8990  -29.6050 C.2   155  THR155      0.2617
    159  O        -57.6700   -7.1180  -29.5520 O.2   155  THR155     -0.2717
    160  CB       -57.8760   -3.8550  -28.0840 C.3   155  THR155      0.1784
    161  OG1      -57.2490   -2.9280  -28.9660 O.3   155  THR155     -0.2211
    162  CG2      -56.8560   -4.4070  -27.0860 C.3   155  THR155      0.0376
    163  N        -56.4140   -5.3170  -30.2030 N.am  156  ASP156     -0.1973
    164  CA       -55.2930   -5.9780  -30.8710 C.3   156  ASP156      0.1709
    165  C        -55.7210   -6.7290  -32.1420 C.2   156  ASP156      0.2293
    166  O        -55.8630   -7.9510  -32.1390 O.2   156  ASP156     -0.2864
    167  CB       -54.4910   -6.8680  -29.8980 C.3   156  ASP156      0.1436
    168  CG       -53.0960   -7.2780  -30.3390 C.2   156  ASP156      0.3671
    169  OD1      -52.6670   -6.8620  -31.4390 O.co2 156  ASP156     -0.2456
    170  OD2      -52.4250   -8.0010  -29.5760 O.co2 156  ASP156     -0.2456
    171  N        -53.2740   -8.9590  -36.1780 N.3   159  ARG159     -0.1245
    172  CA       -53.2370  -10.3530  -36.6490 C.3   159  ARG159      0.1563
    173  C        -54.5490  -10.7150  -37.3900 C.2   159  ARG159      0.2260
    174  O        -54.6590  -11.8160  -37.9240 O.2   159  ARG159     -0.2867
    175  CB       -52.9960  -11.3410  -35.4770 C.3   159  ARG159      0.0307
    176  CG       -51.5730  -11.3670  -34.9000 C.3   159  ARG159      0.0489
    177  CD       -51.4270  -10.4720  -33.6710 C.3   159  ARG159      0.2205
    178  NE       -50.2110  -10.7560  -32.9010 N.pl3 159  ARG159     -0.0865
    179  CZ       -49.8220  -10.0730  -31.8270 C.cat 159  ARG159      0.5346
    180  NH1      -50.5400   -9.0460  -31.3870 N.pl3 159  ARG159      0.1354
    181  NH2      -48.7100  -10.4100  -31.1860 N.pl3 159  ARG159      0.1354
@<TRIPOS>BOND
     1    45    46    1
     2    46    47    1
     3    46    49    1
     4   174   173    2
     5    47    48    2
     6    54    55    1
     7   173   172    1
     8    49    50    1
     9   172   171    1
    10   172   175    1
    11    56    55    1
    12    56    57    2
    13    78    76    1
    14    55    58    1
    15   175   176    1
    16    50    51    1
    17    58    59    1
    18    75    76    2
    19    75    74    1
    20    76    77    1
    21   176   177    1
    22    51    52   ar
    23    51    53   ar
    24    74    73    1
    25    73    72    1
    26    59    60    1
    27   177   178    1
    28    60    61    1
    29   178   179    2
    30    72    69    1
    31    69    70    1
    32    69    68    1
    33    70    71    2
    34   165   166    2
    35   165   164    1
    36    65    64    2
    37   179   180    1
    38   179   181    1
    39    39    38    2
    40   169   168   ar
    41    44    43    1
    42    68    64   am
    43    43    42    1
    44    64    63    1
    45    42    41    1
    46   164   163    1
    47   164   167    1
    48    16    15    2
    49    38    37    1
    50   168   167    1
    51   168   170   ar
    52    84    85    1
    53    84    83    1
    54   163   158   am
    55    41    40    1
    56    40    37    1
    57    79    80    1
    58    15    14    1
    59    85    86    1
    60    14    17    1
    61    14    13    1
    62    62    63    1
    63    63    66    1
    64   158   159    2
    65   158   157    1
    66    37    36    1
    67    80    83    1
    68    80    81    1
    69    17    18    1
    70   161   160    1
    71    66    67    1
    72   157   156    1
    73   157   160    1
    74    81    87   am
    75    81    82    2
    76   147   145   am
    77   160   162    1
    78    34    33    2
    79    87    88    1
    80    18    19   ar
    81    18    20   ar
    82   145   144    1
    83   145   146    2
    84    19    21   ar
    85   138   137    1
    86    33    32    1
    87   144   141    1
    88    91    88    1
    89    91    92    1
    90    88    89    1
    91   139   137    1
    92    20    22   ar
    93   143   142    2
    94   137   136    2
    95    30    28    1
    96    94    93    2
    97    31    32    1
    98    92    93    1
    99    21    23   ar
   100    90    89    2
   101    32    35    1
   102    89    96   am
   103   141   142    1
   104   141   140    1
   105    93    95   am
   106    24    25    1
   107    22    23   ar
   108    25    28    1
   109    25    26    1
   110    28    29    1
   111   136   135    1
   112   154   153    1
   113    96    97    1
   114   140   131   am
   115    26    27    2
   116   135   134    1
   117   134   133    1
   118   153   155    1
   119   153   152    1
   120   110   109    1
   121   110   111    1
   122   109   108    1
   123   131   132    2
   124   131   130    1
   125    12    11    2
   126    97    98    1
   127    97   100    1
   128   152   149    1
   129   148   149    1
   130   133   130    1
   131    98    99    2
   132    98   104   am
   133    11    10    1
   134   100   101    1
   135   149   150    1
   136   130   129    1
   137   104   105    1
   138   108   105    1
   139   151   150    2
   140   105   106    1
   141    10     9    1
   142   102   101    1
   143     7     6    1
   144   101   103    1
   145     9     3   am
   146   127   124    1
   147   127   128    1
   148     5     6    1
   149     5     2    1
   150     1     2    1
   151     6     8    1
   152   106   107    2
   153   106   112   am
   154     3     2    1
   155     3     4    2
   156   124   123    1
   157   124   125    1
   158   122   121    2
   159   123   121   am
   160   118   112    1
   161   118   117    1
   162   112   113    1
   163   121   120    1
   164   125   126    2
   165   120   119    1
   166   117   116    1
   167   113   116    1
   168   113   114    1
   169   114   115    2
