@<TRIPOS>MOLECULE
tmp/5capA00.pdb
 178 166 0 0 0
SMALL
GASTEIGER

@<TRIPOS>ATOM
      1  N        -48.0930    4.0580  -20.1180 N.3    22  LEU22      -0.1231
      2  CA       -49.0700    3.0930  -19.6000 C.3    22  LEU22       0.1693
      3  C        -48.5410    1.6620  -19.7190 C.2    22  LEU22       0.2592
      4  O        -48.7890    0.8310  -18.8410 O.2    22  LEU22      -0.2718
      5  CB       -50.4150    3.1970  -20.3370 C.3    22  LEU22       0.0284
      6  CG       -51.2620    4.4290  -20.0800 C.3    22  LEU22       0.0019
      7  CD1      -52.3520    4.5550  -21.1390 C.3    22  LEU22       0.0001
      8  CD2      -51.8530    4.4140  -18.6840 C.3    22  LEU22       0.0001
      9  N        -47.8530    1.3860  -20.8180 N.am   23  GLY23      -0.1957
     10  CA       -47.2790    0.0790  -21.0930 C.3    23  GLY23       0.1869
     11  C        -46.1430    0.1600  -22.0800 C.2    23  GLY23       0.2309
     12  O        -46.0970    1.0720  -22.9160 O.2    23  GLY23      -0.2863
     13  N        -44.7670   -4.1030  -28.9110 N.3    27  PHE27      -0.1241
     14  CA       -45.6530   -3.1310  -29.5750 C.3    27  PHE27       0.1605
     15  C        -45.0740   -1.7080  -29.5770 C.2    27  PHE27       0.2264
     16  O        -45.4660   -0.8900  -30.4090 O.2    27  PHE27      -0.2867
     17  CB       -47.0510   -3.1270  -28.9210 C.3    27  PHE27       0.0534
     18  CG       -47.0730   -2.9220  -27.4200 C.ar   27  PHE27      -0.0203
     19  CD1      -47.1150   -1.6430  -26.8750 C.ar   27  PHE27      -0.0042
     20  CD2      -47.1060   -4.0080  -26.5540 C.ar   27  PHE27      -0.0042
     21  CE1      -47.1490   -1.4550  -25.4910 C.ar   27  PHE27      -0.0003
     22  CE2      -47.1490   -3.8200  -25.1680 C.ar   27  PHE27      -0.0003
     23  CZ       -47.1710   -2.5440  -24.6460 C.ar   27  PHE27      -0.0000
     24  N        -47.0710    2.7640  -25.1070 N.3    30  VAL30      -0.1245
     25  CA       -48.4050    3.3320  -25.0610 C.3    30  VAL30       0.1561
     26  C        -48.4080    4.3950  -23.9880 C.2    30  VAL30       0.2260
     27  O        -48.0040    4.1340  -22.8620 O.2    30  VAL30      -0.2867
     28  CB       -49.5490    2.2950  -24.9210 C.3    30  VAL30       0.0252
     29  CG1      -50.9100    2.9820  -24.8410 C.3    30  VAL30       0.0019
     30  CG2      -49.5260    1.3240  -26.0940 C.3    30  VAL30       0.0019
     31  N        -55.1890    7.0810  -25.5050 N.3    47  ALA47      -0.1245
     32  CA       -54.0320    6.1950  -25.4020 C.3    47  ALA47       0.1562
     33  C        -53.2820    6.3640  -26.7460 C.2    47  ALA47       0.2260
     34  O        -53.8970    6.3000  -27.8120 O.2    47  ALA47      -0.2867
     35  CB       -54.4720    4.7560  -25.2040 C.3    47  ALA47       0.0290
     36  N        -50.1290    5.1990  -29.1720 N.3    49  LYS49      -0.1245
     37  CA       -49.1810    4.1330  -29.4940 C.3    49  LYS49       0.1561
     38  C        -48.0600    4.6400  -30.3950 C.2    49  LYS49       0.2260
     39  O        -48.3300    5.1560  -31.4720 O.2    49  LYS49      -0.2867
     40  CB       -49.9010    2.9340  -30.1540 C.3    49  LYS49       0.0271
     41  CG       -48.9690    1.7450  -30.4160 C.3    49  LYS49       0.0035
     42  CD       -49.5650    0.6780  -31.3230 C.3    49  LYS49       0.0206
     43  CE       -48.5950   -0.4550  -31.4590 C.3    49  LYS49       0.1093
     44  NZ       -49.2660   -1.7320  -31.8070 N.3    49  LYS49      -0.1314
     45  N        -52.4010   -2.0110  -39.0040 N.3    66  GLU66      -0.1245
     46  CA       -53.1590   -2.0600  -37.7550 C.3    66  GLU66       0.1567
     47  C        -54.1780   -0.9290  -37.7370 C.2    66  GLU66       0.2260
     48  O        -55.3330   -1.1810  -37.4090 O.2    66  GLU66      -0.2867
     49  CB       -52.2270   -1.9800  -36.5430 C.3    66  GLU66       0.0388
     50  CG       -52.9410   -2.1550  -35.2130 C.3    66  GLU66       0.1160
     51  CD       -52.0400   -2.2270  -34.0000 C.2    66  GLU66       0.3649
     52  OE1      -50.9230   -1.6620  -34.0460 O.co2  66  GLU66      -0.2457
     53  OE2      -52.4630   -2.8420  -32.9950 O.co2  66  GLU66      -0.2457
     54  N        -58.2430   -1.2380  -37.1820 N.3    70  MET70      -0.1245
     55  CA       -58.8570   -0.5030  -36.0700 C.3    70  MET70       0.1570
     56  C        -59.8110    0.6030  -36.5140 C.2    70  MET70       0.2261
     57  O        -60.7400    0.9290  -35.7790 O.2    70  MET70      -0.2867
     58  CB       -57.8010    0.0850  -35.1390 C.3    70  MET70       0.0387
     59  CG       -57.1920   -0.8990  -34.2350 C.3    70  MET70       0.0595
     60  SD       -56.1340   -0.0870  -33.0170 S.3    70  MET70      -0.1393
     61  CE       -57.3780    0.4220  -31.7820 C.3    70  MET70       0.0692
     62  N        -62.5260   -2.1010  -29.6620 N.3    79  CYS79      -0.1221
     63  CA       -61.7300   -0.8720  -29.6620 C.3    79  CYS79       0.1808
     64  C        -61.5590   -0.3410  -31.0760 C.2    79  CYS79       0.2601
     65  O        -61.0490   -1.0340  -31.9650 O.2    79  CYS79      -0.2717
     66  CB       -60.3870   -1.0820  -28.9710 C.3    79  CYS79       0.0970
     67  SG       -60.5150   -1.3530  -27.1840 S.3    79  CYS79      -0.0800
     68  N        -61.9800    0.8940  -31.2810 N.am   80  ARG80      -0.1979
     69  CA       -61.8870    1.5920  -32.5670 C.3    80  ARG80       0.1597
     70  C        -60.7030    2.5910  -32.5250 C.2    80  ARG80       0.2287
     71  O        -60.3640    3.1280  -31.4600 O.2    80  ARG80      -0.2864
     72  CB       -63.2020    2.3660  -32.7690 C.3    80  ARG80       0.0334
     73  CG       -63.4380    2.9290  -34.1340 C.3    80  ARG80       0.0492
     74  CD       -64.7240    3.7210  -34.1460 C.3    80  ARG80       0.2205
     75  NE       -64.7930    4.5620  -35.3390 N.pl3  80  ARG80      -0.0865
     76  CZ       -64.3630    5.8180  -35.3910 C.cat  80  ARG80       0.5346
     77  NH1      -63.8550    6.4000  -34.3100 N.pl3  80  ARG80       0.1354
     78  NH2      -64.4560    6.5100  -36.5170 N.pl3  80  ARG80       0.1354
     79  N        -55.9670    6.2150  -29.7910 N.3    94  MET94      -0.1230
     80  CA       -56.9960    5.2790  -29.3890 C.3    94  MET94       0.1702
     81  C        -57.6950    5.7930  -28.1440 C.2    94  MET94       0.2592
     82  O        -57.2580    6.7720  -27.5460 O.2    94  MET94      -0.2718
     83  CB       -56.3450    3.9140  -29.1150 C.3    94  MET94       0.0401
     84  CG       -55.3940    3.4420  -30.2140 C.3    94  MET94       0.0596
     85  SD       -54.3910    2.0200  -29.7190 S.3    94  MET94      -0.1393
     86  CE       -53.3590    2.7860  -28.4430 C.3    94  MET94       0.0692
     87  N        -58.7770    5.1380  -27.7540 N.am   95  GLN95      -0.1966
     88  CA       -59.5180    5.5000  -26.5560 C.3    95  GLN95       0.1733
     89  C        -58.7440    5.0490  -25.3180 C.2    95  GLN95       0.2616
     90  O        -58.2020    3.9400  -25.3020 O.2    95  GLN95      -0.2715
     91  CB       -60.9130    4.8430  -26.5730 C.3    95  GLN95       0.0408
     92  CG       -61.8180    5.2790  -25.4010 C.3    95  GLN95       0.0908
     93  CD       -63.1210    4.5140  -25.2930 C.2    95  GLN95       0.2608
     94  OE1      -63.3170    3.4420  -25.8720 O.2    95  GLN95      -0.2717
     95  NE2      -64.0300    5.0310  -24.5010 N.am   95  GLN95      -0.0878
     96  N        -58.7070    5.8960  -24.2800 N.am   96  LEU96      -0.1963
     97  CA       -58.0980    5.5310  -23.0060 C.3    96  LEU96       0.1728
     98  C        -59.0450    4.5380  -22.3320 C.2    96  LEU96       0.2616
     99  O        -60.2480    4.7900  -22.2440 O.2    96  LEU96      -0.2715
    100  CB       -57.8870    6.7630  -22.1030 C.3    96  LEU96       0.0311
    101  CG       -57.2150    6.5110  -20.7290 C.3    96  LEU96       0.0022
    102  CD1      -55.7770    6.0520  -20.8780 C.3    96  LEU96       0.0001
    103  CD2      -57.2670    7.7460  -19.8510 C.3    96  LEU96       0.0001
    104  N        -58.5050    3.3980  -21.9040 N.am   97  MET97      -0.1964
    105  CA       -59.2360    2.3380  -21.2080 C.3    97  MET97       0.1722
    106  C        -58.6190    2.4050  -19.8220 C.2    97  MET97       0.2458
    107  O        -57.5960    1.7660  -19.5780 O.2    97  MET97      -0.2730
    108  CB       -58.9980    1.0090  -21.9380 C.3    97  MET97       0.0427
    109  CG       -59.4530    1.0540  -23.4090 C.3    97  MET97       0.0599
    110  SD       -61.2510    1.2730  -23.6040 S.3    97  MET97      -0.1393
    111  CE       -61.8000   -0.3720  -23.3220 C.3    97  MET97       0.0692
    112  N        -59.1480    3.2890  -18.9380 N.am   98  PRO98      -0.2727
    113  CA       -58.4360    3.5920  -17.6760 C.3    98  PRO98       0.1402
    114  C        -58.0520    2.4280  -16.7680 C.2    98  PRO98       0.2269
    115  O        -57.0430    2.5450  -16.0700 O.2    98  PRO98      -0.2865
    116  CB       -59.3850    4.5480  -16.9430 C.3    98  PRO98       0.0296
    117  CG       -60.1880    5.1630  -17.9910 C.3    98  PRO98       0.0237
    118  CD       -60.3500    4.1380  -19.0830 C.3    98  PRO98       0.0939
    119  N        -56.9860   -0.6060  -17.5880 N.3   100  GLY100     -0.1210
    120  CA       -56.0130   -1.4930  -18.2240 C.3   100  GLY100      0.1956
    121  C        -56.6100   -2.7540  -18.8100 C.2   100  GLY100      0.2612
    122  O        -57.7950   -2.7740  -19.1670 O.2   100  GLY100     -0.2717
    123  N        -55.7860   -3.8110  -18.9420 N.am  101  CYS101     -0.1970
    124  CA       -56.2590   -5.0690  -19.4910 C.3   101  CYS101      0.1712
    125  C        -56.9550   -5.8840  -18.4430 C.2   101  CYS101      0.2296
    126  O        -56.6140   -5.8040  -17.2600 O.2   101  CYS101     -0.2864
    127  CB       -55.1640   -5.8550  -20.2070 C.3   101  CYS101      0.0983
    128  SG       -53.9930   -6.6890  -19.1110 S.3   101  CYS101     -0.0798
    129  N        -54.7800   -8.3550  -16.0590 N.3   104  ASP104     -0.1239
    130  CA       -54.1860   -7.7290  -14.8770 C.3   104  ASP104      0.1674
    131  C        -55.2650   -7.3080  -13.9160 C.2   104  ASP104      0.2266
    132  O        -55.0650   -7.4070  -12.7120 O.2   104  ASP104     -0.2867
    133  CB       -53.3080   -6.5220  -15.2560 C.3   104  ASP104      0.1410
    134  CG       -52.0140   -6.8650  -15.9660 C.2   104  ASP104      0.3668
    135  OD1      -51.3550   -5.9330  -16.4740 O.co2 104  ASP104     -0.2456
    136  OD2      -51.6440   -8.0660  -15.9950 O.co2 104  ASP104     -0.2456
    137  N        -55.5450  -10.7030  -21.8660 N.3   145  ARG145     -0.1231
    138  CA       -54.5830   -9.5910  -21.9990 C.3   145  ARG145      0.1694
    139  C        -55.0190   -8.6160  -23.1200 C.2   145  ARG145      0.2592
    140  O        -54.6110   -7.4670  -23.1060 O.2   145  ARG145     -0.2718
    141  CB       -53.1450  -10.1220  -22.2670 C.3   145  ARG145      0.0321
    142  CG       -52.8520  -10.3920  -23.7500 C.3   145  ARG145      0.0489
    143  CD       -51.5720  -11.1450  -24.0190 C.3   145  ARG145      0.2205
    144  NE       -51.8750  -12.3680  -24.7610 N.pl3 145  ARG145     -0.0865
    145  CZ       -51.7380  -12.5110  -26.0750 C.cat 145  ARG145      0.5346
    146  NH1      -51.2450  -11.5170  -26.8140 N.pl3 145  ARG145      0.1354
    147  NH2      -52.0650  -13.6580  -26.6600 N.pl3 145  ARG145      0.1354
    148  N        -55.8590   -9.0780  -24.0680 N.am  146  ASN146     -0.1974
    149  CA       -56.3410   -8.2870  -25.2060 C.3   146  ASN146      0.1688
    150  C        -57.7720   -7.7960  -25.0500 C.2   146  ASN146      0.2292
    151  O        -58.3850   -7.3390  -26.0220 O.2   146  ASN146     -0.2864
    152  CB       -56.1550   -9.0580  -26.5050 C.3   146  ASN146      0.1181
    153  CG       -54.7410   -9.0000  -26.9700 C.2   146  ASN146      0.2629
    154  OD1      -53.9890   -8.0960  -26.5970 O.2   146  ASN146     -0.2716
    155  ND2      -54.3650   -9.9180  -27.8420 N.am  146  ASN146     -0.0877
    156  N        -59.7250   -4.9920  -22.9160 N.3   148  LEU148     -0.1245
    157  CA       -59.4470   -3.7980  -22.1070 C.3   148  LEU148      0.1561
    158  C        -60.6430   -3.3200  -21.3380 C.2   148  LEU148      0.2260
    159  O        -61.7810   -3.5660  -21.7400 O.2   148  LEU148     -0.2867
    160  CB       -58.8260   -2.6640  -22.9170 C.3   148  LEU148      0.0270
    161  CG       -57.6210   -3.0090  -23.7860 C.3   148  LEU148      0.0019
    162  CD1      -57.0510   -1.7630  -24.3850 C.3   148  LEU148      0.0001
    163  CD2      -56.5260   -3.7880  -23.0190 C.3   148  LEU148      0.0001
    164  N        -59.4720   -5.6550  -28.1620 N.3   158  THR158     -0.1203
    165  CA       -58.4670   -4.9540  -28.9570 C.3   158  THR158      0.1994
    166  C        -57.4420   -5.9440  -29.5470 C.2   158  THR158      0.2617
    167  O        -57.6350   -7.1580  -29.4260 O.2   158  THR158     -0.2717
    168  CB       -57.8230   -3.8240  -28.1590 C.3   158  THR158      0.1784
    169  OG1      -57.0900   -3.0180  -29.0800 O.3   158  THR158     -0.2211
    170  CG2      -56.8870   -4.3440  -27.0650 C.3   158  THR158      0.0376
    171  N        -56.3410   -5.3980  -30.1540 N.am  159  ASP159     -0.1973
    172  CA       -55.2040   -6.0560  -30.7850 C.3   159  ASP159      0.1709
    173  C        -55.5950   -6.7020  -32.1240 C.2   159  ASP159      0.2293
    174  O        -55.9450   -7.8750  -32.1830 O.2   159  ASP159     -0.2864
    175  CB       -54.4760   -7.0250  -29.8240 C.3   159  ASP159      0.1436
    176  CG       -53.0040   -7.2680  -30.1180 C.2   159  ASP159      0.3671
    177  OD1      -52.4230   -6.5090  -30.9230 O.co2 159  ASP159     -0.2456
    178  OD2      -52.4230   -8.1900  -29.5090 O.co2 159  ASP159     -0.2456
@<TRIPOS>BOND
     1    45    46    1
     2    46    47    1
     3    46    49    1
     4    47    48    2
     5    54    55    1
     6    49    50    1
     7    78    76    1
     8    56    55    1
     9    56    57    2
    10    55    58    1
    11    76    75    2
    12    76    77    1
    13    75    74    1
    14    50    51    1
    15    58    59    1
    16    59    60    1
    17    74    73    1
    18    73    72    1
    19    52    51   ar
    20    51    53   ar
    21    60    61    1
    22    72    69    1
    23    69    70    1
    24    69    68    1
    25    70    71    2
    26   174   173    2
    27   173   172    1
    28    65    64    2
    29    44    43    1
    30    39    38    2
    31    43    42    1
    32    42    41    1
    33    68    64   am
    34    64    63    1
    35   177   176   ar
    36   172   171    1
    37   172   175    1
    38    41    40    1
    39    16    15    2
    40    38    37    1
    41    84    85    1
    42    84    83    1
    43    40    37    1
    44   171   166   am
    45   176   175    1
    46   176   178   ar
    47    79    80    1
    48    85    86    1
    49    63    62    1
    50    63    66    1
    51    15    14    1
    52    14    17    1
    53    14    13    1
    54   166   167    2
    55   166   165    1
    56    37    36    1
    57    80    83    1
    58    80    81    1
    59   169   168    1
    60    66    67    1
    61   165   164    1
    62   165   168    1
    63    17    18    1
    64   168   170    1
    65    81    87   am
    66    81    82    2
    67   155   153   am
    68    34    33    2
    69    87    88    1
    70    18    19   ar
    71    18    20   ar
    72   153   154    2
    73   153   152    1
    74    19    21   ar
    75   146   145    1
    76    33    32    1
    77   147   145    1
    78    91    88    1
    79    91    92    1
    80    88    89    1
    81    20    22   ar
    82   152   149    1
    83    30    28    1
    84   145   144    2
    85   151   150    2
    86    94    93    2
    87    31    32    1
    88    21    23   ar
    89    32    35    1
    90    92    93    1
    91    89    90    2
    92    89    96   am
    93    93    95   am
    94   149   150    1
    95   149   148    1
    96    22    23   ar
    97    24    25    1
    98    25    28    1
    99    25    26    1
   100    28    29    1
   101   144   143    1
   102   162   161    1
   103    96    97    1
   104   148   139   am
   105   143   142    1
   106    26    27    2
   107   161   163    1
   108   161   160    1
   109   142   141    1
   110   110   109    1
   111   110   111    1
   112   109   108    1
   113   139   140    2
   114   139   138    1
   115    97    98    1
   116    97   100    1
   117   160   157    1
   118   156   157    1
   119    12    11    2
   120    98    99    2
   121    98   104   am
   122   141   138    1
   123   157   158    1
   124   100   101    1
   125    11    10    1
   126   138   137    1
   127   108   105    1
   128   104   105    1
   129   159   158    2
   130   105   106    1
   131     7     6    1
   132    10     9    1
   133   102   101    1
   134     9     3   am
   135   101   103    1
   136     5     6    1
   137     5     2    1
   138   127   124    1
   139   127   128    1
   140     1     2    1
   141     6     8    1
   142   106   107    2
   143   106   112   am
   144     3     2    1
   145     3     4    2
   146   124   123    1
   147   124   125    1
   148   122   121    2
   149   118   112    1
   150   118   117    1
   151   123   121   am
   152   112   113    1
   153   121   120    1
   154   125   126    2
   155   120   119    1
   156   117   116    1
   157   113   116    1
   158   113   114    1
   159   114   115    2
   160   135   134   ar
   161   129   130    1
   162   136   134   ar
   163   134   133    1
   164   133   130    1
   165   130   131    1
   166   131   132    2
