@<TRIPOS>MOLECULE
tmp/5caqA00.pdb
 151 140 0 0 0
SMALL
GASTEIGER

@<TRIPOS>ATOM
      1  N        -46.3450    4.1630  -19.1710 N.3    22  LEU22      -0.1231
      2  CA       -47.2420    3.1180  -18.6810 C.3    22  LEU22       0.1693
      3  C        -46.6190    1.7320  -18.8520 C.2    22  LEU22       0.2592
      4  O        -46.7660    0.8810  -17.9750 O.2    22  LEU22      -0.2718
      5  CB       -48.5960    3.1870  -19.4060 C.3    22  LEU22       0.0284
      6  CG       -49.4790    4.3770  -19.0660 C.3    22  LEU22       0.0019
      7  CD1      -50.6150    4.4940  -20.0420 C.3    22  LEU22       0.0001
      8  CD2      -49.9790    4.3000  -17.6510 C.3    22  LEU22       0.0001
      9  N        -45.9450    1.5310  -19.9840 N.am   23  GLY23      -0.1957
     10  CA       -45.2710    0.2920  -20.3450 C.3    23  GLY23       0.1869
     11  C        -44.2500    0.4820  -21.4470 C.2    23  GLY23       0.2309
     12  O        -44.3580    1.4150  -22.2470 O.2    23  GLY23      -0.2863
     13  N        -41.5480   -3.1350  -29.0870 N.3    27  PHE27      -0.1241
     14  CA       -42.3460   -2.3210  -30.0140 C.3    27  PHE27       0.1605
     15  C        -42.0010   -0.8220  -29.9000 C.2    27  PHE27       0.2264
     16  O        -41.9230   -0.1160  -30.9090 O.2    27  PHE27      -0.2867
     17  CB       -43.8590   -2.5520  -29.7630 C.3    27  PHE27       0.0534
     18  CG       -44.3280   -2.2470  -28.3560 C.ar   27  PHE27      -0.0203
     19  CD1      -44.8600   -1.0030  -28.0360 C.ar   27  PHE27      -0.0042
     20  CD2      -44.2260   -3.1990  -27.3480 C.ar   27  PHE27      -0.0042
     21  CE1      -45.2600   -0.7090  -26.7310 C.ar   27  PHE27      -0.0003
     22  CE2      -44.6360   -2.9070  -26.0440 C.ar   27  PHE27      -0.0003
     23  CZ       -45.1520   -1.6660  -25.7460 C.ar   27  PHE27      -0.0000
     24  N        -45.4490    2.9450  -24.3710 N.3    30  VAL30      -0.1245
     25  CA       -46.8280    3.4040  -24.1520 C.3    30  VAL30       0.1561
     26  C        -46.8130    4.4550  -23.0380 C.2    30  VAL30       0.2260
     27  O        -46.3100    4.1860  -21.9440 O.2    30  VAL30      -0.2867
     28  CB       -47.8350    2.2500  -23.8500 C.3    30  VAL30       0.0252
     29  CG1      -49.2620    2.7800  -23.6580 C.3    30  VAL30       0.0019
     30  CG2      -47.8090    1.1960  -24.9500 C.3    30  VAL30       0.0019
     31  N        -53.7950    7.0180  -24.0580 N.3    47  ALA47      -0.1245
     32  CA       -52.6510    6.1240  -24.0240 C.3    47  ALA47       0.1562
     33  C        -52.0090    6.3480  -25.3840 C.2    47  ALA47       0.2260
     34  O        -52.7040    6.2800  -26.4070 O.2    47  ALA47      -0.2867
     35  CB       -53.0940    4.6850  -23.8830 C.3    47  ALA47       0.0290
     36  N        -49.1320    5.1020  -27.9180 N.3    49  LYS49      -0.1245
     37  CA       -48.1750    4.0610  -28.2760 C.3    49  LYS49       0.1561
     38  C        -47.1850    4.6640  -29.2730 C.2    49  LYS49       0.2260
     39  O        -47.5680    5.0050  -30.3940 O.2    49  LYS49      -0.2867
     40  CB       -48.8900    2.8360  -28.8700 C.3    49  LYS49       0.0271
     41  CG       -47.9930    1.6230  -29.1130 C.3    49  LYS49       0.0035
     42  CD       -48.7830    0.5240  -29.7990 C.3    49  LYS49       0.0206
     43  CE       -47.9230   -0.6420  -30.1710 C.3    49  LYS49       0.1093
     44  NZ       -48.7510   -1.7640  -30.6720 N.3    49  LYS49      -0.1314
     45  N        -52.0480   -2.2610  -37.7010 N.3    64  GLU64      -0.1245
     46  CA       -52.7420   -2.2650  -36.4200 C.3    64  GLU64       0.1567
     47  C        -53.6330   -1.0260  -36.3480 C.2    64  GLU64       0.2260
     48  O        -54.7650   -1.1530  -35.9070 O.2    64  GLU64      -0.2867
     49  CB       -51.7130   -2.2730  -35.2830 C.3    64  GLU64       0.0388
     50  CG       -52.2710   -2.4730  -33.8830 C.3    64  GLU64       0.1160
     51  CD       -51.2510   -2.2240  -32.7910 C.2    64  GLU64       0.3649
     52  OE1      -50.1480   -1.7190  -33.1000 O.co2  64  GLU64      -0.2457
     53  OE2      -51.5670   -2.5050  -31.6140 O.co2  64  GLU64      -0.2457
     54  N        -57.7110   -1.1360  -35.8260 N.3    68  MET68      -0.1245
     55  CA       -58.1510   -0.3910  -34.6450 C.3    68  MET68       0.1570
     56  C        -59.0320    0.8310  -34.9730 C.2    68  MET68       0.2261
     57  O        -59.8770    1.2030  -34.1640 O.2    68  MET68      -0.2867
     58  CB       -56.9390    0.0030  -33.7970 C.3    68  MET68       0.0387
     59  CG       -57.1460   -0.1960  -32.3340 C.3    68  MET68       0.0595
     60  SD       -55.7110    0.3630  -31.4000 S.3    68  MET68      -0.1393
     61  CE       -56.4140    0.4420  -29.8000 C.3    68  MET68       0.0692
     62  N        -61.4620   -1.8380  -28.0250 N.3    77  CYS77      -0.1235
     63  CA       -60.6450   -0.6170  -28.0370 C.3    77  CYS77       0.1677
     64  C        -60.4710   -0.0860  -29.4550 C.2    77  CYS77       0.2270
     65  O        -59.9380   -0.7860  -30.3170 O.2    77  CYS77      -0.2867
     66  CB       -59.2940   -0.8640  -27.3750 C.3    77  CYS77       0.0956
     67  SG       -59.3690   -1.0210  -25.5740 S.3    77  CYS77      -0.0801
     68  N        -54.7870    6.2580  -28.2820 N.3    92  MET92      -0.1230
     69  CA       -55.8300    5.3460  -27.8320 C.3    92  MET92       0.1702
     70  C        -56.4660    5.8370  -26.5410 C.2    92  MET92       0.2592
     71  O        -55.9580    6.7710  -25.9150 O.2    92  MET92      -0.2718
     72  CB       -55.2140    3.9450  -27.6320 C.3    92  MET92       0.0401
     73  CG       -54.3310    3.4970  -28.8050 C.3    92  MET92       0.0596
     74  SD       -53.3080    2.0590  -28.4960 S.3    92  MET92      -0.1393
     75  CE       -52.2180    2.6810  -27.2210 C.3    92  MET92       0.0692
     76  N        -57.6020    5.2270  -26.1540 N.am   93  GLN93      -0.1966
     77  CA       -58.2910    5.5520  -24.9020 C.3    93  GLN93       0.1733
     78  C        -57.4340    5.0510  -23.7200 C.2    93  GLN93       0.2616
     79  O        -56.8900    3.9440  -23.7850 O.2    93  GLN93      -0.2715
     80  CB       -59.6650    4.8560  -24.8690 C.3    93  GLN93       0.0408
     81  CG       -60.4910    5.1490  -23.6080 C.3    93  GLN93       0.0908
     82  CD       -61.7560    4.3420  -23.5190 C.2    93  GLN93       0.2608
     83  OE1      -61.9150    3.3040  -24.1630 O.2    93  GLN93      -0.2717
     84  NE2      -62.6940    4.8100  -22.7160 N.am   93  GLN93      -0.0878
     85  N        -57.3320    5.8540  -22.6380 N.am   94  LEU94      -0.1963
     86  CA       -56.6370    5.4280  -21.4170 C.3    94  LEU94       0.1728
     87  C        -57.5480    4.4390  -20.7120 C.2    94  LEU94       0.2616
     88  O        -58.7440    4.7070  -20.5180 O.2    94  LEU94      -0.2715
     89  CB       -56.3370    6.6140  -20.4920 C.3    94  LEU94       0.0311
     90  CG       -55.4980    6.3200  -19.2350 C.3    94  LEU94       0.0022
     91  CD1      -54.0280    6.1670  -19.5700 C.3    94  LEU94       0.0001
     92  CD2      -55.6880    7.4070  -18.1980 C.3    94  LEU94       0.0001
     93  N        -56.9980    3.2710  -20.3920 N.am   95  MET95      -0.1964
     94  CA       -57.6920    2.1830  -19.6840 C.3    95  MET95       0.1722
     95  C        -56.9730    2.2020  -18.3570 C.2    95  MET95       0.2458
     96  O        -55.9000    1.6250  -18.2710 O.2    95  MET95      -0.2730
     97  CB       -57.5060    0.8810  -20.4740 C.3    95  MET95       0.0427
     98  CG       -58.1010    0.9640  -21.8790 C.3    95  MET95       0.0599
     99  SD       -59.8900    1.2660  -21.9440 S.3    95  MET95      -0.1393
    100  CE       -60.4740   -0.3870  -21.7990 C.3    95  MET95       0.0692
    101  N        -57.4270    3.0450  -17.3880 N.am   96  PRO96      -0.2727
    102  CA       -56.5820    3.3440  -16.2060 C.3    96  PRO96       0.1402
    103  C        -56.1400    2.1920  -15.3130 C.2    96  PRO96       0.2269
    104  O        -55.1460    2.3420  -14.6120 O.2    96  PRO96      -0.2865
    105  CB       -57.4130    4.3430  -15.3950 C.3    96  PRO96       0.0296
    106  CG       -58.4740    4.8160  -16.2760 C.3    96  PRO96       0.0237
    107  CD       -58.6660    3.8530  -17.3880 C.3    96  PRO96       0.0939
    108  N        -55.2290   -0.8490  -16.3290 N.3    98  GLY98      -0.1210
    109  CA       -54.3510   -1.7130  -17.1120 C.3    98  GLY98       0.1956
    110  C        -54.9860   -3.0040  -17.5680 C.2    98  GLY98       0.2612
    111  O        -56.2120   -3.0870  -17.6430 O.2    98  GLY98      -0.2717
    112  N        -54.1530   -4.0260  -17.8700 N.am   99  CYS99      -0.1970
    113  CA       -54.6130   -5.3300  -18.3600 C.3    99  CYS99       0.1712
    114  C        -55.3270   -6.1320  -17.2940 C.2    99  CYS99       0.2296
    115  O        -54.9790   -6.0520  -16.1100 O.2    99  CYS99      -0.2864
    116  CB       -53.4990   -6.1330  -19.0310 C.3    99  CYS99       0.0983
    117  SG       -52.2890   -6.8550  -17.8920 S.3    99  CYS99      -0.0798
    118  N        -54.1150  -10.7570  -21.0270 N.3   143  ARG143     -0.1245
    119  CA       -53.1500   -9.6580  -21.1650 C.3   143  ARG143      0.1563
    120  C        -53.6250   -8.6020  -22.1840 C.2   143  ARG143      0.2260
    121  O        -53.1460   -7.4630  -22.1560 O.2   143  ARG143     -0.2867
    122  CB       -51.7580  -10.2000  -21.5760 C.3   143  ARG143      0.0307
    123  CG       -51.6760  -10.7460  -23.0030 C.3   143  ARG143      0.0489
    124  CD       -50.3230  -11.3480  -23.3660 C.3   143  ARG143      0.2205
    125  NE       -50.5310  -12.6660  -23.9770 N.pl3 143  ARG143     -0.0865
    126  CZ       -50.6280  -12.8820  -25.2840 C.cat 143  ARG143      0.5346
    127  NH1      -50.4620  -11.8840  -26.1430 N.pl3 143  ARG143      0.1354
    128  NH2      -50.8690  -14.1010  -25.7440 N.pl3 143  ARG143      0.1354
    129  N        -58.2980   -4.9790  -21.5830 N.3   146  LEU146     -0.1245
    130  CA       -57.9650   -3.8690  -20.6860 C.3   146  LEU146      0.1561
    131  C        -59.1280   -3.4350  -19.8220 C.2   146  LEU146      0.2260
    132  O        -60.2860   -3.6700  -20.1680 O.2   146  LEU146     -0.2867
    133  CB       -57.3340   -2.6760  -21.4190 C.3   146  LEU146      0.0270
    134  CG       -56.0240   -2.9330  -22.1800 C.3   146  LEU146      0.0019
    135  CD1      -55.4400   -1.6720  -22.6210 C.3   146  LEU146      0.0001
    136  CD2      -54.9880   -3.6370  -21.3440 C.3   146  LEU146      0.0001
    137  N        -58.4010   -5.5360  -26.7570 N.3   156  THR156     -0.1203
    138  CA       -57.4700   -4.7190  -27.5220 C.3   156  THR156      0.1994
    139  C        -56.3780   -5.5920  -28.1640 C.2   156  THR156      0.2617
    140  O        -56.4810   -6.8280  -28.1390 O.2   156  THR156     -0.2717
    141  CB       -56.9330   -3.5370  -26.6860 C.3   156  THR156      0.1784
    142  OG1      -56.3780   -2.5740  -27.5940 O.3   156  THR156     -0.2211
    143  CG2      -55.9170   -3.9650  -25.6120 C.3   156  THR156      0.0376
    144  N        -55.3380   -4.9310  -28.7260 N.am  157  ASP157     -0.1973
    145  CA       -54.1630   -5.5190  -29.3580 C.3   157  ASP157      0.1709
    146  C        -54.5250   -6.2530  -30.6560 C.2   157  ASP157      0.2293
    147  O        -54.6140   -7.4890  -30.7210 O.2   157  ASP157     -0.2864
    148  CB       -53.3330   -6.3790  -28.3840 C.3   157  ASP157      0.1436
    149  CG       -51.8470   -6.3470  -28.6540 C.2   157  ASP157      0.3671
    150  OD1      -51.4520   -6.4600  -29.8400 O.co2 157  ASP157     -0.2456
    151  OD2      -51.0730   -6.2190  -27.6810 O.co2 157  ASP157     -0.2456
@<TRIPOS>BOND
     1    45    46    1
     2    46    47    1
     3    46    49    1
     4    47    48    2
     5    54    55    1
     6    49    50    1
     7    56    55    1
     8    56    57    2
     9    55    58    1
    10    50    51    1
    11    58    59    1
    12    52    51   ar
    13    51    53   ar
    14    59    60    1
    15    60    61    1
    16    16    15    2
    17   147   146    2
    18    44    43    1
    19   146   145    1
    20    39    38    2
    21    65    64    2
    22    43    42    1
    23    14    15    1
    24    14    17    1
    25    14    13    1
    26   150   149   ar
    27    42    41    1
    28    17    18    1
    29    64    63    1
    30   145   144    1
    31   145   148    1
    32    38    37    1
    33    41    40    1
    34    40    37    1
    35    73    74    1
    36    73    72    1
    37   144   139   am
    38   149   148    1
    39   149   151   ar
    40    74    75    1
    41    18    19   ar
    42    18    20   ar
    43    68    69    1
    44    37    36    1
    45   139   140    2
    46   139   138    1
    47    63    62    1
    48    63    66    1
    49    19    21   ar
    50    69    72    1
    51    69    70    1
    52   142   141    1
    53   138   137    1
    54   138   141    1
    55    66    67    1
    56    20    22   ar
    57    21    23   ar
    58   141   143    1
    59    70    76   am
    60    70    71    2
    61    34    33    2
    62    76    77    1
    63   127   126    1
    64    22    23   ar
    65   128   126    1
    66    33    32    1
    67   126   125    2
    68    30    28    1
    69    77    80    1
    70    77    78    1
    71    80    81    1
    72    24    25    1
    73    83    82    2
    74    25    28    1
    75    25    26    1
    76    31    32    1
    77    32    35    1
    78   125   124    1
    79    28    29    1
    80    79    78    2
    81    78    85   am
    82    81    82    1
    83    82    84   am
    84   124   123    1
    85    26    27    2
    86   123   122    1
    87    85    86    1
    88   135   134    1
    89    12    11    2
    90   120   121    2
    91   120   119    1
    92   134   133    1
    93   134   136    1
    94    99    98    1
    95    99   100    1
    96    98    97    1
    97   129   130    1
    98   122   119    1
    99    11    10    1
   100   133   130    1
   101    86    87    1
   102    86    89    1
   103   119   118    1
   104    87    88    2
   105    87    93   am
   106   130   131    1
   107    89    90    1
   108    97    94    1
   109    93    94    1
   110    10     9    1
   111   132   131    2
   112     7     6    1
   113     9     3   am
   114    94    95    1
   115    91    90    1
   116     5     6    1
   117     5     2    1
   118    90    92    1
   119     1     2    1
   120     6     8    1
   121   116   113    1
   122   116   117    1
   123     3     2    1
   124     3     4    2
   125   113   112    1
   126   113   114    1
   127    95    96    2
   128    95   101   am
   129   112   110   am
   130   111   110    2
   131   110   109    1
   132   107   101    1
   133   107   106    1
   134   101   102    1
   135   114   115    2
   136   109   108    1
   137   106   105    1
   138   102   105    1
   139   102   103    1
   140   103   104    2
