@<TRIPOS>MOLECULE
tmp/5cauA00.pdb
 165 153 0 0 0
SMALL
GASTEIGER

@<TRIPOS>ATOM
      1  N        -46.3830    3.8070  -19.2550 N.3    23  LEU23      -0.1231
      2  CA       -47.3170    2.7890  -18.7560 C.3    23  LEU23       0.1693
      3  C        -46.7010    1.3980  -18.9610 C.2    23  LEU23       0.2593
      4  O        -46.8360    0.5250  -18.1080 O.2    23  LEU23      -0.2718
      5  CB       -48.6730    2.8690  -19.4930 C.3    23  LEU23       0.0284
      6  CG       -49.5620    4.0830  -19.2260 C.3    23  LEU23       0.0019
      7  CD1      -50.6690    4.1840  -20.2780 C.3    23  LEU23       0.0001
      8  CD2      -50.1460    4.0490  -17.8200 C.3    23  LEU23       0.0001
      9  N        -46.0400    1.2190  -20.0960 N.am   24  GLY24      -0.1942
     10  CA       -45.3900   -0.0250  -20.4750 C.3    24  GLY24       0.2014
     11  C        -44.3580    0.1450  -21.5660 C.2    24  GLY24       0.2639
     12  O        -44.3470    1.1540  -22.2780 O.2    24  GLY24      -0.2714
     13  N        -43.4850   -0.8540  -21.7040 N.am   25  SER25      -0.1949
     14  CA       -42.4100   -0.8590  -22.6950 C.3    25  SER25       0.1924
     15  C        -42.0820   -2.2730  -23.1460 C.2    25  SER25       0.2314
     16  O        -42.1210   -3.2100  -22.3450 O.2    25  SER25      -0.2863
     17  CB       -41.1610   -0.1950  -22.1290 C.3    25  SER25       0.2116
     18  OG       -40.5650    0.6280  -23.1160 O.3    25  SER25      -0.2180
     19  N        -41.5900   -3.3250  -29.3590 N.3    28  PHE28      -0.1241
     20  CA       -42.4010   -2.4580  -30.2250 C.3    28  PHE28       0.1605
     21  C        -42.0860   -0.9670  -30.0010 C.2    28  PHE28       0.2264
     22  O        -42.0860   -0.1750  -30.9450 O.2    28  PHE28      -0.2867
     23  CB       -43.9100   -2.7330  -29.9930 C.3    28  PHE28       0.0534
     24  CG       -44.4350   -2.3570  -28.6210 C.ar   28  PHE28      -0.0203
     25  CD1      -45.0210   -1.1140  -28.3990 C.ar   28  PHE28      -0.0042
     26  CD2      -44.3380   -3.2410  -27.5530 C.ar   28  PHE28      -0.0042
     27  CE1      -45.4720   -0.7540  -27.1260 C.ar   28  PHE28      -0.0003
     28  CE2      -44.8040   -2.8840  -26.2840 C.ar   28  PHE28      -0.0003
     29  CZ       -45.3670   -1.6440  -26.0800 C.ar   28  PHE28      -0.0000
     30  N        -45.4790    2.7890  -24.4090 N.3    31  VAL31      -0.1245
     31  CA       -46.8450    3.2700  -24.2430 C.3    31  VAL31       0.1561
     32  C        -46.8400    4.3030  -23.1190 C.2    31  VAL31       0.2260
     33  O        -46.4050    4.0180  -22.0010 O.2    31  VAL31      -0.2867
     34  CB       -47.9130    2.1570  -24.0200 C.3    31  VAL31       0.0252
     35  CG1      -49.3310    2.7480  -23.9940 C.3    31  VAL31       0.0019
     36  CG2      -47.8110    1.0720  -25.0900 C.3    31  VAL31       0.0019
     37  N        -53.7540    6.7430  -24.0110 N.3    48  ALA48      -0.1245
     38  CA       -52.6000    5.8560  -24.0110 C.3    48  ALA48       0.1562
     39  C        -51.9920    6.1140  -25.3820 C.2    48  ALA48       0.2260
     40  O        -52.7220    6.1200  -26.3830 O.2    48  ALA48      -0.2867
     41  CB       -53.0320    4.4070  -23.8980 C.3    48  ALA48       0.0290
     42  N        -49.1590    4.9630  -28.0170 N.3    50  LYS50      -0.1245
     43  CA       -48.2110    3.9230  -28.3950 C.3    50  LYS50       0.1561
     44  C        -47.2150    4.5170  -29.3770 C.2    50  LYS50       0.2260
     45  O        -47.5680    4.8390  -30.5110 O.2    50  LYS50      -0.2867
     46  CB       -48.9410    2.7140  -28.9980 C.3    50  LYS50       0.0271
     47  CG       -48.0520    1.5040  -29.2900 C.3    50  LYS50       0.0035
     48  CD       -48.8610    0.5160  -30.1170 C.3    50  LYS50       0.0206
     49  CE       -48.1330   -0.7560  -30.3650 C.3    50  LYS50       0.1093
     50  NZ       -49.0870   -1.8380  -30.6710 N.3    50  LYS50      -0.1314
     51  N        -52.1800   -2.4660  -37.7910 N.3    63  GLU63      -0.1245
     52  CA       -52.8930   -2.5120  -36.5190 C.3    63  GLU63       0.1567
     53  C        -53.7550   -1.2500  -36.4210 C.2    63  GLU63       0.2260
     54  O        -54.9080   -1.3540  -36.0090 O.2    63  GLU63      -0.2867
     55  CB       -51.8780   -2.6010  -35.3700 C.3    63  GLU63       0.0388
     56  CG       -52.4610   -2.5280  -33.9650 C.3    63  GLU63       0.1160
     57  CD       -51.4480   -2.2700  -32.8670 C.2    63  GLU63       0.3649
     58  OE1      -50.3020   -1.8740  -33.1780 O.co2  63  GLU63      -0.2457
     59  OE2      -51.8200   -2.4140  -31.6830 O.co2  63  GLU63      -0.2457
     60  N        -57.7550   -1.2420  -35.8440 N.3    67  MET67      -0.1245
     61  CA       -58.1670   -0.4970  -34.6560 C.3    67  MET67       0.1570
     62  C        -59.0500    0.7290  -34.9760 C.2    67  MET67       0.2261
     63  O        -59.9280    1.0520  -34.1810 O.2    67  MET67      -0.2867
     64  CB       -56.9480   -0.1250  -33.8080 C.3    67  MET67       0.0387
     65  CG       -57.2350   -0.1450  -32.3500 C.3    67  MET67       0.0595
     66  SD       -55.7950    0.3040  -31.3770 S.3    67  MET67      -0.1393
     67  CE       -56.5650    0.4600  -29.7730 C.3    67  MET67       0.0692
     68  N        -61.6200   -1.8610  -27.9530 N.3    76  CYS76      -0.1235
     69  CA       -60.8230   -0.6180  -27.9880 C.3    76  CYS76       0.1677
     70  C        -60.6340   -0.1630  -29.4260 C.2    76  CYS76       0.2270
     71  O        -60.1250   -0.9220  -30.2620 O.2    76  CYS76      -0.2867
     72  CB       -59.4690   -0.8080  -27.3110 C.3    76  CYS76       0.0956
     73  SG       -59.5550   -1.0720  -25.5180 S.3    76  CYS76      -0.0801
     74  N        -54.8430    6.0640  -28.3340 N.3    91  MET91      -0.1230
     75  CA       -55.8860    5.1500  -27.8790 C.3    91  MET91       0.1702
     76  C        -56.4750    5.6660  -26.5740 C.2    91  MET91       0.2592
     77  O        -55.9700    6.6390  -26.0020 O.2    91  MET91      -0.2718
     78  CB       -55.2780    3.7330  -27.6790 C.3    91  MET91       0.0401
     79  CG       -54.2620    3.3580  -28.7590 C.3    91  MET91       0.0596
     80  SD       -53.3120    1.8530  -28.4620 S.3    91  MET91      -0.1393
     81  CE       -52.2020    2.4010  -27.1060 C.3    91  MET91       0.0692
     82  N        -57.5660    5.0510  -26.1260 N.am   92  GLN92      -0.1966
     83  CA       -58.2300    5.4280  -24.8800 C.3    92  GLN92       0.1733
     84  C        -57.4120    4.9140  -23.6950 C.2    92  GLN92       0.2616
     85  O        -56.9600    3.7580  -23.7100 O.2    92  GLN92      -0.2715
     86  CB       -59.6400    4.8000  -24.8460 C.3    92  GLN92       0.0408
     87  CG       -60.4760    5.1380  -23.6060 C.3    92  GLN92       0.0908
     88  CD       -61.7730    4.3790  -23.5450 C.2    92  GLN92       0.2608
     89  OE1      -61.9550    3.3470  -24.1930 O.2    92  GLN92      -0.2717
     90  NE2      -62.6800    4.8290  -22.7000 N.am   92  GLN92      -0.0878
     91  N        -57.2390    5.7580  -22.6620 N.am   93  LEU93      -0.1963
     92  CA       -56.5860    5.3410  -21.4180 C.3    93  LEU93       0.1728
     93  C        -57.5380    4.3930  -20.7130 C.2    93  LEU93       0.2616
     94  O        -58.7170    4.7230  -20.5190 O.2    93  LEU93      -0.2715
     95  CB       -56.2830    6.5380  -20.4930 C.3    93  LEU93       0.0311
     96  CG       -55.4680    6.1780  -19.2400 C.3    93  LEU93       0.0022
     97  CD1      -54.0050    5.9590  -19.5850 C.3    93  LEU93       0.0001
     98  CD2      -55.6500    7.2070  -18.1370 C.3    93  LEU93       0.0001
     99  N        -57.0440    3.2000  -20.3760 N.am   94  MET94      -0.1964
    100  CA       -57.7990    2.1580  -19.6650 C.3    94  MET94       0.1722
    101  C        -57.1290    2.1620  -18.3030 C.2    94  MET94       0.2458
    102  O        -56.0910    1.5360  -18.1510 O.2    94  MET94      -0.2730
    103  CB       -57.6760    0.8280  -20.4320 C.3    94  MET94       0.0427
    104  CG       -58.2430    0.9240  -21.8580 C.3    94  MET94       0.0599
    105  SD       -60.0420    1.2130  -21.9380 S.3    94  MET94      -0.1393
    106  CE       -60.5970   -0.4680  -21.7330 C.3    94  MET94       0.0692
    107  N        -57.6070    3.0110  -17.3580 N.am   95  PRO95      -0.2727
    108  CA       -56.8050    3.2970  -16.1520 C.3    95  PRO95       0.1402
    109  C        -56.5080    2.1510  -15.1810 C.2    95  PRO95       0.2269
    110  O        -55.6330    2.3340  -14.3460 O.2    95  PRO95      -0.2865
    111  CB       -57.5790    4.4290  -15.4550 C.3    95  PRO95       0.0296
    112  CG       -58.9310    4.4190  -16.0570 C.3    95  PRO95       0.0237
    113  CD       -58.7870    3.8990  -17.4360 C.3    95  PRO95       0.0939
    114  N        -55.3890   -0.8580  -16.1910 N.3    97  GLY97      -0.1210
    115  CA       -54.4560   -1.7190  -16.9210 C.3    97  GLY97       0.1956
    116  C        -55.0880   -2.9680  -17.4960 C.2    97  GLY97       0.2612
    117  O        -56.2970   -2.9900  -17.7170 O.2    97  GLY97      -0.2717
    118  N        -54.2870   -4.0240  -17.7530 N.am   98  CYS98      -0.1970
    119  CA       -54.8430   -5.2600  -18.3230 C.3    98  CYS98       0.1712
    120  C        -55.5640   -6.1160  -17.2740 C.2    98  CYS98       0.2296
    121  O        -55.2700   -6.0240  -16.0810 O.2    98  CYS98      -0.2864
    122  CB       -53.8050   -6.0570  -19.1110 C.3    98  CYS98       0.0983
    123  SG       -52.5630   -6.8770  -18.0920 S.3    98  CYS98      -0.0798
    124  N        -53.3190   -8.6110  -14.9810 N.3   101  ASP101     -0.1239
    125  CA       -52.6730   -8.0270  -13.7940 C.3   101  ASP101      0.1674
    126  C        -53.7090   -7.6230  -12.7560 C.2   101  ASP101      0.2266
    127  O        -53.4290   -7.6550  -11.5650 O.2   101  ASP101     -0.2867
    128  CB       -51.8200   -6.8050  -14.1790 C.3   101  ASP101      0.1410
    129  CG       -50.6560   -7.1130  -15.1010 C.2   101  ASP101      0.3668
    130  OD1      -50.1570   -6.1720  -15.7580 O.co2 101  ASP101     -0.2456
    131  OD2      -50.2410   -8.2970  -15.1680 O.co2 101  ASP101     -0.2456
    132  N        -54.2550  -10.8040  -21.0180 N.3   142  ARG142     -0.1245
    133  CA       -53.3130   -9.6850  -21.2140 C.3   142  ARG142      0.1563
    134  C        -53.8480   -8.6610  -22.2310 C.2   142  ARG142      0.2260
    135  O        -53.4380   -7.5080  -22.1800 O.2   142  ARG142     -0.2867
    136  CB       -51.9060  -10.1870  -21.6650 C.3   142  ARG142      0.0307
    137  CG       -51.8900  -10.8380  -23.0440 C.3   142  ARG142      0.0489
    138  CD       -50.5230  -11.3400  -23.5180 C.3   142  ARG142      0.2205
    139  NE       -50.6690  -12.7070  -24.0250 N.pl3 142  ARG142     -0.0865
    140  CZ       -50.9420  -13.0190  -25.2860 C.cat 142  ARG142      0.5346
    141  NH1      -51.0400  -12.0700  -26.2030 N.pl3 142  ARG142      0.1354
    142  NH2      -51.1150  -14.2820  -25.6400 N.pl3 142  ARG142      0.1354
    143  N        -58.4890   -5.0500  -21.5100 N.3   145  LEU145     -0.1245
    144  CA       -58.1350   -3.9100  -20.6580 C.3   145  LEU145      0.1561
    145  C        -59.2720   -3.4580  -19.8010 C.2   145  LEU145      0.2260
    146  O        -60.4320   -3.6890  -20.1380 O.2   145  LEU145     -0.2867
    147  CB       -57.5380   -2.7420  -21.4530 C.3   145  LEU145      0.0270
    148  CG       -56.3010   -3.0270  -22.3030 C.3   145  LEU145      0.0019
    149  CD1      -55.7380   -1.7750  -22.8110 C.3   145  LEU145      0.0001
    150  CD2      -55.2110   -3.7420  -21.5280 C.3   145  LEU145      0.0001
    151  N        -58.5580   -5.6070  -26.8280 N.3   155  THR155     -0.1203
    152  CA       -57.6650   -4.7860  -27.6470 C.3   155  THR155      0.1994
    153  C        -56.5570   -5.6470  -28.2590 C.2   155  THR155      0.2617
    154  O        -56.6420   -6.8850  -28.2130 O.2   155  THR155     -0.2717
    155  CB       -57.1550   -3.5520  -26.8720 C.3   155  THR155      0.1784
    156  OG1      -56.6270   -2.6000  -27.8200 O.3   155  THR155     -0.2211
    157  CG2      -56.1330   -3.9090  -25.7940 C.3   155  THR155      0.0376
    158  N        -55.5090   -4.9800  -28.7970 N.am  156  ASP156     -0.1973
    159  CA       -54.3150   -5.5680  -29.3920 C.3   156  ASP156      0.1709
    160  C        -54.6650   -6.2910  -30.6830 C.2   156  ASP156      0.2293
    161  O        -54.7590   -7.5230  -30.7410 O.2   156  ASP156     -0.2864
    162  CB       -53.5250   -6.4470  -28.3880 C.3   156  ASP156      0.1436
    163  CG       -52.0320   -6.4690  -28.6500 C.2   156  ASP156      0.3671
    164  OD1      -51.6380   -6.5800  -29.8330 O.co2 156  ASP156     -0.2456
    165  OD2      -51.2560   -6.3610  -27.6730 O.co2 156  ASP156     -0.2456
@<TRIPOS>BOND
     1    51    52    1
     2    52    53    1
     3    52    55    1
     4    53    54    2
     5    60    61    1
     6    55    56    1
     7    62    61    1
     8    62    63    2
     9    61    64    1
    10    56    57    1
    11    64    65    1
    12    58    57   ar
    13    57    59   ar
    14    65    66    1
    15    66    67    1
    16    22    21    2
    17   161   160    2
    18   160   159    1
    19    50    49    1
    20    45    44    2
    21    49    48    1
    22    71    70    2
    23    20    21    1
    24    20    23    1
    25    20    19    1
    26    48    47    1
    27    23    24    1
    28   164   163   ar
    29    70    69    1
    30   159   158    1
    31   159   162    1
    32    44    43    1
    33    47    46    1
    34    46    43    1
    35   158   153   am
    36    79    80    1
    37    79    78    1
    38   163   162    1
    39   163   165   ar
    40    24    25   ar
    41    24    26   ar
    42    80    81    1
    43    25    27   ar
    44    43    42    1
    45    74    75    1
    46   153   154    2
    47   153   152    1
    48    69    68    1
    49    69    72    1
    50    75    78    1
    51    75    76    1
    52   156   155    1
    53   152   155    1
    54   152   151    1
    55    26    28   ar
    56    72    73    1
    57    27    29   ar
    58   155   157    1
    59    76    82   am
    60    76    77    2
    61    40    39    2
    62    28    29   ar
    63   141   140    1
    64    82    83    1
    65   142   140    1
    66    39    38    1
    67   140   139    2
    68    36    34    1
    69    83    86    1
    70    83    84    1
    71    86    87    1
    72    30    31    1
    73    31    34    1
    74    31    32    1
    75    89    88    2
    76   139   138    1
    77    34    35    1
    78    38    37    1
    79    38    41    1
    80    85    84    2
    81    84    91   am
    82    87    88    1
    83    88    90   am
    84   138   137    1
    85    15    14    1
    86    15    16    2
    87    32    33    2
    88    18    17    1
    89   137   136    1
    90   149   148    1
    91    14    17    1
    92    14    13    1
    93    91    92    1
    94   148   150    1
    95   148   147    1
    96    12    11    2
    97   134   135    2
    98   134   133    1
    99   105   104    1
   100   105   106    1
   101   104   103    1
   102    13    11   am
   103   136   133    1
   104    11    10    1
   105   143   144    1
   106   147   144    1
   107    92    93    1
   108    92    95    1
   109   133   132    1
   110    93    94    2
   111    93    99   am
   112   144   145    1
   113    95    96    1
   114    10     9    1
   115   103   100    1
   116    99   100    1
   117     7     6    1
   118   146   145    2
   119     9     3   am
   120   100   101    1
   121    97    96    1
   122     5     6    1
   123     5     2    1
   124     1     2    1
   125    96    98    1
   126     6     8    1
   127   122   119    1
   128   122   123    1
   129     3     2    1
   130     3     4    2
   131   119   118    1
   132   119   120    1
   133   101   102    2
   134   101   107   am
   135   118   116   am
   136   117   116    2
   137   116   115    1
   138   113   107    1
   139   113   112    1
   140   107   108    1
   141   120   121    2
   142   115   114    1
   143   108   111    1
   144   108   109    1
   145   112   111    1
   146   130   129   ar
   147   109   110    2
   148   131   129   ar
   149   129   128    1
   150   124   125    1
   151   128   125    1
   152   125   126    1
   153   126   127    2
