@<TRIPOS>MOLECULE
tmp/5cayA02.pdb
 111 104 0 0 0
SMALL
GASTEIGER

@<TRIPOS>ATOM
      1  N        -49.3800  -35.9320   13.0890 N.3    66  TYR66      -0.1241
      2  CA       -48.2560  -36.3370   13.9030 C.3    66  TYR66       0.1605
      3  C        -48.5860  -36.0190   15.3610 C.2    66  TYR66       0.2264
      4  O        -48.5770  -34.8490   15.7460 O.2    66  TYR66      -0.2867
      5  CB       -46.9940  -35.6110   13.4100 C.3    66  TYR66       0.0534
      6  CG       -45.8000  -35.7350   14.3210 C.ar   66  TYR66      -0.0201
      7  CD1      -45.4680  -36.9640   14.9090 C.ar   66  TYR66      -0.0009
      8  CD2      -44.9910  -34.6300   14.6040 C.ar   66  TYR66      -0.0009
      9  CE1      -44.3770  -37.0850   15.7590 C.ar   66  TYR66       0.0417
     10  CE2      -43.8920  -34.7440   15.4530 C.ar   66  TYR66       0.0417
     11  CZ       -43.5910  -35.9750   16.0270 C.ar   66  TYR66       0.1957
     12  OH       -42.5110  -36.1230   16.8700 O.3    66  TYR66      -0.2866
     13  N        -47.8050  -35.2190   18.7630 N.3    68  ASP68      -0.1239
     14  CA       -46.6790  -34.7100   19.5580 C.3    68  ASP68       0.1674
     15  C        -46.8720  -34.9440   21.0710 C.2    68  ASP68       0.2266
     16  O        -46.0040  -34.5770   21.8710 O.2    68  ASP68      -0.2867
     17  CB       -46.3920  -33.2240   19.2470 C.3    68  ASP68       0.1410
     18  CG       -47.6040  -32.3090   19.4540 C.2    68  ASP68       0.3668
     19  OD1      -48.7240  -32.8070   19.7080 O.co2  68  ASP68      -0.2456
     20  OD2      -47.4350  -31.0770   19.3380 O.co2  68  ASP68      -0.2456
     21  N        -46.1450  -36.8930   23.5690 N.3    70  MET70      -0.1245
     22  CA       -45.1110  -37.9060   23.7440 C.3    70  MET70       0.1570
     23  C        -44.8980  -38.3460   25.1890 C.2    70  MET70       0.2261
     24  O        -43.9020  -39.0240   25.4550 O.2    70  MET70      -0.2867
     25  CB       -43.7730  -37.3800   23.1800 C.3    70  MET70       0.0387
     26  CG       -43.7350  -37.2190   21.6690 C.3    70  MET70       0.0595
     27  SD       -43.6700  -38.8200   20.8460 S.3    70  MET70      -0.1393
     28  CE       -43.9430  -38.3310   19.1350 C.3    70  MET70       0.0692
     29  N        -40.9970  -40.3430   28.5890 N.3   110  GLU110     -0.1245
     30  CA       -40.8560  -39.8660   27.2120 C.3   110  GLU110      0.1567
     31  C        -40.9160  -41.0410   26.2440 C.2   110  GLU110      0.2260
     32  O        -40.0990  -41.9600   26.3380 O.2   110  GLU110     -0.2867
     33  CB       -39.5350  -39.1140   27.0220 C.3   110  GLU110      0.0388
     34  CG       -39.3200  -38.5550   25.6130 C.3   110  GLU110      0.1160
     35  CD       -40.3770  -37.5390   25.1800 C.2   110  GLU110      0.3649
     36  OE1      -41.0090  -36.8940   26.0440 O.co2 110  GLU110     -0.2457
     37  OE2      -40.5750  -37.3720   23.9580 O.co2 110  GLU110     -0.2457
     38  N        -40.6720  -40.8530   22.7490 N.3   112  GLN112     -0.1245
     39  CA       -39.9290  -40.7070   21.4900 C.3   112  GLN112      0.1566
     40  C        -38.9480  -41.8480   21.2270 C.2   112  GLN112      0.2260
     41  O        -38.4210  -42.4540   22.1530 O.2   112  GLN112     -0.2867
     42  CB       -39.2190  -39.3480   21.3790 C.3   112  GLN112      0.0367
     43  CG       -37.8410  -39.2150   22.0230 C.3   112  GLN112      0.0905
     44  CD       -36.6830  -39.6640   21.1460 C.2   112  GLN112      0.2608
     45  OE1      -35.7810  -40.3310   21.6170 O.2   112  GLN112     -0.2717
     46  NE2      -36.6990  -39.2950   19.8780 N.am  112  GLN112     -0.0878
     47  N        -33.5660  -38.2800   23.2700 N.3   119  PHE119     -0.1227
     48  CA       -33.9170  -36.8590   23.2650 C.3   119  PHE119      0.1736
     49  C        -35.1450  -36.6270   24.1290 C.2   119  PHE119      0.2595
     50  O        -35.9750  -37.5320   24.2690 O.2   119  PHE119     -0.2718
     51  CB       -34.2310  -36.3820   21.8440 C.3   119  PHE119      0.0547
     52  CG       -33.1570  -36.6880   20.8460 C.ar  119  PHE119     -0.0202
     53  CD1      -32.0290  -35.8800   20.7540 C.ar  119  PHE119     -0.0042
     54  CD2      -33.2700  -37.7780   19.9970 C.ar  119  PHE119     -0.0042
     55  CE1      -31.0340  -36.1570   19.8320 C.ar  119  PHE119     -0.0003
     56  CE2      -32.2730  -38.0580   19.0850 C.ar  119  PHE119     -0.0003
     57  CZ       -31.1550  -37.2460   19.0030 C.ar  119  PHE119     -0.0000
     58  N        -35.2670  -35.4120   24.6780 N.am  120  ASN120     -0.1974
     59  CA       -36.4150  -35.0020   25.4910 C.3   120  ASN120      0.1688
     60  C        -36.7520  -35.9860   26.6050 C.2   120  ASN120      0.2292
     61  O        -37.9170  -36.1660   26.9400 O.2   120  ASN120     -0.2864
     62  CB       -37.6590  -34.7990   24.6140 C.3   120  ASN120      0.1181
     63  CG       -37.5140  -33.6670   23.6310 C.2   120  ASN120      0.2629
     64  OD1      -36.4990  -32.9880   23.5950 O.2   120  ASN120     -0.2716
     65  ND2      -38.5510  -33.4650   22.8200 N.am  120  ASN120     -0.0877
     66  N        -33.6700  -40.4720   13.9370 N.3   215  THR215     -0.1203
     67  CA       -34.6420  -39.7310   14.7350 C.3   215  THR215      0.1994
     68  C        -35.7510  -39.2460   13.8090 C.2   215  THR215      0.2617
     69  O        -35.7900  -39.6360   12.6410 O.2   215  THR215     -0.2717
     70  CB       -33.9940  -38.5590   15.5060 C.3   215  THR215      0.1784
     71  OG1      -34.9830  -37.9390   16.3370 O.3   215  THR215     -0.2211
     72  CG2      -33.3990  -37.5230   14.5750 C.3   215  THR215      0.0376
     73  N        -36.6610  -38.4240   14.3240 N.am  216  ASN216     -0.1974
     74  CA       -37.6210  -37.7400   13.4700 C.3   216  ASN216      0.1688
     75  C        -37.9080  -36.3240   13.9220 C.2   216  ASN216      0.2292
     76  O        -37.7240  -35.9910   15.0880 O.2   216  ASN216     -0.2864
     77  CB       -38.9170  -38.5250   13.3650 C.3   216  ASN216      0.1181
     78  CG       -39.7720  -38.3830   14.5880 C.2   216  ASN216      0.2629
     79  OD1      -39.4870  -38.9800   15.6160 O.2   216  ASN216     -0.2716
     80  ND2      -40.8170  -37.5710   14.4930 N.am  216  ASN216     -0.0877
     81  N        -40.9650  -33.3380   13.0870 N.3   218  ARG218     -0.1245
     82  CA       -42.2500  -32.9730   12.4800 C.3   218  ARG218      0.1563
     83  C        -42.7690  -34.1020   11.6070 C.2   218  ARG218      0.2260
     84  O        -43.1220  -33.9010   10.4580 O.2   218  ARG218     -0.2867
     85  CB       -42.1460  -31.6360   11.7200 C.3   218  ARG218      0.0307
     86  CG       -42.3260  -30.4410   12.6340 C.3   218  ARG218      0.0489
     87  CD       -42.1540  -29.1100   11.9390 C.3   218  ARG218      0.2205
     88  NE       -41.9910  -28.0640   12.9470 N.pl3 218  ARG218     -0.0865
     89  CZ       -41.6470  -26.7950   12.7060 C.cat 218  ARG218      0.5346
     90  NH1      -41.4170  -26.3510   11.4640 N.pl3 218  ARG218      0.1354
     91  NH2      -41.5260  -25.9540   13.7330 N.pl3 218  ARG218      0.1354
     92  N        -36.8900  -28.5640   14.5340 N.3   269  CYS269     -0.1221
     93  CA       -37.1480  -29.1140   15.8610 C.3   269  CYS269      0.1808
     94  C        -36.0750  -28.7000   16.8480 C.2   269  CYS269      0.2601
     95  O        -34.9030  -28.5660   16.5000 O.2   269  CYS269     -0.2717
     96  CB       -37.2070  -30.6320   15.8110 C.3   269  CYS269      0.0970
     97  SG       -38.5490  -31.2510   14.7870 S.3   269  CYS269     -0.0800
     98  N        -36.5110  -28.5230   18.0900 N.am  270  ASN270     -0.1960
     99  CA       -35.6950  -28.0610   19.1870 C.3   270  ASN270      0.1819
    100  C        -35.7300  -29.2590   20.1480 C.2   270  ASN270      0.2622
    101  O        -36.7960  -29.5860   20.6580 O.2   270  ASN270     -0.2715
    102  CB       -36.3250  -26.8210   19.8660 C.3   270  ASN270      0.1195
    103  CG       -36.8450  -25.7500   18.8820 C.2   270  ASN270      0.2630
    104  OD1      -36.6800  -24.5440   19.1280 O.2   270  ASN270     -0.2716
    105  ND2      -37.4720  -26.1660   17.7840 N.am  270  ASN270     -0.0877
    106  N        -34.6030  -29.9310   20.3790 N.am  271  SER271     -0.1950
    107  CA       -34.5920  -31.1290   21.2410 C.3   271  SER271      0.1924
    108  C        -33.4770  -31.1400   22.2770 C.2   271  SER271      0.2314
    109  O        -32.3450  -30.8320   21.9680 O.2   271  SER271     -0.2863
    110  CB       -34.5080  -32.4040   20.3960 C.3   271  SER271      0.2116
    111  OG       -35.7890  -32.9860   20.2660 O.3   271  SER271     -0.2180
@<TRIPOS>BOND
     1    84    83    2
     2    90    89    1
     3    83    82    1
     4    85    82    1
     5    85    86    1
     6    87    86    1
     7    87    88    1
     8    82    81    1
     9    69    68    2
    10    89    88    2
    11    89    91    1
    12     1     2    1
    13    77    74    1
    14    77    78    1
    15     5     2    1
    16     5     6    1
    17    74    75    1
    18    74    73    1
    19    68    73   am
    20    68    67    1
    21     2     3    1
    22    75    76    2
    23    66    67    1
    24     6     8   ar
    25     6     7   ar
    26    80    78   am
    27    92    93    1
    28    72    70    1
    29    78    79    2
    30     8    10   ar
    31    67    70    1
    32    97    96    1
    33     7     9   ar
    34     3     4    2
    35    10    11   ar
    36    70    71    1
    37     9    11   ar
    38    96    93    1
    39    93    94    1
    40    11    12    1
    41    95    94    2
    42    94    98   am
    43   105   103   am
    44    98    99    1
    45    13    14    1
    46   103   104    2
    47   103   102    1
    48    57    56   ar
    49    57    55   ar
    50    56    54   ar
    51    28    27    1
    52    99   102    1
    53    99   100    1
    54    17    18    1
    55    17    14    1
    56    20    18   ar
    57    18    19   ar
    58    14    15    1
    59    55    53   ar
    60    46    44   am
    61    54    52   ar
    62   100   106   am
    63   100   101    2
    64   111   110    1
    65   106   107    1
    66   110   107    1
    67    53    52   ar
    68    52    51    1
    69    27    26    1
    70    15    16    2
    71    44    45    2
    72    44    43    1
    73    40    39    1
    74    40    41    2
    75   107   108    1
    76    42    39    1
    77    42    43    1
    78    39    38    1
    79    26    25    1
    80    51    48    1
    81   109   108    2
    82    65    63   am
    83    25    22    1
    84    48    47    1
    85    48    49    1
    86    21    22    1
    87    64    63    2
    88    63    62    1
    89    22    23    1
    90    37    35   ar
    91    49    50    2
    92    49    58   am
    93    62    59    1
    94    58    59    1
    95    35    34    1
    96    35    36   ar
    97    23    24    2
    98    59    60    1
    99    34    33    1
   100    31    32    2
   101    31    30    1
   102    60    61    2
   103    33    30    1
   104    30    29    1
