@<TRIPOS>MOLECULE
tmp/5cb0A00.pdb
 142 137 0 0 0
SMALL
GASTEIGER

@<TRIPOS>ATOM
      1  N         30.8920   15.8030   26.9270 N.3    20  ARG20      -0.1231
      2  CA        32.1850   16.3690   26.5660 C.3    20  ARG20       0.1694
      3  C         33.3240   15.4640   27.0150 C.2    20  ARG20       0.2591
      4  O         34.2790   15.2380   26.2710 O.2    20  ARG20      -0.2718
      5  CB        32.3580   17.7610   27.1740 C.3    20  ARG20       0.0321
      6  CG        33.6370   18.4570   26.7380 C.3    20  ARG20       0.0489
      7  CD        33.9020   19.7120   27.5550 C.3    20  ARG20       0.2205
      8  NE        32.7670   20.6290   27.5430 N.pl3  20  ARG20      -0.0865
      9  CZ        32.0730   20.9640   28.6250 C.cat  20  ARG20       0.5346
     10  NH1       31.0530   21.8050   28.5270 N.pl3  20  ARG20       0.1354
     11  NH2       32.4040   20.4620   29.8080 N.pl3  20  ARG20       0.1354
     12  N         33.2050   14.9320   28.2290 N.am   21  ARG21      -0.1980
     13  CA        34.2270   14.0530   28.7850 C.3    21  ARG21       0.1597
     14  C         34.2690   12.7660   27.9880 C.2    21  ARG21       0.2287
     15  O         35.3380   12.2100   27.7390 O.2    21  ARG21      -0.2864
     16  CB        33.9500   13.7460   30.2580 C.3    21  ARG21       0.0334
     17  CG        34.9950   12.8520   30.9210 C.3    21  ARG21       0.0492
     18  CD        36.3760   13.4780   30.9010 C.3    21  ARG21       0.2205
     19  NE        36.3560   14.8370   31.4320 N.pl3  21  ARG21      -0.0865
     20  CZ        36.5180   15.1360   32.7170 C.cat  21  ARG21       0.5346
     21  NH1       36.4810   16.4000   33.1160 N.pl3  21  ARG21       0.1354
     22  NH2       36.7240   14.1700   33.6020 N.pl3  21  ARG21       0.1354
     23  N         36.1540   13.5730   24.8120 N.3    24  TYR24      -0.1227
     24  CA        37.5780   13.6470   25.1180 C.3    24  TYR24       0.1736
     25  C         38.1570   12.2490   25.2280 C.2    24  TYR24       0.2595
     26  O         39.2200   11.9610   24.6760 O.2    24  TYR24      -0.2718
     27  CB        37.8330   14.4190   26.4170 C.3    24  TYR24       0.0548
     28  CG        39.3030   14.6590   26.7020 C.ar   24  TYR24      -0.0200
     29  CD1       40.0860   13.6780   27.3060 C.ar   24  TYR24      -0.0009
     30  CD2       39.9070   15.8620   26.3740 C.ar   24  TYR24      -0.0009
     31  CE1       41.4280   13.8860   27.5640 C.ar   24  TYR24       0.0417
     32  CE2       41.2510   16.0810   26.6320 C.ar   24  TYR24       0.0417
     33  CZ        42.0050   15.0900   27.2260 C.ar   24  TYR24       0.1957
     34  OH        43.3400   15.3100   27.4800 O.3    24  TYR24      -0.2866
     35  N         37.4420   11.3740   25.9250 N.am   25  LEU25      -0.1980
     36  CA        37.8830    9.9970   26.0560 C.3    25  LEU25       0.1596
     37  C         37.9180    9.3150   24.7040 C.2    25  LEU25       0.2287
     38  O         38.8860    8.6640   24.3700 O.2    25  LEU25      -0.2864
     39  CB        36.9750    9.2250   27.0110 C.3    25  LEU25       0.0297
     40  CG        37.4360    9.1460   28.4660 C.3    25  LEU25       0.0022
     41  CD1       37.7780   10.5130   29.0250 C.3    25  LEU25       0.0001
     42  CD2       36.3640    8.4750   29.3020 C.3    25  LEU25       0.0001
     43  N         31.6650    6.5820   36.2550 N.3   141  TRP141     -0.1241
     44  CA        32.5300    7.7500   36.2810 C.3   141  TRP141      0.1605
     45  C         31.7010    9.0150   36.4780 C.2   141  TRP141      0.2264
     46  O         31.1370    9.5620   35.5320 O.2   141  TRP141     -0.2867
     47  CB        33.3520    7.8230   34.9900 C.3   141  TRP141      0.0550
     48  CG        34.4040    8.9020   34.9450 C.ar  141  TRP141      0.0003
     49  CD1       34.4080   10.0880   35.6220 C.ar  141  TRP141      0.0946
     50  CD2       35.6190    8.8710   34.1900 C.ar  141  TRP141      0.0152
     51  NE1       35.5410   10.8010   35.3230 N.ar  141  TRP141     -0.2442
     52  CE2       36.3030   10.0730   34.4490 C.ar  141  TRP141      0.0810
     53  CE3       36.1920    7.9430   33.3170 C.ar  141  TRP141      0.0012
     54  CZ2       37.5290   10.3720   33.8640 C.ar  141  TRP141      0.0191
     55  CZ3       37.4100    8.2390   32.7410 C.ar  141  TRP141      0.0001
     56  CH2       38.0660    9.4440   33.0160 C.ar  141  TRP141      0.0015
     57  N         36.5390   22.2330   35.4670 N.3   147  PRO147     -0.2102
     58  CA        37.6400   21.8350   34.5840 C.3   147  PRO147      0.1504
     59  C         38.6780   20.9470   35.2670 C.2   147  PRO147      0.2575
     60  O         38.9440   21.1100   36.4560 O.2   147  PRO147     -0.2718
     61  CB        38.2600   23.1760   34.1750 C.3   147  PRO147      0.0282
     62  CG        37.8770   24.1190   35.2560 C.3   147  PRO147      0.0208
     63  CD        36.5110   23.6870   35.6920 C.3   147  PRO147      0.0893
     64  N         39.2430   20.0100   34.5110 N.am  148  TRP148     -0.1977
     65  CA        40.2920   19.1290   35.0080 C.3   148  TRP148      0.1640
     66  C         41.5360   19.9410   35.3680 C.2   148  TRP148      0.2290
     67  O         41.9260   20.8360   34.6200 O.2   148  TRP148     -0.2864
     68  CB        40.6230   18.0760   33.9470 C.3   148  TRP148      0.0576
     69  CG        41.5560   16.9930   34.3840 C.ar  148  TRP148      0.0006
     70  CD1       42.9150   17.0060   34.3000 C.ar  148  TRP148      0.0946
     71  CD2       41.2010   15.7160   34.9200 C.ar  148  TRP148      0.0152
     72  NE1       43.4340   15.8290   34.7780 N.ar  148  TRP148     -0.2442
     73  CE2       42.4010   15.0180   35.1620 C.ar  148  TRP148      0.0810
     74  CE3       39.9880   15.0990   35.2320 C.ar  148  TRP148      0.0012
     75  CZ2       42.4220   13.7370   35.7000 C.ar  148  TRP148      0.0191
     76  CZ3       40.0110   13.8270   35.7660 C.ar  148  TRP148      0.0001
     77  CH2       41.2210   13.1590   35.9930 C.ar  148  TRP148      0.0015
     78  N         45.7560   10.6410   38.9960 N.3   154  ALA154     -0.1245
     79  CA        44.7600    9.6270   39.2830 C.3   154  ALA154      0.1562
     80  C         45.0740    9.0420   40.6440 C.2   154  ALA154      0.2260
     81  O         46.2390    8.8480   40.9890 O.2   154  ALA154     -0.2867
     82  CB        44.7560    8.5480   38.2170 C.3   154  ALA154      0.0290
     83  N         43.1690    1.1040   35.9790 N.3   178  THR178     -0.1218
     84  CA        43.5970    2.4950   36.0790 C.3   178  THR178      0.1862
     85  C         44.8690    2.7180   35.2640 C.2   178  THR178      0.2287
     86  O         45.0710    3.7810   34.6780 O.2   178  THR178     -0.2866
     87  CB        43.8370    2.9100   37.5380 C.3   178  THR178      0.1770
     88  OG1       42.6960    2.5540   38.3260 O.3   178  THR178     -0.2211
     89  CG2       44.0660    4.4080   37.6450 C.3   178  THR178      0.0375
     90  N         44.2310    2.5660   31.6360 N.3   181  LEU181     -0.1231
     91  CA        43.5150    3.7850   31.2880 C.3   181  LEU181      0.1693
     92  C         44.4290    4.9990   31.1970 C.2   181  LEU181      0.2591
     93  O         44.4230    5.7100   30.1940 O.2   181  LEU181     -0.2718
     94  CB        42.4110    4.0540   32.3090 C.3   181  LEU181      0.0284
     95  CG        41.6470    5.3600   32.1160 C.3   181  LEU181      0.0019
     96  CD1       40.9120    5.3320   30.7930 C.3   181  LEU181      0.0001
     97  CD2       40.6840    5.5870   33.2640 C.3   181  LEU181      0.0001
     98  N         45.2090    5.2360   32.2480 N.am  182  ALA182     -0.1980
     99  CA        46.0820    6.4020   32.2870 C.3   182  ALA182      0.1597
    100  C         47.0830    6.4050   31.1400 C.2   182  ALA182      0.2287
    101  O         47.3020    7.4330   30.5220 O.2   182  ALA182     -0.2864
    102  CB        46.8150    6.4650   33.6150 C.3   182  ALA182      0.0319
    103  N         45.4450    7.8000   27.9570 N.3   185  VAL185     -0.1245
    104  CA        44.8900    9.1480   27.8410 C.3   185  VAL185      0.1561
    105  C         45.9150   10.0870   27.1340 C.2   185  VAL185      0.2260
    106  O         45.6720   10.3720   25.9620 O.2   185  VAL185     -0.2867
    107  CB        44.4000    9.6970   29.2040 C.3   185  VAL185      0.0252
    108  CG1       43.8400   11.0960   29.0450 C.3   185  VAL185      0.0019
    109  CG2       43.3520    8.7710   29.7820 C.3   185  VAL185      0.0019
    110  N         48.0960   12.5510   30.6050 N.3   187  HIS187     -0.1241
    111  CA        48.9170   11.9730   31.6890 C.3   187  HIS187      0.1621
    112  C         48.7050   10.5730   32.2650 C.2   187  HIS187      0.2264
    113  O         47.6120   10.0040   32.2380 O.2   187  HIS187     -0.2867
    114  CB        48.8260   12.9070   32.8950 C.3   187  HIS187      0.0745
    115  CG        47.7260   12.5390   33.8410 C.ar  187  HIS187      0.0817
    116  ND1       47.9300   11.7270   34.9360 N.ar  187  HIS187     -0.2268
    117  CD2       46.4060   12.8380   33.8360 C.ar  187  HIS187      0.1154
    118  CE1       46.7880   11.5540   35.5730 C.ar  187  HIS187      0.1986
    119  NE2       45.8470   12.2220   34.9300 N.ar  187  HIS187     -0.2212
    120  N         40.9810   13.0470   39.7120 N.3   255  ILE255     -0.1245
    121  CA        40.0700   11.9060   39.8180 C.3   255  ILE255      0.1561
    122  C         40.5120   10.9400   40.9170 C.2   255  ILE255      0.2260
    123  O         41.6920   10.8850   41.2680 O.2   255  ILE255     -0.2867
    124  CB        39.9790   11.1310   38.4840 C.3   255  ILE255      0.0252
    125  CG1       38.7850   10.1720   38.4800 C.3   255  ILE255      0.0019
    126  CG2       41.2730   10.3850   38.2090 C.3   255  ILE255      0.0019
    127  CD1       38.6180    9.4070   37.1850 C.3   255  ILE255      0.0001
    128  N         39.7900    6.7360   42.1630 N.3   257  VAL257     -0.1245
    129  CA        39.1700    5.4470   41.8970 C.3   257  VAL257      0.1561
    130  C         38.7590    4.7910   43.2010 C.2   257  VAL257      0.2260
    131  O         39.5620    4.6680   44.1230 O.2   257  VAL257     -0.2867
    132  CB        40.1190    4.5110   41.1370 C.3   257  VAL257      0.0252
    133  CG1       39.4060    3.2260   40.7570 C.3   257  VAL257      0.0019
    134  CG2       40.6670    5.2030   39.9010 C.3   257  VAL257      0.0019
    135  N         35.5330    7.5800   40.1850 N.3   280  LEU280     -0.1245
    136  CA        35.3530    6.3970   39.3670 C.3   280  LEU280      0.1561
    137  C         35.1700    5.2020   40.2660 C.2   280  LEU280      0.2260
    138  O         36.1420    4.6030   40.7220 O.2   280  LEU280     -0.2867
    139  CB        36.5350    6.1790   38.4210 C.3   280  LEU280      0.0270
    140  CG        36.3900    4.9650   37.4950 C.3   280  LEU280      0.0019
    141  CD1       35.1640    5.0960   36.6100 C.3   280  LEU280      0.0001
    142  CD2       37.6340    4.7710   36.6430 C.3   280  LEU280      0.0001
@<TRIPOS>BOND
     1    38    37    2
     2    26    25    2
     3    37    36    1
     4    23    24    1
     5    24    25    1
     6    24    27    1
     7    25    35   am
     8    35    36    1
     9   106   105    2
    10    36    39    1
    11     4     3    2
    12    30    32   ar
    13    30    28   ar
    14    27    28    1
    15     2     1    1
    16     2     3    1
    17     2     5    1
    18    32    33   ar
    19    28    29   ar
    20     6     5    1
    21     6     7    1
    22    39    40    1
    23     3    12   am
    24   105   104    1
    25    33    34    1
    26    33    31   ar
    27    29    31   ar
    28     8     7    1
    29     8     9    2
    30    15    14    2
    31   104   103    1
    32   104   107    1
    33    14    13    1
    34    12    13    1
    35    40    41    1
    36    40    42    1
    37    10     9    1
    38     9    11    1
    39    13    16    1
    40   108   107    1
    41   107   109    1
    42    93    92    2
    43    16    17    1
    44   101   100    2
    45   110   111    1
    46    96    95    1
    47    18    17    1
    48    18    19    1
    49   100    99    1
    50    92    91    1
    51    92    98   am
    52    91    90    1
    53    91    94    1
    54    19    20    2
    55   111   112    1
    56   111   114    1
    57    95    94    1
    58    95    97    1
    59   113   112    2
    60    98    99    1
    61    99   102    1
    62    20    21    1
    63    20    22    1
    64    55    56   ar
    65    55    53   ar
    66   114   115    1
    67    56    54   ar
    68    53    50   ar
    69   117   115   ar
    70   117   119   ar
    71   115   116   ar
    72    54    52   ar
    73    68    69    1
    74    68    65    1
    75    61    58    1
    76    61    62    1
    77    50    52   ar
    78    50    48   ar
    79    70    69   ar
    80    70    72   ar
    81    69    71   ar
    82    52    51   ar
    83    64    65    1
    84    64    59   am
    85    58    59    1
    86    58    57    1
    87    67    66    2
    88    86    85    2
    89    72    73   ar
    90    71    73   ar
    91    71    74   ar
    92   119   118   ar
    93   116   118   ar
    94    48    47    1
    95    48    49   ar
    96    47    44    1
    97    65    66    1
    98    73    75   ar
    99    74    76   ar
   100    62    63    1
   101    85    84    1
   102    59    60    2
   103    51    49   ar
   104    57    63    1
   105    46    45    2
   106    75    77   ar
   107    76    77   ar
   108    83    84    1
   109    84    87    1
   110    43    44    1
   111    44    45    1
   112   141   140    1
   113   142   140    1
   114   127   125    1
   115   140   139    1
   116    87    89    1
   117    87    88    1
   118   126   124    1
   119    82    79    1
   120   139   136    1
   121   125   124    1
   122   124   121    1
   123    78    79    1
   124    79    80    1
   125   136   135    1
   126   136   137    1
   127   120   121    1
   128   121   122    1
   129   134   132    1
   130   137   138    2
   131    80    81    2
   132   133   132    1
   133   122   123    2
   134   132   129    1
   135   129   128    1
   136   129   130    1
   137   130   131    2
