@<TRIPOS>MOLECULE
tmp/5cb2A00.pdb
 212 206 0 0 0
SMALL
GASTEIGER

@<TRIPOS>ATOM
      1  N         -6.2560   24.3330  -26.9430 N.3    42  GLN42      -0.1231
      2  CA        -7.5530   24.3560  -27.6080 C.3    42  GLN42       0.1698
      3  C         -7.4750   24.8650  -29.0580 C.2    42  GLN42       0.2593
      4  O         -6.7620   25.7530  -29.4220 O.2    42  GLN42      -0.2718
      5  CB        -8.5430   25.1870  -26.7730 C.3    42  GLN42       0.0381
      6  CG        -9.9420   25.2650  -27.3540 C.3    42  GLN42       0.0905
      7  CD       -10.9710   25.7260  -26.3540 C.2    42  GLN42       0.2608
      8  OE1      -11.1310   25.1410  -25.3020 O.2    42  GLN42      -0.2717
      9  NE2      -11.6790   26.7680  -26.6850 N.am   42  GLN42      -0.0878
     10  N         -8.2100   24.2310  -29.9060 N.am   43  SER43      -0.1938
     11  CA        -8.1850   24.5240  -31.3700 C.3    43  SER43       0.2055
     12  C         -6.8180   24.6040  -32.0360 C.2    43  SER43       0.2644
     13  O         -6.5090   25.5620  -32.7200 O.2    43  SER43      -0.2714
     14  CB        -9.0600   25.6940  -31.6310 C.3    43  SER43       0.2130
     15  OG       -10.2010   25.5260  -30.8040 O.3    43  SER43      -0.2179
     16  N         -6.0120   23.5570  -31.8600 N.am   44  THR44      -0.1936
     17  CA        -4.7950   23.3920  -32.6810 C.3    44  THR44       0.2028
     18  C         -5.0220   22.4180  -33.8610 C.2    44  THR44       0.2643
     19  O         -4.0420   21.9530  -34.4820 O.2    44  THR44      -0.2714
     20  CB        -3.6400   22.8800  -31.8120 C.3    44  THR44       0.1808
     21  OG1       -4.0340   21.6680  -31.1110 O.3    44  THR44      -0.2208
     22  CG2       -3.2790   23.9550  -30.8060 C.3    44  THR44       0.0379
     23  N         -6.3100   22.1070  -34.1370 N.am   45  GLY45      -0.1939
     24  CA        -6.7000   21.2150  -35.2260 C.3    45  GLY45       0.2014
     25  C         -6.3590   19.7470  -34.9460 C.2    45  GLY45       0.2639
     26  O         -5.9590   19.0020  -35.8680 O.2    45  GLY45      -0.2714
     27  N         -6.5350   19.3420  -33.6850 N.am   46  LYS46      -0.1963
     28  CA        -6.3090   17.9840  -33.1830 C.3    46  LYS46       0.1728
     29  C         -7.3110   16.9970  -33.7330 C.2    46  LYS46       0.2617
     30  O         -6.9540   16.0370  -34.4220 O.2    46  LYS46      -0.2715
     31  CB        -6.4160   17.9810  -31.6480 C.3    46  LYS46       0.0311
     32  CG        -5.1750   18.5390  -30.9370 C.3    46  LYS46       0.0038
     33  CD        -5.2010   18.3300  -29.4260 C.3    46  LYS46       0.0206
     34  CE        -6.4680   18.8610  -28.7550 C.3    46  LYS46       0.1093
     35  NZ        -6.2590   20.2410  -28.2400 N.3    46  LYS46      -0.1314
     36  N         -8.5750   17.2140  -33.4160 N.am   47  SER47      -0.1936
     37  CA        -9.6120   16.3610  -33.9600 C.3    47  SER47       0.2055
     38  C         -9.5020   16.2540  -35.4590 C.2    47  SER47       0.2643
     39  O         -9.6600   15.1960  -36.0500 O.2    47  SER47      -0.2714
     40  CB       -10.9560   16.9330  -33.6070 C.3    47  SER47       0.2130
     41  OG       -10.9790   17.0650  -32.2180 O.3    47  SER47      -0.2179
     42  N         -9.2110   17.3760  -36.0660 N.am   48  THR48      -0.1950
     43  CA        -8.9060   17.4360  -37.4800 C.3    48  THR48       0.1897
     44  C         -7.8550   16.4140  -37.8480 C.2    48  THR48       0.2313
     45  O         -8.0230   15.6660  -38.8170 O.2    48  THR48      -0.2863
     46  CB        -8.4030   18.8310  -37.8520 C.3    48  THR48       0.1794
     47  OG1       -9.5160   19.7320  -37.8950 O.3    48  THR48      -0.2208
     48  CG2       -7.7400   18.8400  -39.1380 C.3    48  THR48       0.0378
     49  N        -15.7560   15.6230  -33.9030 N.3    59  ASP59      -0.1225
     50  CA       -16.2610   16.9060  -34.3240 C.3    59  ASP59       0.1805
     51  C        -15.1360   17.9310  -34.3530 C.2    59  ASP59       0.2598
     52  O        -14.1900   17.8970  -33.5450 O.2    59  ASP59      -0.2718
     53  CB       -17.4180   17.3660  -33.4290 C.3    59  ASP59       0.1424
     54  CG       -18.7340   16.6870  -33.7750 C.2    59  ASP59       0.3668
     55  OD1      -18.7290   15.6420  -34.4780 O.co2  59  ASP59      -0.2456
     56  OD2      -19.7800   17.2050  -33.3210 O.co2  59  ASP59      -0.2456
     57  N        -15.2590   18.8590  -35.2870 N.am   60  VAL60      -0.1966
     58  CA       -14.2740   19.8960  -35.4540 C.3    60  VAL60       0.1727
     59  C        -14.9940   21.1980  -35.3480 C.2    60  VAL60       0.2616
     60  O        -16.1940   21.2680  -35.5910 O.2    60  VAL60      -0.2715
     61  CB       -13.5870   19.8140  -36.8210 C.3    60  VAL60       0.0290
     62  CG1      -12.2650   19.0890  -36.7190 C.3    60  VAL60       0.0023
     63  CG2      -14.5090   19.1420  -37.8440 C.3    60  VAL60       0.0023
     64  N        -14.2590   22.2400  -35.0020 N.am   61  MET61      -0.1977
     65  CA       -14.8340   23.5750  -34.9060 C.3    61  MET61       0.1605
     66  C        -15.1360   24.1280  -36.2800 C.2    61  MET61       0.2287
     67  O        -14.2390   24.1660  -37.1280 O.2    61  MET61      -0.2864
     68  CB       -13.8290   24.4860  -34.2190 C.3    61  MET61       0.0413
     69  CG       -14.3250   25.8860  -33.9010 C.3    61  MET61       0.0598
     70  SD       -12.9850   27.0180  -34.2830 S.3    61  MET61      -0.1393
     71  CE       -11.8490   26.6920  -32.9510 C.3    61  MET61       0.0692
     72  N        -15.5700   27.2620  -38.6050 N.3    63  GLU63      -0.1245
     73  CA       -14.6320   28.3550  -38.5310 C.3    63  GLU63       0.1567
     74  C        -15.2670   29.7390  -38.3490 C.2    63  GLU63       0.2260
     75  O        -14.5880   30.7310  -38.0410 O.2    63  GLU63      -0.2867
     76  CB       -13.7520   28.2860  -39.7560 C.3    63  GLU63       0.0388
     77  CG       -12.8730   27.0320  -39.7290 C.3    63  GLU63       0.1160
     78  CD       -12.3170   26.6250  -41.0890 C.2    63  GLU63       0.3649
     79  OE1      -12.9690   26.9600  -42.1090 O.co2  63  GLU63      -0.2457
     80  OE2      -11.2330   25.9780  -41.1430 O.co2  63  GLU63      -0.2457
     81  N        -14.2910   30.9880  -33.2980 N.3    66  ARG66      -0.1245
     82  CA       -13.2320   30.3040  -32.5600 C.3    66  ARG66       0.1563
     83  C        -13.6310   29.9630  -31.0910 C.2    66  ARG66       0.2260
     84  O        -13.6450   30.8200  -30.1830 O.2    66  ARG66      -0.2867
     85  CB       -11.9200   31.0930  -32.6020 C.3    66  ARG66       0.0307
     86  CG       -11.2300   31.0340  -33.9360 C.3    66  ARG66       0.0489
     87  CD        -9.8600   31.6450  -33.8680 C.3    66  ARG66       0.2205
     88  NE        -8.9610   30.9080  -33.0050 N.pl3  66  ARG66      -0.0865
     89  CZ        -8.1550   29.9220  -33.3900 C.cat  66  ARG66       0.5346
     90  NH1       -8.1210   29.4870  -34.6440 N.pl3  66  ARG66       0.1354
     91  NH2       -7.3850   29.3420  -32.4840 N.pl3  66  ARG66       0.1354
     92  N        -14.3720   26.2500  -28.2140 N.3    68  GLN68      -0.1231
     93  CA       -14.0580   24.8990  -27.7680 C.3    68  GLN68       0.1698
     94  C        -15.0160   23.9170  -28.4200 C.2    68  GLN68       0.2593
     95  O        -16.2110   24.2060  -28.5350 O.2    68  GLN68      -0.2718
     96  CB       -14.2500   24.8720  -26.2700 C.3    68  GLN68       0.0381
     97  CG       -14.1270   23.5340  -25.5930 C.3    68  GLN68       0.0905
     98  CD       -14.7190   23.5760  -24.1980 C.2    68  GLN68       0.2608
     99  OE1      -15.8730   24.0150  -24.0250 O.2    68  GLN68      -0.2717
    100  NE2      -13.9320   23.1380  -23.1880 N.am   68  GLN68      -0.0878
    101  N        -14.5000   22.7590  -28.8400 N.am   69  THR69      -0.1939
    102  CA       -15.3070   21.7810  -29.5760 C.3    69  THR69       0.2028
    103  C        -15.2910   20.3740  -28.9550 C.2    69  THR69       0.2642
    104  O        -16.3490   19.8280  -28.5810 O.2    69  THR69      -0.2714
    105  CB       -14.8820   21.7580  -31.0490 C.3    69  THR69       0.1808
    106  OG1      -15.0730   23.0720  -31.6090 O.3    69  THR69      -0.2208
    107  CG2      -15.6920   20.6870  -31.8570 C.3    69  THR69       0.0379
    108  N        -14.1100   19.7830  -28.8350 N.am   70  THR70      -0.1950
    109  CA       -14.0270   18.5670  -28.0540 C.3    70  THR70       0.1897
    110  C        -14.3180   18.8380  -26.5780 C.2    70  THR70       0.2313
    111  O        -13.7440   19.7440  -25.9580 O.2    70  THR70      -0.2863
    112  CB       -12.6380   17.9410  -28.1460 C.3    70  THR70       0.1794
    113  OG1      -12.3320   17.6590  -29.5020 O.3    70  THR70      -0.2208
    114  CG2      -12.5840   16.6480  -27.3280 C.3    70  THR70       0.0378
    115  N         -8.8330   14.0710  -27.0770 N.3    99  VAL99      -0.1231
    116  CA        -9.0240   14.8000  -25.8190 C.3    99  VAL99       0.1692
    117  C         -9.4420   16.2470  -26.0770 C.2    99  VAL99       0.2592
    118  O         -9.1030   16.8050  -27.1070 O.2    99  VAL99      -0.2718
    119  CB        -7.7780   14.6610  -24.8880 C.3    99  VAL99       0.0266
    120  CG1       -6.4950   14.6300  -25.6900 C.3    99  VAL99       0.0020
    121  CG2       -7.7210   15.7680  -23.8640 C.3    99  VAL99       0.0020
    122  N        -10.2190   16.8320  -25.1630 N.am  100  GLU100     -0.1966
    123  CA       -10.5620   18.2600  -25.2440 C.3   100  GLU100      0.1733
    124  C         -9.3210   19.0600  -24.9390 C.2   100  GLU100      0.2616
    125  O         -8.4810   18.6120  -24.1330 O.2   100  GLU100     -0.2715
    126  CB       -11.7140   18.6420  -24.3310 C.3   100  GLU100      0.0429
    127  CG       -11.4290   18.6660  -22.8260 C.3   100  GLU100      0.1163
    128  CD       -12.1870   19.8060  -22.1540 C.2   100  GLU100      0.3649
    129  OE1      -11.5260   20.8360  -21.8850 O.co2 100  GLU100     -0.2457
    130  OE2      -13.4360   19.7110  -21.9550 O.co2 100  GLU100     -0.2457
    131  N         -9.2100   20.2270  -25.5890 N.am  101  GLY101     -0.1955
    132  CA        -7.9360   20.9320  -25.6940 C.3   101  GLY101      0.1869
    133  C         -7.6260   21.7240  -24.4560 C.2   101  GLY101      0.2309
    134  O         -8.5620   22.1830  -23.8020 O.2   101  GLY101     -0.2863
    135  N          1.3370   24.3380  -32.3270 N.3   133  TRP133     -0.1241
    136  CA         1.5820   25.1800  -33.4760 C.3   133  TRP133      0.1605
    137  C          3.0350   25.5330  -33.4700 C.2   133  TRP133      0.2264
    138  O          3.6120   25.7090  -32.4080 O.2   133  TRP133     -0.2867
    139  CB         0.8410   26.4440  -33.3550 C.3   133  TRP133      0.0550
    140  CG        -0.6220   26.3700  -33.4580 C.ar  133  TRP133      0.0003
    141  CD1       -1.4880   26.8060  -32.5270 C.ar  133  TRP133      0.0946
    142  CD2       -1.4240   26.0070  -34.5830 C.ar  133  TRP133      0.0152
    143  NE1       -2.7850   26.6920  -32.9510 N.ar  133  TRP133     -0.2442
    144  CE2       -2.7820   26.2000  -34.2120 C.ar  133  TRP133      0.0810
    145  CE3       -1.1460   25.5290  -35.8520 C.ar  133  TRP133      0.0012
    146  CZ2       -3.8440   25.9080  -35.0410 C.ar  133  TRP133      0.0191
    147  CZ3       -2.2020   25.2530  -36.6950 C.ar  133  TRP133      0.0001
    148  CH2       -3.5410   25.4360  -36.2860 C.ar  133  TRP133      0.0015
    149  N          2.2790   22.0410  -35.8980 N.3   179  ARG179     -0.1231
    150  CA         1.2660   22.4130  -36.8460 C.3   179  ARG179      0.1694
    151  C          1.5670   23.7160  -37.5580 C.2   179  ARG179      0.2592
    152  O          2.3920   24.4860  -37.1130 O.2   179  ARG179     -0.2718
    153  CB        -0.1060   22.4280  -36.1530 C.3   179  ARG179      0.0321
    154  CG        -0.5560   21.0320  -35.7670 C.3   179  ARG179      0.0489
    155  CD        -0.6270   20.0780  -36.9490 C.3   179  ARG179      0.2205
    156  NE        -1.8870   20.3070  -37.6490 N.pl3 179  ARG179     -0.0865
    157  CZ        -3.0580   19.8570  -37.2180 C.cat 179  ARG179      0.5346
    158  NH1       -3.1430   19.1120  -36.1130 N.pl3 179  ARG179      0.1354
    159  NH2       -4.1570   20.1270  -37.9000 N.pl3 179  ARG179      0.1354
    160  N          0.8690   23.9560  -38.6660 N.am  180  ASP180     -0.1974
    161  CA         1.1610   25.0890  -39.5530 C.3   180  ASP180      0.1709
    162  C          2.6250   25.4650  -39.7650 C.2   180  ASP180      0.2293
    163  O          2.9630   26.5960  -39.7730 O.2   180  ASP180     -0.2864
    164  CB         0.3520   26.2770  -39.1290 C.3   180  ASP180      0.1436
    165  CG        -1.0180   26.2220  -39.6600 C.2   180  ASP180      0.3671
    166  OD1       -1.3810   25.1090  -40.1070 O.co2 180  ASP180     -0.2456
    167  OD2       -1.7290   27.2490  -39.6730 O.co2 180  ASP180     -0.2456
    168  N          2.5170   21.1260  -42.8020 N.3   228  ASN228     -0.1225
    169  CA         2.4060   22.4380  -43.3970 C.3   228  ASN228      0.1785
    170  C          1.0480   23.0360  -43.0960 C.2   228  ASN228      0.2597
    171  O          0.1830   22.4090  -42.5010 O.2   228  ASN228     -0.2718
    172  CB         2.6710   22.3460  -44.9070 C.3   228  ASN228      0.1169
    173  CG         4.1150   22.0020  -45.2370 C.2   228  ASN228      0.2627
    174  OD1        4.3780   21.5250  -46.3040 O.2   228  ASN228     -0.2716
    175  ND2        5.0460   22.2540  -44.3420 N.am  228  ASN228     -0.0877
    176  N          0.8830   24.2740  -43.5070 N.am  229  HIS229     -0.1961
    177  CA        -0.3390   24.9880  -43.2650 C.3   229  HIS229      0.1787
    178  C         -1.4860   24.2590  -43.8760 C.2   229  HIS229      0.2620
    179  O         -1.5410   24.0750  -45.0770 O.2   229  HIS229     -0.2715
    180  CB        -0.2680   26.3790  -43.8970 C.3   229  HIS229      0.0785
    181  CG        -1.2670   27.3280  -43.3350 C.ar  229  HIS229      0.0821
    182  ND1       -2.6190   27.1860  -43.5270 N.ar  229  HIS229     -0.2267
    183  CD2       -1.1140   28.4110  -42.5600 C.ar  229  HIS229      0.1154
    184  CE1       -3.2650   28.1300  -42.8820 C.ar  229  HIS229      0.1986
    185  NE2       -2.3700   28.8850  -42.2810 N.ar  229  HIS229     -0.2212
    186  N         -2.4520   23.8760  -43.0900 N.am  230  LYS230     -0.1963
    187  CA        -3.5410   23.2010  -43.7470 C.3   230  LYS230      0.1728
    188  C         -4.3150   24.1020  -44.7140 C.2   230  LYS230      0.2616
    189  O         -4.7630   23.6500  -45.7280 O.2   230  LYS230     -0.2715
    190  CB        -4.4920   22.4720  -42.7970 C.3   230  LYS230      0.0311
    191  CG        -5.9310   22.4790  -43.3160 C.3   230  LYS230      0.0038
    192  CD        -6.8350   21.5940  -42.5010 C.3   230  LYS230      0.0206
    193  CE        -8.1680   22.2750  -42.2840 C.3   230  LYS230      0.1093
    194  NZ        -9.0820   22.0600  -43.4420 N.3   230  LYS230     -0.1314
    195  N         -4.5270   25.3540  -44.4100 N.am  231  VAL231     -0.1977
    196  CA        -5.3920   26.1290  -45.3170 C.3   231  VAL231      0.1596
    197  C         -4.6910   26.6950  -46.5600 C.2   231  VAL231      0.2287
    198  O         -5.2150   26.5990  -47.6780 O.2   231  VAL231     -0.2864
    199  CB        -6.2070   27.1850  -44.5730 C.3   231  VAL231      0.0276
    200  CG1       -7.1930   27.8250  -45.5270 C.3   231  VAL231      0.0022
    201  CG2       -6.9840   26.5240  -43.4630 C.3   231  VAL231      0.0022
    202  N         -0.1740   19.5980  -46.9200 N.3   237  PHE237     -0.1241
    203  CA        -0.7380   19.1880  -45.6780 C.3   237  PHE237      0.1605
    204  C         -1.0000   17.6970  -45.8790 C.2   237  PHE237      0.2264
    205  O         -0.2590   16.8610  -45.3610 O.2   237  PHE237     -0.2867
    206  CB        -2.0150   19.9620  -45.3800 C.3   237  PHE237      0.0534
    207  CG        -2.7050   19.5240  -44.1180 C.ar  237  PHE237     -0.0203
    208  CD1       -2.0470   19.5880  -42.8990 C.ar  237  PHE237     -0.0042
    209  CD2       -4.0140   19.0680  -44.1460 C.ar  237  PHE237     -0.0042
    210  CE1       -2.6750   19.1670  -41.7330 C.ar  237  PHE237     -0.0003
    211  CE2       -4.6520   18.6440  -42.9950 C.ar  237  PHE237     -0.0003
    212  CZ        -3.9870   18.6940  -41.7810 C.ar  237  PHE237     -0.0000
@<TRIPOS>BOND
     1   198   197    2
     2   202   203    1
     3   197   196    1
     4   174   173    2
     5   204   203    1
     6   204   205    2
     7   189   188    2
     8   203   206    1
     9   200   199    1
    10   206   207    1
    11   196   199    1
    12   196   195    1
    13   173   172    1
    14   173   175   am
    15   179   178    2
    16   172   169    1
    17   188   195   am
    18   188   187    1
    19   199   201    1
    20   209   207   ar
    21   209   211   ar
    22   207   208   ar
    23   180   181    1
    24   180   177    1
    25   178   177    1
    26   178   186   am
    27   187   186    1
    28   187   190    1
    29   182   181   ar
    30   182   184   ar
    31   176   177    1
    32   176   170   am
    33   194   193    1
    34   169   170    1
    35   169   168    1
    36   181   183   ar
    37   191   190    1
    38   191   192    1
    39   170   171    2
    40   211   212   ar
    41   208   210   ar
    42   184   185   ar
    43   183   185   ar
    44   192   193    1
    45    79    78   ar
    46   212   210   ar
    47    80    78   ar
    48    78    77    1
    49   166   165   ar
    50   163   162    2
    51   162   161    1
    52    76    77    1
    53    76    73    1
    54   167   165   ar
    55   165   164    1
    56   161   164    1
    57   161   160    1
    58    48    46    1
    59    45    44    2
    60   160   151   am
    61    72    73    1
    62    73    74    1
    63    74    75    2
    64   159   157    1
    65    47    46    1
    66    46    43    1
    67    44    43    1
    68    63    61    1
    69   156   157    2
    70   156   155    1
    71   151   152    2
    72   151   150    1
    73    43    42    1
    74   157   158    1
    75    67    66    2
    76   155   154    1
    77   150   153    1
    78   150   149    1
    79    61    62    1
    80    61    58    1
    81   147   148   ar
    82   147   145   ar
    83   148   146   ar
    84    66    65    1
    85   153   154    1
    86    42    38   am
    87    39    38    2
    88    26    25    2
    89   145   142   ar
    90    60    59    2
    91    38    37    1
    92    58    59    1
    93    58    57    1
    94    59    64   am
    95    57    51   am
    96    24    25    1
    97    24    23    1
    98   146   144   ar
    99    64    65    1
   100    25    27   am
   101    65    68    1
   102    90    89    1
   103   142   144   ar
   104   142   140   ar
   105    19    18    2
   106    55    54   ar
   107    30    29    2
   108    51    50    1
   109    51    52    2
   110    50    49    1
   111    50    53    1
   112    70    69    1
   113    70    71    1
   114    68    69    1
   115   144   143   ar
   116    23    18   am
   117    37    40    1
   118    37    36    1
   119    86    87    1
   120    86    85    1
   121    87    88    1
   122    18    17    1
   123    54    53    1
   124    54    56   ar
   125    29    36   am
   126    29    28    1
   127    27    28    1
   128    40    41    1
   129   136   137    1
   130   136   139    1
   131   136   135    1
   132   137   138    2
   133   140   139    1
   134   140   141   ar
   135    89    88    2
   136    89    91    1
   137    81    82    1
   138    28    31    1
   139   143   141   ar
   140    13    12    2
   141    17    16    1
   142    17    20    1
   143    85    82    1
   144    82    83    1
   145    12    16   am
   146    12    11    1
   147   107   105    1
   148    20    21    1
   149    20    22    1
   150    31    32    1
   151    14    11    1
   152    14    15    1
   153   106   105    1
   154    11    10    1
   155    83    84    2
   156   105   102    1
   157    32    33    1
   158    10     3   am
   159   102   103    1
   160   102   101    1
   161   113   112    1
   162    33    34    1
   163     4     3    2
   164     3     2    1
   165   103   108   am
   166   103   104    2
   167   101    94   am
   168   108   109    1
   169    34    35    1
   170    95    94    2
   171    94    93    1
   172    92    93    1
   173   112   109    1
   174   112   114    1
   175   109   110    1
   176    93    96    1
   177     2     1    1
   178     2     5    1
   179     6     5    1
   180     6     7    1
   181   118   117    2
   182   115   116    1
   183     9     7   am
   184   110   111    2
   185     7     8    2
   186    96    97    1
   187   117   116    1
   188   117   122   am
   189   116   119    1
   190   132   131    1
   191   132   133    1
   192   120   119    1
   193    97    98    1
   194   131   124   am
   195   123   122    1
   196   123   124    1
   197   123   126    1
   198   124   125    2
   199   119   121    1
   200   133   134    2
   201   126   127    1
   202    98    99    2
   203    98   100   am
   204   127   128    1
   205   128   130   ar
   206   128   129   ar
