@<TRIPOS>MOLECULE
tmp/5cb4B02.pdb
 152 141 0 0 0
SMALL
GASTEIGER

@<TRIPOS>ATOM
      1  N         11.0860  -64.4560  -33.5250 N.3   235  VAL235     -0.1245
      2  CA        12.3030  -64.2280  -34.2980 C.3   235  VAL235      0.1561
      3  C         13.3730  -65.2820  -34.0150 C.2   235  VAL235      0.2260
      4  O         14.2840  -65.4790  -34.8200 O.2   235  VAL235     -0.2867
      5  CB        12.8930  -62.8230  -34.0210 C.3   235  VAL235      0.0252
      6  CG1       11.8810  -61.7440  -34.3800 C.3   235  VAL235      0.0019
      7  CG2       13.3270  -62.6860  -32.5680 C.3   235  VAL235      0.0019
      8  N         13.3210  -69.9940  -35.6660 N.3   238  CYS238     -0.1221
      9  CA        14.1350  -70.7050  -36.6450 C.3   238  CYS238      0.1808
     10  C         15.5090  -71.0770  -36.0860 C.2   238  CYS238      0.2601
     11  O         16.2500  -71.8410  -36.7080 O.2   238  CYS238     -0.2717
     12  CB        14.2920  -69.8610  -37.9120 C.3   238  CYS238      0.0970
     13  SG        12.7470  -69.6050  -38.8220 S.3   238  CYS238     -0.0800
     14  N         15.8440  -70.5310  -34.9200 N.am  239  LEU239     -0.1979
     15  CA        17.0840  -70.8780  -34.2290 C.3   239  LEU239      0.1596
     16  C         16.8530  -72.0390  -33.2670 C.2   239  LEU239      0.2287
     17  O         17.7680  -72.8120  -32.9820 O.2   239  LEU239     -0.2864
     18  CB        17.6330  -69.6700  -33.4610 C.3   239  LEU239      0.0297
     19  CG        17.8950  -68.3900  -34.2580 C.3   239  LEU239      0.0022
     20  CD1       18.2400  -67.2480  -33.3160 C.3   239  LEU239      0.0001
     21  CD2       19.0080  -68.5970  -35.2710 C.3   239  LEU239      0.0001
     22  N         15.9770  -74.6610  -43.2580 N.3   245  LEU245     -0.1245
     23  CA        17.3020  -74.0660  -43.4070 C.3   245  LEU245      0.1561
     24  C         18.1780  -74.2260  -42.1660 C.2   245  LEU245      0.2260
     25  O         19.3970  -74.0670  -42.2470 O.2   245  LEU245     -0.2867
     26  CB        17.1680  -72.5780  -43.7460 C.3   245  LEU245      0.0270
     27  CG        16.3990  -72.2320  -45.0250 C.3   245  LEU245      0.0019
     28  CD1       16.5660  -70.7610  -45.3390 C.3   245  LEU245      0.0001
     29  CD2       16.8610  -73.0690  -46.2010 C.3   245  LEU245      0.0001
     30  N         18.4500  -72.2500  -39.3760 N.3   247  ALA247     -0.1245
     31  CA        19.1130  -70.9570  -39.2850 C.3   247  ALA247      0.1562
     32  C         20.0010  -70.8490  -38.0510 C.2   247  ALA247      0.2260
     33  O         19.7110  -71.4340  -37.0060 O.2   247  ALA247     -0.2867
     34  CB        18.0800  -69.8410  -39.2810 C.3   247  ALA247      0.0290
     35  N         24.4690  -66.9570  -40.4250 N.3   251  LYS251     -0.1231
     36  CA        23.7770  -67.0520  -41.7060 C.3   251  LYS251      0.1693
     37  C         22.6570  -66.0190  -41.8000 C.2   251  LYS251      0.2591
     38  O         22.3600  -65.5110  -42.8810 O.2   251  LYS251     -0.2718
     39  CB        23.2160  -68.4600  -41.9200 C.3   251  LYS251      0.0285
     40  CG        24.2710  -69.4840  -42.3120 C.3   251  LYS251      0.0035
     41  CD        23.6490  -70.7670  -42.8450 C.3   251  LYS251      0.0206
     42  CE        24.7100  -71.7060  -43.4010 C.3   251  LYS251      0.1093
     43  NZ        24.1210  -72.9270  -44.0180 N.3   251  LYS251     -0.1314
     44  N         22.0410  -65.7100  -40.6630 N.am  252  LEU252     -0.1980
     45  CA        21.0110  -64.6800  -40.6120 C.3   252  LEU252      0.1596
     46  C         21.6110  -63.3150  -40.9280 C.2   252  LEU252      0.2287
     47  O         21.0550  -62.5460  -41.7120 O.2   252  LEU252     -0.2864
     48  CB        20.3410  -64.6550  -39.2360 C.3   252  LEU252      0.0297
     49  CG        19.2440  -63.6040  -39.0370 C.3   252  LEU252      0.0022
     50  CD1       18.0750  -63.8540  -39.9770 C.3   252  LEU252      0.0001
     51  CD2       18.7740  -63.5890  -37.5930 C.3   252  LEU252      0.0001
     52  N         22.5290  -62.8630  -44.6270 N.3   255  ASN255     -0.1225
     53  CA        21.3730  -62.7190  -45.5050 C.3   255  ASN255      0.1785
     54  C         20.5770  -61.4350  -45.2680 C.2   255  ASN255      0.2597
     55  O         19.8810  -60.9610  -46.1670 O.2   255  ASN255     -0.2718
     56  CB        20.4440  -63.9280  -45.3470 C.3   255  ASN255      0.1169
     57  CG        20.9560  -65.1630  -46.0720 C.2   255  ASN255      0.2627
     58  OD1       21.5670  -65.0660  -47.1370 O.2   255  ASN255     -0.2716
     59  ND2       20.7020  -66.3330  -45.4970 N.am  255  ASN255     -0.0877
     60  N         20.6800  -60.8750  -44.0640 N.am  256  MET256     -0.1979
     61  CA        19.8750  -59.7130  -43.6830 C.3   256  MET256      0.1605
     62  C         20.6110  -58.3830  -43.8410 C.2   256  MET256      0.2287
     63  O         19.9820  -57.3470  -44.0580 O.2   256  MET256     -0.2864
     64  CB        19.4040  -59.8540  -42.2310 C.3   256  MET256      0.0413
     65  CG        18.3480  -60.9310  -42.0130 C.3   256  MET256      0.0598
     66  SD        16.8170  -60.6260  -42.9170 S.3   256  MET256     -0.1393
     67  CE        16.2250  -59.1400  -42.1080 C.3   256  MET256      0.0692
     68  N         15.9150  -56.1510  -46.8590 N.3   311  THR311     -0.1203
     69  CA        15.7440  -57.5880  -46.7010 C.3   311  THR311      0.1994
     70  C         14.5690  -57.8590  -45.7690 C.2   311  THR311      0.2618
     71  O         14.2260  -57.0200  -44.9340 O.2   311  THR311     -0.2717
     72  CB        17.0130  -58.2550  -46.1320 C.3   311  THR311      0.1784
     73  OG1       17.4010  -57.5880  -44.9230 O.3   311  THR311     -0.2211
     74  CG2       18.1600  -58.1920  -47.1380 C.3   311  THR311      0.0376
     75  N         13.9500  -59.0250  -45.9260 N.am  312  VAL312     -0.1965
     76  CA        12.8540  -59.4410  -45.0580 C.3   312  VAL312      0.1727
     77  C         12.9440  -60.9310  -44.7530 C.2   312  VAL312      0.2616
     78  O         13.1020  -61.7560  -45.6550 O.2   312  VAL312     -0.2715
     79  CB        11.4750  -59.1390  -45.6890 C.3   312  VAL312      0.0290
     80  CG1       10.3450  -59.6510  -44.7950 C.3   312  VAL312      0.0023
     81  CG2       11.3160  -57.6490  -45.9330 C.3   312  VAL312      0.0023
     82  N         12.8490  -61.2570  -43.4680 N.am  313  ALA313     -0.1963
     83  CA        12.7350  -62.6350  -43.0140 C.3   313  ALA313      0.1728
     84  C         11.4130  -62.8000  -42.2770 C.2   313  ALA313      0.2616
     85  O         11.0610  -61.9740  -41.4330 O.2   313  ALA313     -0.2715
     86  CB        13.9020  -63.0040  -42.1170 C.3   313  ALA313      0.0334
     87  N         10.6850  -63.8620  -42.6040 N.am  314  ALA314     -0.1963
     88  CA         9.3740  -64.1130  -42.0140 C.3   314  ALA314      0.1728
     89  C          9.2280  -65.5750  -41.6050 C.2   314  ALA314      0.2616
     90  O          9.7730  -66.4700  -42.2520 O.2   314  ALA314     -0.2715
     91  CB         8.2760  -63.7210  -42.9900 C.3   314  ALA314      0.0334
     92  N          8.4930  -65.8050  -40.5210 N.am  315  ILE315     -0.1977
     93  CA         8.2620  -67.1500  -40.0060 C.3   315  ILE315      0.1596
     94  C          6.7950  -67.3140  -39.6140 C.2   315  ILE315      0.2287
     95  O          6.2820  -66.5920  -38.7590 O.2   315  ILE315     -0.2864
     96  CB         9.1890  -67.4590  -38.7940 C.3   315  ILE315      0.0276
     97  CG1        8.7700  -68.7430  -38.0690 C.3   315  ILE315      0.0022
     98  CG2        9.1980  -66.3050  -37.8110 C.3   315  ILE315      0.0022
     99  CD1        8.8590  -69.9810  -38.9170 C.3   315  ILE315      0.0001
    100  N         18.4820  -55.9290  -54.8540 N.3   344  ILE344     -0.1245
    101  CA        18.7210  -57.1460  -54.0830 C.3   344  ILE344      0.1561
    102  C         17.6670  -58.1780  -54.4750 C.2   344  ILE344      0.2260
    103  O         16.6080  -58.2510  -53.8530 O.2   344  ILE344     -0.2867
    104  CB        18.6770  -56.9070  -52.5610 C.3   344  ILE344      0.0252
    105  CG1       19.6800  -55.8170  -52.1700 C.3   344  ILE344      0.0019
    106  CG2       18.9830  -58.2110  -51.8200 C.3   344  ILE344      0.0019
    107  CD1       19.7270  -55.4970  -50.6850 C.3   344  ILE344      0.0001
    108  N         15.2560  -61.2350  -54.9040 N.3   346  ASN346     -0.1225
    109  CA        14.7230  -62.2500  -54.0030 C.3   346  ASN346      0.1785
    110  C         15.1060  -61.9780  -52.5480 C.2   346  ASN346      0.2597
    111  O         15.6270  -62.8570  -51.8610 O.2   346  ASN346     -0.2718
    112  CB        15.2160  -63.6360  -54.4290 C.3   346  ASN346      0.1169
    113  CG        15.1170  -63.8560  -55.9300 C.2   346  ASN346      0.2627
    114  OD1       16.1280  -64.0330  -56.6110 O.2   346  ASN346     -0.2716
    115  ND2       13.8970  -63.8500  -56.4520 N.am  346  ASN346     -0.0877
    116  N         14.8380  -60.7590  -52.0860 N.am  347  ASN347     -0.1960
    117  CA        15.2360  -60.3270  -50.7470 C.3   347  ASN347      0.1819
    118  C         14.1690  -60.5910  -49.6870 C.2   347  ASN347      0.2621
    119  O         14.1670  -59.9590  -48.6270 O.2   347  ASN347     -0.2715
    120  CB        15.5810  -58.8360  -50.7610 C.3   347  ASN347      0.1195
    121  CG        14.4230  -57.9730  -51.2240 C.2   347  ASN347      0.2630
    122  OD1       13.3610  -58.4780  -51.5900 O.2   347  ASN347     -0.2716
    123  ND2       14.6210  -56.6610  -51.2000 N.am  347  ASN347     -0.0877
    124  N         13.2630  -61.5190  -49.9790 N.am  348  VAL348     -0.1963
    125  CA        12.2380  -61.9250  -49.0230 C.3   348  VAL348      0.1727
    126  C         12.2210  -63.4410  -48.8950 C.2   348  VAL348      0.2616
    127  O         12.0110  -64.1540  -49.8780 O.2   348  VAL348     -0.2715
    128  CB        10.8370  -61.4350  -49.4370 C.3   348  VAL348      0.0290
    129  CG1        9.8160  -61.7540  -48.3510 C.3   348  VAL348      0.0023
    130  CG2       10.8550  -59.9410  -49.7220 C.3   348  VAL348      0.0023
    131  N         12.4460  -63.9200  -47.6750 N.am  349  LYS349     -0.1977
    132  CA        12.4380  -65.3480  -47.3870 C.3   349  LYS349      0.1596
    133  C         11.4450  -65.6680  -46.2800 C.2   349  LYS349      0.2287
    134  O         11.3480  -64.9450  -45.2850 O.2   349  LYS349     -0.2864
    135  CB        13.8340  -65.8330  -46.9910 C.3   349  LYS349      0.0298
    136  CG        13.9150  -67.3350  -46.7490 C.3   349  LYS349      0.0038
    137  CD        13.6210  -68.1250  -48.0160 C.3   349  LYS349      0.0206
    138  CE        13.7240  -69.6170  -47.7670 C.3   349  LYS349      0.1093
    139  NZ        13.5580  -70.4130  -49.0110 N.3   349  LYS349     -0.1314
    140  N          9.7960  -68.8980  -43.7840 N.3   351  ALA351     -0.1245
    141  CA         9.9200  -70.2340  -43.2220 C.3   351  ALA351      0.1562
    142  C          8.6360  -70.5910  -42.4880 C.2   351  ALA351      0.2260
    143  O          7.8100  -69.7190  -42.2130 O.2   351  ALA351     -0.2867
    144  CB        11.1150  -70.3130  -42.2850 C.3   351  ALA351      0.0290
    145  N         10.5740  -59.9200  -39.5910 N.3   367  ILE367     -0.1245
    146  CA        11.8710  -59.2760  -39.3860 C.3   367  ILE367      0.1561
    147  C         12.2420  -58.5040  -40.6440 C.2   367  ILE367      0.2260
    148  O         12.5550  -59.1000  -41.6750 O.2   367  ILE367     -0.2867
    149  CB        12.9930  -60.2870  -39.0630 C.3   367  ILE367      0.0252
    150  CG1       12.5820  -61.2030  -37.9060 C.3   367  ILE367      0.0019
    151  CG2       14.2880  -59.5420  -38.7340 C.3   367  ILE367      0.0019
    152  CD1       13.6090  -62.2740  -37.5580 C.3   367  ILE367      0.0001
@<TRIPOS>BOND
     1   114   113    2
     2   115   113   am
     3   113   112    1
     4   108   109    1
     5   100   101    1
     6   102   101    1
     7   102   103    2
     8   112   109    1
     9   101   104    1
    10   109   110    1
    11   104   105    1
    12   104   106    1
    13   110   116   am
    14   110   111    2
    15   105   107    1
    16   116   117    1
    17   122   121    2
    18   121   123   am
    19   121   120    1
    20   120   117    1
    21   117   118    1
    22   124   118   am
    23   124   125    1
    24   127   126    2
    25   130   128    1
    26   118   119    2
    27   128   125    1
    28   128   129    1
    29   125   126    1
    30   139   138    1
    31   126   131   am
    32   137   138    1
    33   137   136    1
    34   131   132    1
    35   132   135    1
    36   132   133    1
    37    74    72    1
    38    58    57    2
    39   135   136    1
    40    68    69    1
    41    69    72    1
    42    69    70    1
    43   133   134    2
    44    29    27    1
    45    55    54    2
    46    72    73    1
    47    57    59   am
    48    57    56    1
    49    81    79    1
    50    75    70   am
    51    75    76    1
    52    70    71    2
    53    79    76    1
    54    79    80    1
    55    78    77    2
    56    53    56    1
    57    53    54    1
    58    53    52    1
    59    28    27    1
    60    54    60   am
    61    76    77    1
    62    27    26    1
    63    77    82   am
    64    60    61    1
    65    63    62    2
    66    43    42    1
    67    62    61    1
    68   140   141    1
    69    26    23    1
    70    61    64    1
    71    82    83    1
    72    23    22    1
    73    23    24    1
    74    42    41    1
    75   141   142    1
    76   141   144    1
    77    83    84    1
    78    83    86    1
    79    91    88    1
    80    66    67    1
    81    66    65    1
    82    38    37    2
    83    41    40    1
    84    87    84   am
    85    87    88    1
    86   142   143    2
    87    40    39    1
    88    84    85    2
    89    90    89    2
    90    25    24    2
    91    64    65    1
    92    88    89    1
    93    39    36    1
    94    37    36    1
    95    37    44   am
    96    47    46    2
    97    36    35    1
    98   148   147    2
    99    89    92   am
   100    46    45    1
   101    44    45    1
   102   147   146    1
   103    45    48    1
   104    92    93    1
   105    93    94    1
   106    93    96    1
   107    50    49    1
   108    94    95    2
   109   145   146    1
   110   146   149    1
   111    30    31    1
   112    31    34    1
   113    31    32    1
   114    48    49    1
   115   149   151    1
   116   149   150    1
   117    49    51    1
   118    99    97    1
   119    13    12    1
   120    96    97    1
   121    96    98    1
   122    32    33    2
   123    12     9    1
   124   150   152    1
   125    11    10    2
   126     9    10    1
   127     9     8    1
   128    10    14   am
   129    21    19    1
   130    14    15    1
   131     4     3    2
   132     6     5    1
   133     2     5    1
   134     2     3    1
   135     2     1    1
   136    19    18    1
   137    19    20    1
   138    15    18    1
   139    15    16    1
   140     5     7    1
   141    16    17    2
