@<TRIPOS>MOLECULE
tmp/5cb5J00.pdb
 174 167 0 0 0
SMALL
GASTEIGER

@<TRIPOS>ATOM
      1  N         22.8460  -68.5540  -71.7970 N.3     9  GLY9       -0.1210
      2  CA        22.4110  -69.8100  -71.2230 C.3     9  GLY9        0.1956
      3  C         21.8220  -69.7370  -69.8310 C.2     9  GLY9        0.2612
      4  O         21.1310  -68.7870  -69.4650 O.2     9  GLY9       -0.2717
      5  N         22.0600  -70.8200  -69.1060 N.am   10  ASP10      -0.1959
      6  CA        21.4330  -71.0850  -67.8080 C.3    10  ASP10       0.1840
      7  C         22.3460  -70.6430  -66.6750 C.2    10  ASP10       0.2621
      8  O         23.3770  -71.2390  -66.3910 O.2    10  ASP10      -0.2715
      9  CB        21.0670  -72.5630  -67.6440 C.3    10  ASP10       0.1450
     10  CG        20.3490  -72.8660  -66.3180 C.2    10  ASP10       0.3671
     11  OD1       19.9370  -71.9360  -65.5830 O.co2  10  ASP10      -0.2456
     12  OD2       20.1830  -74.0660  -66.0080 O.co2  10  ASP10      -0.2456
     13  N         21.8920  -69.5870  -66.0120 N.am   11  ILE11      -0.1977
     14  CA        22.6240  -68.9280  -64.8790 C.3    11  ILE11       0.1596
     15  C         23.0590  -69.8860  -63.7710 C.2    11  ILE11       0.2287
     16  O         24.0360  -69.6850  -63.0980 O.2    11  ILE11      -0.2864
     17  CB        21.8150  -67.7740  -64.2540 C.3    11  ILE11       0.0276
     18  CG1       22.7120  -66.9300  -63.3420 C.3    11  ILE11       0.0022
     19  CG2       20.6290  -68.3000  -63.4600 C.3    11  ILE11       0.0022
     20  CD1       22.1910  -65.5230  -63.1160 C.3    11  ILE11       0.0001
     21  N         16.4070  -63.0790  -59.4860 N.3    22  ALA22      -0.1231
     22  CA        15.2670  -62.1680  -59.7470 C.3    22  ALA22       0.1694
     23  C         14.0540  -62.6360  -58.9320 C.2    22  ALA22       0.2592
     24  O         13.2360  -63.4600  -59.3410 O.2    22  ALA22      -0.2718
     25  CB        14.9080  -62.0600  -61.2130 C.3    22  ALA22       0.0304
     26  N         13.9820  -62.0510  -57.7520 N.am   23  ALA23      -0.1966
     27  CA        13.0660  -62.4910  -56.6980 C.3    23  ALA23       0.1728
     28  C         11.8360  -61.6240  -56.5610 C.2    23  ALA23       0.2616
     29  O         11.6980  -60.5590  -57.1760 O.2    23  ALA23      -0.2715
     30  CB        13.7760  -62.5740  -55.3690 C.3    23  ALA23       0.0334
     31  N         10.9150  -62.1660  -55.7750 N.am   24  ALA24      -0.1977
     32  CA         9.7010  -61.4430  -55.2750 C.3    24  ALA24       0.1597
     33  C          9.8830  -61.1130  -53.7940 C.2    24  ALA24       0.2287
     34  O         10.7040  -61.7440  -53.1160 O.2    24  ALA24      -0.2864
     35  CB         8.4560  -62.2660  -55.4560 C.3    24  ALA24       0.0319
     36  N         10.5330  -68.5750  -53.6630 N.3    29  GLY29      -0.1210
     37  CA        10.3850  -69.4800  -54.7780 C.3    29  GLY29       0.1956
     38  C          9.4930  -68.8310  -55.8090 C.2    29  GLY29       0.2612
     39  O          8.6990  -67.9300  -55.5090 O.2    29  GLY29      -0.2717
     40  N          9.6560  -69.2510  -57.0460 N.am   30  GLY30      -0.1942
     41  CA         8.8470  -68.7020  -58.1290 C.3    30  GLY30       0.2014
     42  C          8.9160  -69.4710  -59.4180 C.2    30  GLY30       0.2639
     43  O          9.2980  -70.6340  -59.4720 O.2    30  GLY30      -0.2714
     44  N          8.5290  -68.7880  -60.4730 N.am   31  GLY31      -0.1939
     45  CA         8.4090  -69.4360  -61.7700 C.3    31  GLY31       0.2014
     46  C          9.6650  -69.3710  -62.6100 C.2    31  GLY31       0.2639
     47  O         10.0930  -70.3640  -63.2040 O.2    31  GLY31      -0.2714
     48  N         10.2850  -68.2130  -62.6370 N.am   32  GLY32      -0.1939
     49  CA        11.2630  -67.9600  -63.6680 C.3    32  GLY32       0.2014
     50  C         12.6390  -68.4750  -63.3140 C.2    32  GLY32       0.2639
     51  O         12.8770  -69.6650  -63.2760 O.2    32  GLY32      -0.2714
     52  N         13.5360  -67.5470  -63.0320 N.am   33  VAL33      -0.1963
     53  CA        14.9180  -67.8710  -62.6370 C.3    33  VAL33       0.1727
     54  C         14.8420  -68.3670  -61.2230 C.2    33  VAL33       0.2616
     55  O         15.5070  -69.2980  -60.8370 O.2    33  VAL33      -0.2715
     56  CB        15.8890  -66.6730  -62.5810 C.3    33  VAL33       0.0290
     57  CG1       17.1890  -67.0440  -63.2820 C.3    33  VAL33       0.0023
     58  CG2       15.3040  -65.4260  -63.2070 C.3    33  VAL33       0.0023
     59  N         13.9870  -67.6960  -60.4700 N.am   34  ALA34      -0.1977
     60  CA        13.7580  -68.0130  -59.0450 C.3    34  ALA34       0.1597
     61  C         13.5400  -69.5110  -58.8500 C.2    34  ALA34       0.2287
     62  O         14.1030  -70.1520  -57.9590 O.2    34  ALA34      -0.2864
     63  CB        12.5710  -67.2320  -58.5030 C.3    34  ALA34       0.0319
     64  N         14.2630  -71.9430  -61.1970 N.3    36  ALA36      -0.1245
     65  CA        15.4860  -72.6060  -61.7160 C.3    36  ALA36       0.1562
     66  C         16.5690  -72.6700  -60.6280 C.2    36  ALA36       0.2260
     67  O         17.1710  -73.7260  -60.3150 O.2    36  ALA36      -0.2867
     68  CB        16.0160  -71.8630  -62.9230 C.3    36  ALA36       0.0290
     69  N         13.2710  -56.8130  -58.3560 N.3    82  GLY82      -0.1225
     70  CA        13.0330  -55.8910  -59.4640 C.3    82  GLY82       0.1811
     71  C         11.6370  -55.2600  -59.3860 C.2    82  GLY82       0.2280
     72  O         10.7600  -55.7700  -58.7150 O.2    82  GLY82      -0.2866
     73  N         20.8980  -62.1110  -64.1220 N.3   118  PRO118     -0.2102
     74  CA        19.9130  -62.3450  -65.1410 C.3   118  PRO118      0.1504
     75  C         19.2300  -61.0590  -65.4990 C.2   118  PRO118      0.2576
     76  O         19.4910  -60.0180  -64.8980 O.2   118  PRO118     -0.2718
     77  CB        18.9180  -63.2540  -64.4450 C.3   118  PRO118      0.0282
     78  CG        18.9450  -62.7960  -63.0310 C.3   118  PRO118      0.0208
     79  CD        20.3340  -62.3050  -62.7800 C.3   118  PRO118      0.0893
     80  N         18.3760  -61.1570  -66.4970 N.am  119  ALA119     -0.1966
     81  CA        17.6720  -59.9790  -67.0190 C.3   119  ALA119      0.1728
     82  C         16.5030  -59.6610  -66.1020 C.2   119  ALA119      0.2616
     83  O         15.3340  -59.9380  -66.3800 O.2   119  ALA119     -0.2715
     84  CB        17.2190  -60.1570  -68.4540 C.3   119  ALA119      0.0334
     85  N         16.8630  -59.0070  -65.0120 N.am  120  ILE120     -0.1963
     86  CA        15.8980  -58.6450  -63.9440 C.3   120  ILE120      0.1727
     87  C         14.7240  -57.8240  -64.4750 C.2   120  ILE120      0.2617
     88  O         14.9070  -56.8710  -65.2190 O.2   120  ILE120     -0.2715
     89  CB        16.5370  -57.8790  -62.7660 C.3   120  ILE120      0.0290
     90  CG1       17.5060  -58.7870  -62.0210 C.3   120  ILE120      0.0022
     91  CG2       15.4720  -57.3970  -61.7740 C.3   120  ILE120      0.0023
     92  CD1       18.5160  -58.0160  -61.1970 C.3   120  ILE120      0.0001
     93  N         13.5440  -58.2370  -64.0280 N.am  121  SER121     -0.1936
     94  CA        12.2220  -57.5820  -64.2880 C.3   121  SER121      0.2055
     95  C         11.6150  -57.8160  -65.7000 C.2   121  SER121      0.2644
     96  O         10.4940  -57.3950  -66.0040 O.2   121  SER121     -0.2714
     97  CB        12.2960  -56.0820  -64.0110 C.3   121  SER121      0.2130
     98  OG        12.1570  -55.8340  -62.6340 O.3   121  SER121     -0.2179
     99  N         12.3790  -58.4660  -66.5660 N.am  122  THR122     -0.1936
    100  CA        12.0080  -58.6050  -68.0240 C.3   122  THR122      0.2028
    101  C         11.1430  -59.8010  -68.3410 C.2   122  THR122      0.2643
    102  O         10.6350  -59.9450  -69.4280 O.2   122  THR122     -0.2714
    103  CB        13.2260  -58.7240  -68.9540 C.3   122  THR122      0.1808
    104  OG1       13.9980  -59.8850  -68.6080 O.3   122  THR122     -0.2208
    105  CG2       14.0580  -57.4730  -68.8770 C.3   122  THR122      0.0379
    106  N         11.0060  -60.6660  -67.3690 N.am  123  GLY123     -0.1939
    107  CA        10.1290  -61.8290  -67.5120 C.3   123  GLY123      0.2014
    108  C          8.6900  -61.5420  -67.1030 C.2   123  GLY123      0.2639
    109  O          7.9730  -60.7560  -67.7230 O.2   123  GLY123     -0.2714
    110  N          8.2930  -62.1680  -66.0110 N.am  124  VAL124     -0.1963
    111  CA         6.9220  -62.0330  -65.4540 C.3   124  VAL124      0.1727
    112  C          6.6060  -60.5710  -65.1060 C.2   124  VAL124      0.2616
    113  O          5.4770  -60.1190  -65.1990 O.2   124  VAL124     -0.2715
    114  CB         6.7540  -62.8880  -64.1520 C.3   124  VAL124      0.0290
    115  CG1        5.4350  -62.6380  -63.4470 C.3   124  VAL124      0.0023
    116  CG2        6.9240  -64.3890  -64.4130 C.3   124  VAL124      0.0023
    117  N          7.6160  -59.8500  -64.6520 N.am  125  TYR125     -0.1974
    118  CA         7.4430  -58.4240  -64.2060 C.3   125  TYR125      0.1639
    119  C          7.2870  -57.4430  -65.3690 C.2   125  TYR125      0.2290
    120  O          7.0630  -56.2450  -65.1930 O.2   125  TYR125     -0.2864
    121  CB         8.5810  -58.0010  -63.2780 C.3   125  TYR125      0.0560
    122  CG         8.3540  -58.3900  -61.8280 C.ar  125  TYR125     -0.0198
    123  CD1        7.3050  -59.2310  -61.4600 C.ar  125  TYR125     -0.0009
    124  CD2        9.2140  -57.9540  -60.8250 C.ar  125  TYR125     -0.0009
    125  CE1        7.1140  -59.6040  -60.1290 C.ar  125  TYR125      0.0417
    126  CE2        9.0230  -58.3180  -59.4990 C.ar  125  TYR125      0.0417
    127  CZ         7.9680  -59.1430  -59.1550 C.ar  125  TYR125      0.1957
    128  OH         7.7760  -59.5250  -57.8480 O.3   125  TYR125     -0.2866
    129  N         12.1970  -55.2110  -72.6750 N.3   129  ARG129     -0.1245
    130  CA        13.5310  -55.8660  -72.7400 C.3   129  ARG129      0.1563
    131  C         14.6950  -54.9260  -73.0410 C.2   129  ARG129      0.2260
    132  O         15.7900  -55.0750  -72.5120 O.2   129  ARG129     -0.2867
    133  CB        13.5340  -56.9600  -73.8050 C.3   129  ARG129      0.0307
    134  CG        12.6480  -58.1420  -73.4820 C.3   129  ARG129      0.0489
    135  CD        12.3490  -58.9880  -74.7100 C.3   129  ARG129      0.2205
    136  NE        13.5360  -59.5620  -75.3280 N.pl3 129  ARG129     -0.0865
    137  CZ        14.1310  -60.7140  -74.9980 C.cat 129  ARG129      0.5346
    138  NH1       13.6750  -61.4860  -74.0200 N.pl3 129  ARG129      0.1354
    139  NH2       15.2220  -61.0920  -75.6640 N.pl3 129  ARG129      0.1354
    140  N         24.0360  -62.8730  -67.7280 N.3   156  VAL156     -0.1245
    141  CA        23.4800  -64.1350  -68.2240 C.3   156  VAL156      0.1561
    142  C         22.1580  -63.8970  -68.9170 C.2   156  VAL156      0.2260
    143  O         21.1700  -63.4470  -68.3510 O.2   156  VAL156     -0.2867
    144  CB        23.3130  -65.2150  -67.1730 C.3   156  VAL156      0.0252
    145  CG1       22.9230  -66.5330  -67.8590 C.3   156  VAL156      0.0019
    146  CG2       24.6090  -65.4010  -66.4310 C.3   156  VAL156      0.0019
    147  N         19.1120  -65.5260  -71.3690 N.3   158  TYR158     -0.1227
    148  CA        18.3830  -66.8240  -71.4870 C.3   158  TYR158      0.1736
    149  C         18.0170  -67.2100  -72.9160 C.2   158  TYR158      0.2595
    150  O         17.7630  -68.3690  -73.2300 O.2   158  TYR158     -0.2718
    151  CB        17.1210  -66.8460  -70.6330 C.3   158  TYR158      0.0548
    152  CG        16.7000  -68.2600  -70.2590 C.ar  158  TYR158     -0.0200
    153  CD1       17.6450  -69.1900  -69.8320 C.ar  158  TYR158     -0.0009
    154  CD2       15.3830  -68.6700  -70.3580 C.ar  158  TYR158     -0.0009
    155  CE1       17.2960  -70.4830  -69.5240 C.ar  158  TYR158      0.0417
    156  CE2       15.0220  -69.9730  -70.0510 C.ar  158  TYR158      0.0417
    157  CZ        15.9880  -70.8700  -69.6350 C.ar  158  TYR158      0.1957
    158  OH        15.6510  -72.1630  -69.3290 O.3   158  TYR158     -0.2866
    159  N         18.0530  -66.2180  -73.7760 N.am  159  ASP159     -0.1974
    160  CA        17.8460  -66.4000  -75.2280 C.3   159  ASP159      0.1709
    161  C         18.8520  -65.5830  -76.0520 C.2   159  ASP159      0.2293
    162  O         19.4740  -64.6460  -75.5500 O.2   159  ASP159     -0.2864
    163  CB        16.4060  -66.0810  -75.6380 C.3   159  ASP159      0.1436
    164  CG        16.0500  -64.6340  -75.4560 C.2   159  ASP159      0.3671
    165  OD1       16.9140  -63.7590  -75.6420 O.co2 159  ASP159     -0.2456
    166  OD2       14.8820  -64.3240  -75.1450 O.co2 159  ASP159     -0.2456
    167  N         18.0950  -61.5560  -76.6110 N.3   162  ASN162     -0.1240
    168  CA        18.5490  -60.7880  -75.4180 C.3   162  ASN162      0.1653
    169  C         20.0760  -60.6510  -75.3530 C.2   162  ASN162      0.2266
    170  O         20.6380  -59.5920  -75.1160 O.2   162  ASN162     -0.2867
    171  CB        18.0550  -61.4930  -74.1500 C.3   162  ASN162      0.1155
    172  CG        17.5970  -60.5470  -73.0670 C.2   162  ASN162      0.2627
    173  OD1       17.8280  -60.8020  -71.8780 O.2   162  ASN162     -0.2716
    174  ND2       16.9320  -59.4730  -73.4540 N.am  162  ASN162     -0.0877
@<TRIPOS>BOND
     1   167   168    1
     2   161   162    2
     3   161   160    1
     4   139   137    1
     5   165   164   ar
     6   163   164    1
     7   163   160    1
     8   164   166   ar
     9   168   169    1
    10   168   171    1
    11   169   170    2
    12   136   137    2
    13   136   135    1
    14   160   159    1
    15   137   138    1
    16   135   134    1
    17   171   172    1
    18   133   134    1
    19   133   130    1
    20   159   149   am
    21   174   172   am
    22   150   149    2
    23   172   173    2
    24   131   130    1
    25   131   132    2
    26   149   148    1
    27   130   129    1
    28     1     2    1
    29   148   147    1
    30   148   151    1
    31     2     3    1
    32   151   152    1
    33   154   152   ar
    34   154   156   ar
    35   152   153   ar
    36   156   157   ar
    37   153   155   ar
    38     3     4    2
    39     3     5   am
    40   157   155   ar
    41   157   158    1
    42   102   101    2
    43     5     6    1
    44   103   105    1
    45   103   104    1
    46   103   100    1
    47   142   143    2
    48   142   141    1
    49    84    81    1
    50   101   100    1
    51   101   106   am
    52   141   140    1
    53   141   144    1
    54   100    99    1
    55   145   144    1
    56     6     9    1
    57     6     7    1
    58   109   108    2
    59     9    10    1
    60   107   106    1
    61   107   108    1
    62   144   146    1
    63   108   110   am
    64    81    80    1
    65    81    82    1
    66     7     8    2
    67     7    13   am
    68    99    95   am
    69    80    75   am
    70    83    82    2
    71    10    12   ar
    72    10    11   ar
    73    82    85   am
    74    13    14    1
    75   110   111    1
    76    96    95    2
    77    95    94    1
    78    75    74    1
    79    75    76    2
    80   111   112    1
    81   111   114    1
    82   119   120    2
    83   119   118    1
    84    88    87    2
    85   113   112    2
    86    74    77    1
    87    74    73    1
    88   112   117   am
    89    85    86    1
    90    14    17    1
    91    14    15    1
    92   117   118    1
    93    87    93   am
    94    87    86    1
    95    77    78    1
    96   116   114    1
    97    94    93    1
    98    94    97    1
    99    17    19    1
   100    17    18    1
   101   118   121    1
   102   114   115    1
   103    73    79    1
   104    97    98    1
   105    86    89    1
   106    15    16    2
   107    49    50    1
   108    49    48    1
   109    18    20    1
   110    50    51    2
   111    50    52   am
   112    57    56    1
   113   121   122    1
   114    58    56    1
   115    47    46    2
   116    52    53    1
   117    78    79    1
   118    68    65    1
   119    89    90    1
   120    89    91    1
   121    48    46   am
   122    53    56    1
   123    53    54    1
   124    46    45    1
   125    90    92    1
   126   122   123   ar
   127   122   124   ar
   128    45    44    1
   129    65    64    1
   130    65    66    1
   131   123   125   ar
   132    54    55    2
   133    54    59   am
   134    25    22    1
   135   124   126   ar
   136    66    67    2
   137    44    42   am
   138    59    60    1
   139   125   127   ar
   140    22    21    1
   141    22    23    1
   142   126   127   ar
   143    43    42    2
   144    70    71    1
   145    70    69    1
   146    42    41    1
   147    71    72    2
   148    24    23    2
   149   127   128    1
   150    60    61    1
   151    60    63    1
   152    23    26   am
   153    61    62    2
   154    41    40    1
   155    26    27    1
   156    29    28    2
   157    40    38   am
   158    27    28    1
   159    27    30    1
   160    28    31   am
   161    38    39    2
   162    38    37    1
   163    31    32    1
   164    35    32    1
   165    32    33    1
   166    37    36    1
   167    33    34    2
