@<TRIPOS>MOLECULE
tmp/5cb6C01.pdb
 145 136 0 0 0
SMALL
GASTEIGER

@<TRIPOS>ATOM
      1  N        -70.3650  -14.3990   22.2200 N.3    11  SER11      -0.1202
      2  CA       -68.9070  -14.3620   22.1600 C.3    11  SER11       0.2020
      3  C        -68.3780  -14.9050   23.4570 C.2    11  SER11       0.2619
      4  O        -68.7900  -14.4720   24.5280 O.2    11  SER11      -0.2717
      5  CB       -68.3810  -12.9380   21.9140 C.3    11  SER11       0.2103
      6  OG       -66.9570  -12.8790   21.9100 O.3    11  SER11      -0.2182
      7  N        -67.4980  -15.8880   23.3550 N.am   12  GLY12      -0.1942
      8  CA       -66.8540  -16.4320   24.5280 C.3    12  GLY12       0.2014
      9  C        -67.6490  -17.4820   25.2800 C.2    12  GLY12       0.2639
     10  O        -67.2020  -17.9500   26.3270 O.2    12  GLY12      -0.2714
     11  N        -68.8160  -17.8630   24.7610 N.am   13  ALA13      -0.1963
     12  CA       -69.6160  -18.8900   25.4130 C.3    13  ALA13       0.1728
     13  C        -68.9480  -20.2550   25.2640 C.2    13  ALA13       0.2617
     14  O        -69.1920  -21.1520   26.0630 O.2    13  ALA13      -0.2715
     15  CB       -71.0210  -18.9100   24.8600 C.3    13  ALA13       0.0334
     16  N        -68.0900  -20.3940   24.2530 N.am   14  GLY14      -0.1940
     17  CA       -67.2750  -21.5870   24.0770 C.3    14  GLY14       0.2014
     18  C        -67.5700  -22.3680   22.8070 C.2    14  GLY14       0.2639
     19  O        -67.4340  -23.5830   22.7880 O.2    14  GLY14      -0.2714
     20  N        -67.9700  -21.6720   21.7430 N.am   15  LYS15      -0.1963
     21  CA       -68.3460  -22.3300   20.5000 C.3    15  LYS15       0.1728
     22  C        -67.1700  -23.0480   19.8600 C.2    15  LYS15       0.2617
     23  O        -67.2320  -24.2450   19.5700 O.2    15  LYS15      -0.2715
     24  CB       -68.9430  -21.3070   19.5260 C.3    15  LYS15       0.0311
     25  CG       -70.1770  -20.6100   20.1030 C.3    15  LYS15       0.0038
     26  CD       -70.7720  -19.6090   19.1470 C.3    15  LYS15       0.0206
     27  CE       -69.9350  -18.3430   19.1080 C.3    15  LYS15       0.1093
     28  NZ       -70.5290  -17.2120   19.8540 N.3    15  LYS15      -0.1314
     29  N        -66.0980  -22.2990   19.6450 N.am   16  THR16      -0.1937
     30  CA       -64.9260  -22.7990   18.9640 C.3    16  THR16       0.2028
     31  C        -64.3030  -23.9250   19.7650 C.2    16  THR16       0.2643
     32  O        -63.7780  -24.8730   19.1960 O.2    16  THR16      -0.2714
     33  CB       -63.8850  -21.6820   18.7480 C.3    16  THR16       0.1808
     34  OG1      -64.5420  -20.4210   18.5230 O.3    16  THR16      -0.2208
     35  CG2      -63.0100  -22.0070   17.5660 C.3    16  THR16       0.0379
     36  N        -64.3610  -23.8290   21.0920 N.am   17  THR17      -0.1936
     37  CA       -63.6300  -24.7770   21.9370 C.3    17  THR17       0.2028
     38  C        -64.2650  -26.1540   21.8970 C.2    17  THR17       0.2642
     39  O        -63.5790  -27.1730   21.7710 O.2    17  THR17      -0.2714
     40  CB       -63.5580  -24.3200   23.4000 C.3    17  THR17       0.1808
     41  OG1      -63.3500  -22.9060   23.4550 O.3    17  THR17      -0.2208
     42  CG2      -62.4150  -25.0190   24.1030 C.3    17  THR17       0.0379
     43  N        -65.5840  -26.1650   22.0310 N.am   18  ILE18      -0.1977
     44  CA       -66.3840  -27.3410   21.7520 C.3    18  ILE18       0.1596
     45  C        -66.1200  -27.8800   20.3500 C.2    18  ILE18       0.2287
     46  O        -65.9950  -29.0850   20.1610 O.2    18  ILE18      -0.2864
     47  CB       -67.8680  -27.0290   21.8960 C.3    18  ILE18       0.0276
     48  CG1      -68.1640  -26.5740   23.3220 C.3    18  ILE18       0.0022
     49  CG2      -68.6980  -28.2360   21.5630 C.3    18  ILE18       0.0022
     50  CD1      -69.5990  -26.1460   23.5300 C.3    18  ILE18       0.0001
     51  N        -65.6680  -21.9020   11.3330 N.3    37  ASP37      -0.1239
     52  CA       -65.7600  -21.0020   12.4960 C.3    37  ASP37       0.1674
     53  C        -65.9790  -19.5920   12.0020 C.2    37  ASP37       0.2266
     54  O        -65.3190  -19.1690   11.0550 O.2    37  ASP37      -0.2867
     55  CB       -64.5020  -21.0620   13.3690 C.3    37  ASP37       0.1410
     56  CG       -64.7040  -20.4080   14.7440 C.2    37  ASP37       0.3668
     57  OD1      -65.6700  -20.7590   15.4590 O.co2  37  ASP37      -0.2456
     58  OD2      -63.8930  -19.5330   15.1230 O.co2  37  ASP37      -0.2456
     59  N        -65.1910  -16.7540   13.1000 N.3    39  ASP39      -0.1239
     60  CA       -63.9720  -15.9580   13.1760 C.3    39  ASP39       0.1674
     61  C        -63.0240  -16.2160   12.0210 C.2    39  ASP39       0.2266
     62  O        -62.5360  -15.2840   11.4030 O.2    39  ASP39      -0.2867
     63  CB       -63.2590  -16.2250   14.5030 C.3    39  ASP39       0.1410
     64  CG       -63.7860  -15.3530   15.6310 C.2    39  ASP39       0.3668
     65  OD1      -63.3000  -14.2030   15.7710 O.co2  39  ASP39      -0.2456
     66  OD2      -64.6860  -15.8200   16.3690 O.co2  39  ASP39      -0.2456
     67  N        -70.6220  -19.9900   15.1970 N.3    81  ALA81      -0.1231
     68  CA       -70.9090  -18.6070   14.8410 C.3    81  ALA81       0.1694
     69  C        -71.9970  -18.1050   15.7590 C.2    81  ALA81       0.2591
     70  O        -72.8960  -18.8560   16.1130 O.2    81  ALA81      -0.2718
     71  CB       -71.3520  -18.4880   13.3840 C.3    81  ALA81       0.0304
     72  N        -71.9270  -16.8360   16.1320 N.am   82  ILE82      -0.1980
     73  CA       -72.8980  -16.2860   17.0510 C.3    82  ILE82       0.1595
     74  C        -74.3420  -16.5500   16.5610 C.2    82  ILE82       0.2287
     75  O        -75.1390  -17.1150   17.3160 O.2    82  ILE82      -0.2864
     76  CB       -72.6450  -14.7910   17.2700 C.3    82  ILE82       0.0276
     77  CG1      -71.2650  -14.5820   17.8970 C.3    82  ILE82       0.0022
     78  CG2      -73.7180  -14.1870   18.1470 C.3    82  ILE82       0.0022
     79  CD1      -70.9900  -13.1190   18.2590 C.3    82  ILE82       0.0001
     80  N        -64.7310  -14.3980   31.5400 N.3   114  ARG114     -0.1245
     81  CA       -63.7200  -15.0960   30.7470 C.3   114  ARG114      0.1563
     82  C        -63.0620  -14.0710   29.8450 C.2   114  ARG114      0.2260
     83  O        -61.8350  -13.9410   29.8580 O.2   114  ARG114     -0.2867
     84  CB       -64.3390  -16.2430   29.9390 C.3   114  ARG114      0.0307
     85  CG       -65.2870  -17.0700   30.7750 C.3   114  ARG114      0.0489
     86  CD       -66.3440  -17.7600   29.9640 C.3   114  ARG114      0.2205
     87  NE       -65.9010  -19.0420   29.4570 N.pl3 114  ARG114     -0.0865
     88  CZ       -66.6060  -20.1600   29.5620 C.cat 114  ARG114      0.5346
     89  NH1      -67.7880  -20.1610   30.1620 N.pl3 114  ARG114      0.1354
     90  NH2      -66.1240  -21.2820   29.0750 N.pl3 114  ARG114      0.1354
     91  N        -62.3320  -13.7150   26.7070 N.3   116  VAL116     -0.1231
     92  CA       -61.1640  -14.3530   26.1020 C.3   116  VAL116      0.1692
     93  C        -60.3260  -13.3950   25.2460 C.2   116  VAL116      0.2591
     94  O        -59.0900  -13.4460   25.2660 O.2   116  VAL116     -0.2718
     95  CB       -61.5680  -15.5700   25.2390 C.3   116  VAL116      0.0266
     96  CG1      -60.3450  -16.4450   24.9600 C.3   116  VAL116      0.0020
     97  CG2      -62.6750  -16.3720   25.9310 C.3   116  VAL116      0.0020
     98  N        -60.9790  -12.5060   24.5070 N.am  117  LYS117     -0.1980
     99  CA       -60.2150  -11.6490   23.6180 C.3   117  LYS117      0.1596
    100  C        -60.1710  -10.2090   24.1280 C.2   117  LYS117      0.2287
    101  O        -59.5140   -9.3510   23.5400 O.2   117  LYS117     -0.2864
    102  CB       -60.7690  -11.7330   22.1870 C.3   117  LYS117      0.0298
    103  CG       -61.3780  -13.1020   21.8530 C.3   117  LYS117      0.0038
    104  CD       -60.8680  -13.6490   20.5350 C.3   117  LYS117      0.0206
    105  CE       -61.5580  -14.9600   20.1470 C.3   117  LYS117      0.1093
    106  NZ       -62.7760  -14.7350   19.2980 N.3   117  LYS117     -0.1314
    107  N        -72.0880  -24.1490   29.3030 N.3   150  THR150     -0.1218
    108  CA       -70.6490  -24.3410   29.4790 C.3   150  THR150      0.1862
    109  C        -70.1020  -23.8330   30.8250 C.2   150  THR150      0.2287
    110  O        -69.1070  -24.3500   31.3420 O.2   150  THR150     -0.2866
    111  CB       -69.8910  -23.6620   28.3550 C.3   150  THR150      0.1770
    112  OG1      -70.2200  -22.2700   28.3500 O.3   150  THR150     -0.2211
    113  CG2      -70.2820  -24.2830   27.0290 C.3   150  THR150      0.0375
    114  N        -70.5230  -26.8250   32.9890 N.3   153  GLU153     -0.1231
    115  CA       -70.0240  -28.0630   32.4230 C.3   153  GLU153      0.1699
    116  C        -68.5710  -27.9720   32.0420 C.2   153  GLU153      0.2592
    117  O        -68.0340  -26.8930   31.8120 O.2   153  GLU153     -0.2718
    118  CB       -70.8530  -28.4510   31.1930 C.3   153  GLU153      0.0402
    119  CG       -72.2820  -28.8560   31.5120 C.3   153  GLU153      0.1161
    120  CD       -73.2260  -28.6440   30.3470 C.2   153  GLU153      0.3649
    121  OE1      -72.7980  -28.8000   29.1810 O.co2 153  GLU153     -0.2457
    122  OE2      -74.4010  -28.3100   30.6040 O.co2 153  GLU153     -0.2457
    123  N        -67.9410  -29.1320   31.9770 N.am  154  GLU154     -0.1966
    124  CA       -66.6080  -29.2380   31.4410 C.3   154  GLU154      0.1733
    125  C        -66.7090  -29.6340   29.9750 C.2   154  GLU154      0.2616
    126  O        -67.6360  -30.3410   29.5650 O.2   154  GLU154     -0.2715
    127  CB       -65.7820  -30.2410   32.2540 C.3   154  GLU154      0.0429
    128  CG       -65.2840  -29.6610   33.5670 C.3   154  GLU154      0.1163
    129  CD       -63.9180  -30.1760   33.9580 C.2   154  GLU154      0.3649
    130  OE1      -63.6360  -31.3740   33.7220 O.co2 154  GLU154     -0.2457
    131  OE2      -63.1160  -29.3670   34.4770 O.co2 154  GLU154     -0.2457
    132  N        -65.7520  -29.1360   29.1990 N.am  155  LEU155     -0.1977
    133  CA       -65.6870  -29.3340   27.7600 C.3   155  LEU155      0.1596
    134  C        -66.0620  -30.7620   27.3500 C.2   155  LEU155      0.2287
    135  O        -67.0540  -30.9730   26.6620 O.2   155  LEU155     -0.2864
    136  CB       -64.2820  -28.9720   27.2830 C.3   155  LEU155      0.0297
    137  CG       -63.8150  -29.2120   25.8550 C.3   155  LEU155      0.0022
    138  CD1      -64.3550  -28.1210   24.9500 C.3   155  LEU155      0.0001
    139  CD2      -62.2940  -29.2260   25.8230 C.3   155  LEU155      0.0001
    140  N        -69.5980  -31.3210   27.8370 N.3   158  SER158     -0.1217
    141  CA       -70.3790  -30.5680   26.8600 C.3   158  SER158      0.1889
    142  C        -70.3150  -31.2220   25.4780 C.2   158  SER158      0.2288
    143  O        -71.3030  -31.2580   24.7420 O.2   158  SER158     -0.2866
    144  CB       -69.8780  -29.1180   26.7760 C.3   158  SER158      0.2089
    145  OG       -70.4920  -28.2850   27.7440 O.3   158  SER158     -0.2183
@<TRIPOS>BOND
     1    54    53    2
     2    51    52    1
     3    62    61    2
     4    53    52    1
     5    61    60    1
     6    52    55    1
     7    59    60    1
     8    60    63    1
     9    55    56    1
    10    71    68    1
    11    63    64    1
    12    56    58   ar
    13    56    57   ar
    14    68    67    1
    15    68    69    1
    16    64    65   ar
    17    64    66   ar
    18    69    70    2
    19    69    72   am
    20    72    73    1
    21    74    73    1
    22    74    75    2
    23    73    76    1
    24    76    77    1
    25    76    78    1
    26    35    33    1
    27    77    79    1
    28    34    33    1
    29    33    30    1
    30    30    29    1
    31    30    31    1
    32    27    26    1
    33    27    28    1
    34    26    25    1
    35    32    31    2
    36   106   105    1
    37    24    25    1
    38    24    21    1
    39    23    22    2
    40    29    22   am
    41    31    36   am
    42    22    21    1
    43   105   104    1
    44    46    45    2
    45    45    44    1
    46    21    20    1
    47   104   103    1
    48    36    37    1
    49    49    47    1
    50    20    18   am
    51    44    47    1
    52    44    43    1
    53    39    38    2
    54   103   102    1
    55    47    48    1
    56    38    37    1
    57    38    43   am
    58     6     5    1
    59     5     2    1
    60    37    40    1
    61     2     1    1
    62     2     3    1
    63   102    99    1
    64    19    18    2
    65    18    17    1
    66    48    50    1
    67     7     3   am
    68     7     8    1
    69    40    41    1
    70    40    42    1
    71     3     4    2
    72   101   100    2
    73    99   100    1
    74    99    98    1
    75    17    16    1
    76    16    13   am
    77    98    93   am
    78     8     9    1
    79   143   142    2
    80    11     9   am
    81    11    12    1
    82    15    12    1
    83   138   137    1
    84    96    95    1
    85    95    97    1
    86    95    92    1
    87    93    94    2
    88    93    92    1
    89    13    12    1
    90    13    14    2
    91     9    10    2
    92   142   141    1
    93   139   137    1
    94   137   136    1
    95    92    91    1
    96   135   134    2
    97   144   141    1
    98   144   145    1
    99   141   140    1
   100   113   111    1
   101   136   133    1
   102   134   133    1
   103   133   132    1
   104   112   111    1
   105   111   108    1
   106    90    88    1
   107   121   120   ar
   108   132   125   am
   109   107   108    1
   110    87    88    2
   111    87    86    1
   112   108   109    1
   113    88    89    1
   114   126   125    2
   115    82    83    2
   116    82    81    1
   117    84    81    1
   118    84    85    1
   119    86    85    1
   120   125   124    1
   121   120   122   ar
   122   120   119    1
   123    81    80    1
   124   109   110    2
   125   118   119    1
   126   118   115    1
   127   124   123    1
   128   124   127    1
   129   117   116    2
   130   123   116   am
   131   116   115    1
   132   127   128    1
   133   115   114    1
   134   128   129    1
   135   130   129   ar
   136   129   131   ar
