@<TRIPOS>MOLECULE
tmp/5cb8B00.pdb
 158 150 0 0 0
SMALL
GASTEIGER

@<TRIPOS>ATOM
      1  N         58.1800   52.1800   32.8280 N.3    13  SER13      -0.1217
      2  CA        57.3050   53.0040   31.9890 C.3    13  SER13       0.1889
      3  C         57.8650   54.4150   31.9410 C.2    13  SER13       0.2288
      4  O         58.1260   55.0190   32.9890 O.2    13  SER13      -0.2866
      5  CB        55.8840   53.0440   32.5510 C.3    13  SER13       0.2089
      6  OG        55.1260   54.1020   31.9610 O.3    13  SER13      -0.2183
      7  N         62.0470   53.6030   26.1950 N.3    17  LYS17      -0.1245
      8  CA        62.2160   52.3870   25.3840 C.3    17  LYS17       0.1561
      9  C         61.6840   52.5610   23.9550 C.2    17  LYS17       0.2260
     10  O         62.3570   52.2240   22.9850 O.2    17  LYS17      -0.2867
     11  CB        61.5200   51.1880   26.0380 C.3    17  LYS17       0.0271
     12  CG        62.0320   50.7980   27.4290 C.3    17  LYS17       0.0035
     13  CD        61.3310   49.5250   27.9140 C.3    17  LYS17       0.0206
     14  CE        59.8140   49.7310   28.0030 C.3    17  LYS17       0.1093
     15  NZ        59.4420   50.6990   29.0820 N.3    17  LYS17      -0.1314
     16  N         55.3320   46.3450   23.3730 N.3    40  GLY40      -0.1210
     17  CA        54.3230   45.9250   24.3370 C.3    40  GLY40       0.1956
     18  C         53.0130   46.7000   24.2770 C.2    40  GLY40       0.2611
     19  O         51.9270   46.0980   24.3350 O.2    40  GLY40      -0.2717
     20  N         53.1070   48.0270   24.1740 N.am   41  ASP41      -0.1973
     21  CA        51.9150   48.8750   24.1060 C.3    41  ASP41       0.1709
     22  C         51.0700   48.5170   22.8930 C.2    41  ASP41       0.2293
     23  O         49.8420   48.5920   22.9300 O.2    41  ASP41      -0.2864
     24  CB        52.2870   50.3490   23.9620 C.3    41  ASP41       0.1436
     25  CG        53.1220   50.8810   25.1140 C.2    41  ASP41       0.3671
     26  OD1       53.2350   50.2070   26.1610 O.co2  41  ASP41      -0.2456
     27  OD2       53.6640   52.0030   24.9550 O.co2  41  ASP41      -0.2456
     28  N         49.7720   44.5670   22.8640 N.3    44  ARG44      -0.1245
     29  CA        48.6580   44.3970   23.8090 C.3    44  ARG44       0.1563
     30  C         47.3070   44.7950   23.2090 C.2    44  ARG44       0.2260
     31  O         46.2580   44.5960   23.8290 O.2    44  ARG44      -0.2867
     32  CB        48.9070   45.1470   25.1250 C.3    44  ARG44       0.0307
     33  CG        49.7900   44.3730   26.1140 C.3    44  ARG44       0.0489
     34  CD        50.0900   45.2170   27.3630 C.3    44  ARG44       0.2205
     35  NE        50.7950   44.4480   28.3920 N.pl3  44  ARG44      -0.0865
     36  CZ        50.1800   43.7120   29.3180 C.cat  44  ARG44       0.5346
     37  NH1       48.8480   43.6300   29.3380 N.pl3  44  ARG44       0.1354
     38  NH2       50.8900   43.0410   30.2140 N.pl3  44  ARG44       0.1354
     39  N         47.6910   43.1670   34.0160 N.3    53  PHE53      -0.1241
     40  CA        49.0200   43.4060   34.5780 C.3    53  PHE53       0.1605
     41  C         49.2810   42.6540   35.8760 C.2    53  PHE53       0.2264
     42  O         50.2150   42.9750   36.6120 O.2    53  PHE53      -0.2867
     43  CB        49.2480   44.9100   34.7390 C.3    53  PHE53       0.0534
     44  CG        49.2480   45.6320   33.4290 C.ar   53  PHE53      -0.0203
     45  CD1       50.4170   45.7490   32.6970 C.ar   53  PHE53      -0.0042
     46  CD2       48.0630   46.1080   32.8850 C.ar   53  PHE53      -0.0042
     47  CE1       50.4230   46.3730   31.4750 C.ar   53  PHE53      -0.0003
     48  CE2       48.0560   46.7320   31.6590 C.ar   53  PHE53      -0.0003
     49  CZ        49.2320   46.8710   30.9540 C.ar   53  PHE53      -0.0000
     50  N         51.4260   39.3040   33.0340 N.3    58  ARG58      -0.1245
     51  CA        52.6960   39.8250   32.5240 C.3    58  ARG58       0.1563
     52  C         53.6000   38.6810   32.0710 C.2    58  ARG58       0.2260
     53  O         54.3310   38.8110   31.0750 O.2    58  ARG58      -0.2867
     54  CB        53.4200   40.6770   33.5760 C.3    58  ARG58       0.0307
     55  CG        52.7040   41.9760   33.9560 C.3    58  ARG58       0.0489
     56  CD        53.5610   42.7300   34.9580 C.3    58  ARG58       0.2205
     57  NE        52.8720   43.8040   35.6750 N.pl3  58  ARG58      -0.0865
     58  CZ        53.0530   45.1040   35.4550 C.cat  58  ARG58       0.5346
     59  NH1       53.8630   45.5210   34.4860 N.pl3  58  ARG58       0.1354
     60  NH2       52.4040   45.9930   36.2000 N.pl3  58  ARG58       0.1354
     61  N         52.1920   37.5100   28.8060 N.3    61  ASN61      -0.1225
     62  CA        52.4850   38.5230   27.7950 C.3    61  ASN61       0.1785
     63  C         53.9100   38.3920   27.2700 C.2    61  ASN61       0.2597
     64  O         54.1420   38.2720   26.0600 O.2    61  ASN61      -0.2718
     65  CB        52.2370   39.9180   28.3850 C.3    61  ASN61       0.1169
     66  CG        52.4920   41.0410   27.3820 C.2    61  ASN61       0.2627
     67  OD1       51.9020   41.0730   26.2940 O.2    61  ASN61      -0.2716
     68  ND2       53.3510   41.9850   27.7560 N.am   61  ASN61      -0.0877
     69  N         54.8690   38.3880   28.1850 N.am   62  ILE62      -0.1980
     70  CA        56.2700   38.3200   27.8000 C.3    62  ILE62       0.1595
     71  C         56.6070   36.9910   27.1240 C.2    62  ILE62       0.2287
     72  O         57.3330   36.9620   26.1250 O.2    62  ILE62      -0.2864
     73  CB        57.1850   38.5710   29.0040 C.3    62  ILE62       0.0276
     74  CG1       56.9520   39.9920   29.5330 C.3    62  ILE62       0.0022
     75  CG2       58.6440   38.3670   28.6230 C.3    62  ILE62       0.0022
     76  CD1       57.0410   41.0830   28.4580 C.3    62  ILE62       0.0001
     77  N         59.3260   46.2140   25.9000 N.3    83  ALA83      -0.1231
     78  CA        58.3400   45.7860   26.8860 C.3    83  ALA83       0.1694
     79  C         58.9150   45.9920   28.2710 C.2    83  ALA83       0.2592
     80  O         60.1040   45.7730   28.4820 O.2    83  ALA83      -0.2718
     81  CB        57.9760   44.3120   26.6760 C.3    83  ALA83       0.0304
     82  N         58.0780   46.4140   29.2150 N.am   84  ILE84      -0.1966
     83  CA        58.5670   46.6230   30.5710 C.3    84  ILE84       0.1727
     84  C         59.2850   45.3670   31.0400 C.2    84  ILE84       0.2617
     85  O         60.4020   45.4650   31.5420 O.2    84  ILE84      -0.2715
     86  CB        57.4500   47.0000   31.5570 C.3    84  ILE84       0.0290
     87  CG1       56.9680   48.4290   31.2970 C.3    84  ILE84       0.0022
     88  CG2       57.9540   46.9020   32.9980 C.3    84  ILE84       0.0023
     89  CD1       55.8080   48.8310   32.2150 C.3    84  ILE84       0.0001
     90  N         58.6730   44.2000   30.8040 N.am   85  SER85      -0.1936
     91  CA        59.2580   42.9040   31.1780 C.3    85  SER85       0.2040
     92  C         59.9920   42.9480   32.5170 C.2    85  SER85       0.2485
     93  O         61.2150   42.7700   32.5770 O.2    85  SER85      -0.2729
     94  CB        60.1890   42.3790   30.0770 C.3    85  SER85       0.2129
     95  OG        61.0750   43.3820   29.5970 O.3    85  SER85      -0.2179
     96  N         59.2350   43.1720   33.6030 N.am   86  PRO86      -0.2726
     97  CA        59.8100   43.5180   34.9060 C.3    86  PRO86       0.1402
     98  C         60.3940   42.3280   35.6550 C.2    86  PRO86       0.2269
     99  O         61.0990   42.5480   36.6360 O.2    86  PRO86      -0.2865
    100  CB        58.6110   44.0780   35.6720 C.3    86  PRO86       0.0296
    101  CG        57.4330   43.3280   35.0990 C.3    86  PRO86       0.0237
    102  CD        57.7590   43.1510   33.6310 C.3    86  PRO86       0.0939
    103  N         52.2190   59.5610   30.1300 N.3   119  LYS119     -0.1245
    104  CA        50.8410   59.1360   29.8790 C.3   119  LYS119      0.1561
    105  C         49.9480   59.3130   31.1000 C.2   119  LYS119      0.2260
    106  O         48.8130   58.8380   31.1110 O.2   119  LYS119     -0.2867
    107  CB        50.8140   57.6690   29.4390 C.3   119  LYS119      0.0271
    108  CG        51.6320   57.3880   28.1790 C.3   119  LYS119      0.0035
    109  CD        51.5410   55.9200   27.7990 C.3   119  LYS119      0.0206
    110  CE        52.5440   55.5680   26.7110 C.3   119  LYS119      0.1093
    111  NZ        52.5720   54.0940   26.4920 N.3   119  LYS119     -0.1314
    112  N         50.2620   57.9890   33.9780 N.3   121  LEU121     -0.1245
    113  CA        50.0730   56.7360   34.7050 C.3   121  LEU121      0.1561
    114  C         50.6390   56.7480   36.1220 C.2   121  LEU121      0.2260
    115  O         50.0810   56.1100   37.0190 O.2   121  LEU121     -0.2867
    116  CB        50.6650   55.5670   33.9190 C.3   121  LEU121      0.0270
    117  CG        50.0720   55.3570   32.5290 C.3   121  LEU121      0.0019
    118  CD1       50.9250   54.3600   31.7340 C.3   121  LEU121      0.0001
    119  CD2       48.6440   54.8740   32.6530 C.3   121  LEU121      0.0001
    120  N         44.9480   53.3540   39.5710 N.3   130  ILE130     -0.1231
    121  CA        45.4980   52.1460   38.9570 C.3   130  ILE130      0.1692
    122  C         46.2300   51.3280   40.0230 C.2   130  ILE130      0.2592
    123  O         46.9860   51.9020   40.8050 O.2   130  ILE130     -0.2718
    124  CB        46.5220   52.5220   37.8530 C.3   130  ILE130      0.0266
    125  CG1       45.8100   53.1160   36.6320 C.3   130  ILE130      0.0019
    126  CG2       47.3710   51.3220   37.4540 C.3   130  ILE130      0.0020
    127  CD1       46.7650   53.6310   35.5540 C.3   130  ILE130      0.0001
    128  N         46.0390   50.0100   40.0470 N.am  131  LYS131     -0.1966
    129  CA        46.7240   49.1560   41.0230 C.3   131  LYS131      0.1728
    130  C         47.8390   48.3910   40.3330 C.2   131  LYS131      0.2617
    131  O         47.7380   48.1040   39.1440 O.2   131  LYS131     -0.2715
    132  CB        45.7550   48.1170   41.5920 C.3   131  LYS131      0.0311
    133  CG        44.3820   48.6520   41.9510 C.3   131  LYS131      0.0038
    134  CD        44.4590   49.5690   43.1490 C.3   131  LYS131      0.0206
    135  CE        43.0660   50.0470   43.5530 C.3   131  LYS131      0.1093
    136  NZ        43.1970   51.1070   44.5750 N.3   131  LYS131     -0.1314
    137  N         48.8970   48.0500   41.0640 N.am  132  GLY132     -0.1940
    138  CA        49.9320   47.1910   40.5010 C.3   132  GLY132      0.2014
    139  C         50.6980   47.8170   39.3550 C.2   132  GLY132      0.2639
    140  O         50.9670   47.1650   38.3430 O.2   132  GLY132     -0.2714
    141  N         51.0610   49.0830   39.5210 N.am  133  PHE133     -0.1959
    142  CA        51.8510   49.7810   38.5180 C.3   133  PHE133      0.1771
    143  C         53.3370   49.6140   38.7830 C.2   133  PHE133      0.2620
    144  O         53.8230   49.8970   39.8780 O.2   133  PHE133     -0.2715
    145  CB        51.4920   51.2650   38.4800 C.3   133  PHE133      0.0574
    146  CG        52.0740   51.9900   37.2980 C.ar  133  PHE133     -0.0200
    147  CD1       51.5300   51.8170   36.0290 C.ar  133  PHE133     -0.0042
    148  CD2       53.1580   52.8430   37.4570 C.ar  133  PHE133     -0.0042
    149  CE1       52.0660   52.4750   34.9320 C.ar  133  PHE133     -0.0003
    150  CE2       53.7030   53.5060   36.3630 C.ar  133  PHE133     -0.0003
    151  CZ        53.1590   53.3180   35.1020 C.ar  133  PHE133     -0.0000
    152  N         54.0500   49.1460   37.7630 N.am  134  THR134     -0.1951
    153  CA        55.4790   48.8670   37.8520 C.3   134  THR134      0.1897
    154  C         56.2670   50.0100   38.4720 C.2   134  THR134      0.2313
    155  O         56.1740   51.1630   38.0190 O.2   134  THR134     -0.2863
    156  CB        56.0340   48.6110   36.4480 C.3   134  THR134      0.1794
    157  OG1       55.2930   47.5320   35.8490 O.3   134  THR134     -0.2208
    158  CG2       57.5210   48.2630   36.5070 C.3   134  THR134      0.0378
@<TRIPOS>BOND
     1    28    29    1
     2    22    23    2
     3    22    21    1
     4    10     9    2
     5    30    29    1
     6    30    31    2
     7    16    17    1
     8    29    32    1
     9     9     8    1
    10    24    21    1
    11    24    25    1
    12    21    20    1
    13    20    18   am
    14    18    19    2
    15    18    17    1
    16    27    25   ar
    17    25    26   ar
    18    32    33    1
    19     8    11    1
    20     8     7    1
    21    77    78    1
    22    11    12    1
    23    64    63    2
    24    33    34    1
    25    72    71    2
    26    67    66    2
    27   111   110    1
    28    81    78    1
    29   110   109    1
    30    78    79    1
    31    71    70    1
    32    63    62    1
    33    63    69   am
    34    34    35    1
    35    66    68   am
    36    66    65    1
    37    12    13    1
    38    62    65    1
    39    62    61    1
    40   109   108    1
    41    70    69    1
    42    70    73    1
    43    13    14    1
    44    14    15    1
    45   108   107    1
    46    79    80    2
    47    79    82   am
    48    35    36    2
    49    76    74    1
    50    75    73    1
    51    73    74    1
    52    82    83    1
    53    36    37    1
    54    36    38    1
    55   107   104    1
    56    95    94    1
    57   104   103    1
    58   104   105    1
    59    94    91    1
    60    83    84    1
    61    83    86    1
    62    90    84   am
    63    90    91    1
    64    49    47   ar
    65    49    48   ar
    66    84    85    2
    67    53    52    2
    68   105   106    2
    69    91    92    1
    70    87    86    1
    71    87    89    1
    72    47    45   ar
    73    86    88    1
    74    48    46   ar
    75   118   117    1
    76     3     2    1
    77     3     4    2
    78     6     5    1
    79     2     5    1
    80     2     1    1
    81    52    51    1
    82    92    93    2
    83    92    96   am
    84    51    50    1
    85    51    54    1
    86   117   119    1
    87   117   116    1
    88    45    44   ar
    89    46    44   ar
    90    44    43    1
    91    54    55    1
    92    96   102    1
    93    96    97    1
    94   102   101    1
    95   116   113    1
    96    55    56    1
    97   112   113    1
    98    39    40    1
    99    59    58    1
   100    40    43    1
   101    40    41    1
   102   113   114    1
   103    97    98    1
   104    97   100    1
   105   149   151   ar
   106   149   147   ar
   107    56    57    1
   108   101   100    1
   109   151   150   ar
   110    58    57    2
   111    58    60    1
   112   127   125    1
   113    98    99    2
   114   157   156    1
   115    41    42    2
   116   147   146   ar
   117   114   115    2
   118   150   148   ar
   119   156   158    1
   120   156   153    1
   121   125   124    1
   122   146   148   ar
   123   146   145    1
   124   126   124    1
   125   152   153    1
   126   152   143   am
   127   153   154    1
   128   124   121    1
   129   155   154    2
   130   140   139    2
   131   145   142    1
   132   142   143    1
   133   142   141    1
   134   143   144    2
   135   121   120    1
   136   121   122    1
   137   131   130    2
   138   139   141   am
   139   139   138    1
   140   122   128   am
   141   122   123    2
   142   128   129    1
   143   130   129    1
   144   130   137   am
   145   138   137    1
   146   129   132    1
   147   132   133    1
   148   133   134    1
   149   134   135    1
   150   135   136    1
