@<TRIPOS>MOLECULE
tmp/5cbbA00.pdb
 161 152 0 0 0
SMALL
GASTEIGER

@<TRIPOS>ATOM
      1  N         26.9230   82.9250   61.0160 N.3   113  VAL113     -0.1245
      2  CA        27.9190   82.7660   59.9620 C.3   113  VAL113      0.1561
      3  C         27.7110   81.4540   59.2180 C.2   113  VAL113      0.2260
      4  O         27.7580   80.3880   59.8160 O.2   113  VAL113     -0.2867
      5  CB        29.3480   82.7880   60.5210 C.3   113  VAL113      0.0252
      6  CG1       30.3610   82.8040   59.3690 C.3   113  VAL113      0.0019
      7  CG2       29.5330   83.9970   61.4280 C.3   113  VAL113      0.0019
      8  N         28.3170   78.9530   55.5190 N.3   115  PRO115     -0.2116
      9  CA        29.0480   78.6940   54.2730 C.3   115  PRO115      0.1372
     10  C         28.1950   78.9850   53.0410 C.2   115  PRO115      0.2244
     11  O         27.1710   78.3340   52.8260 O.2   115  PRO115     -0.2868
     12  CB        29.3690   77.1970   54.3630 C.3   115  PRO115      0.0268
     13  CG        28.3300   76.6380   55.2740 C.3   115  PRO115      0.0207
     14  CD        28.1290   77.7170   56.3000 C.3   115  PRO115      0.0892
     15  N         34.6120   78.6090   56.1220 N.3   270  SER270     -0.1217
     16  CA        33.5580   77.5940   56.1970 C.3   270  SER270      0.1889
     17  C         33.2370   76.9050   54.8630 C.2   270  SER270      0.2288
     18  O         32.4000   76.0140   54.8270 O.2   270  SER270     -0.2866
     19  CB        32.2780   78.1170   56.8610 C.3   270  SER270      0.2089
     20  OG        31.6000   79.0970   56.1040 O.3   270  SER270     -0.2183
     21  N         31.8390   87.5140   53.7960 N.3   325  ARG325     -0.1245
     22  CA        33.2390   87.3950   54.2080 C.3   325  ARG325      0.1563
     23  C         34.1170   86.9400   53.0510 C.2   325  ARG325      0.2260
     24  O         34.0880   85.7700   52.6650 O.2   325  ARG325     -0.2867
     25  CB        33.4090   86.4500   55.4100 C.3   325  ARG325      0.0307
     26  CG        34.8720   86.1740   55.7680 C.3   325  ARG325      0.0489
     27  CD        35.0660   85.6300   57.1890 C.3   325  ARG325      0.2205
     28  NE        34.8060   84.1960   57.3040 N.pl3 325  ARG325     -0.0865
     29  CZ        35.2490   83.4320   58.3020 C.cat 325  ARG325      0.5346
     30  NH1       35.9960   83.9620   59.2650 N.pl3 325  ARG325      0.1354
     31  NH2       34.9690   82.1380   58.3350 N.pl3 325  ARG325      0.1354
     32  N         38.5600   91.6340   61.0490 N.3   418  MET418     -0.1245
     33  CA        38.7310   90.5450   61.9840 C.3   418  MET418      0.1570
     34  C         40.1020   90.6320   62.6430 C.2   418  MET418      0.2261
     35  O         41.1330   90.6760   61.9640 O.2   418  MET418     -0.2867
     36  CB        38.5630   89.1920   61.3170 C.3   418  MET418      0.0387
     37  CG        37.2130   88.9910   60.6570 C.3   418  MET418      0.0595
     38  SD        37.0270   87.2630   60.1880 S.3   418  MET418     -0.1393
     39  CE        37.2940   86.4930   61.7810 C.3   418  MET418      0.0692
     40  N         42.4110   88.5550   64.2830 N.3   420  GLU420     -0.1245
     41  CA        42.6970   87.1440   64.4940 C.3   420  GLU420      0.1567
     42  C         44.1530   86.8230   64.1940 C.2   420  GLU420      0.2260
     43  O         44.5390   85.6610   64.0980 O.2   420  GLU420     -0.2867
     44  CB        41.7530   86.2520   63.6640 C.3   420  GLU420      0.0388
     45  CG        41.7660   86.5280   62.1580 C.3   420  GLU420      0.1160
     46  CD        40.7860   85.6450   61.3720 C.2   420  GLU420      0.3649
     47  OE1       40.4150   86.0390   60.2450 O.co2 420  GLU420     -0.2457
     48  OE2       40.3870   84.5680   61.8790 O.co2 420  GLU420     -0.2457
     49  N         38.2550   85.8520   68.0740 N.3   445  GLY445     -0.1210
     50  CA        37.9290   84.4430   67.9200 C.3   445  GLY445      0.1956
     51  C         38.9470   83.6300   68.6930 C.2   445  GLY445      0.2612
     52  O         39.7350   84.2020   69.4330 O.2   445  GLY445     -0.2717
     53  N         38.9430   82.3120   68.5380 N.am  446  PHE446     -0.1962
     54  CA        39.9000   81.4760   69.2550 C.3   446  PHE446      0.1771
     55  C         40.8250   80.6720   68.3370 C.2   446  PHE446      0.2619
     56  O         42.0360   80.6090   68.5550 O.2   446  PHE446     -0.2715
     57  CB        39.1720   80.5370   70.2120 C.3   446  PHE446      0.0574
     58  CG        40.0530   79.4750   70.7990 C.ar  446  PHE446     -0.0200
     59  CD1       41.0490   79.8020   71.7070 C.ar  446  PHE446     -0.0042
     60  CD2       39.8850   78.1470   70.4480 C.ar  446  PHE446     -0.0042
     61  CE1       41.8630   78.8190   72.2500 C.ar  446  PHE446     -0.0003
     62  CE2       40.6940   77.1600   70.9870 C.ar  446  PHE446     -0.0003
     63  CZ        41.6870   77.4960   71.8840 C.ar  446  PHE446     -0.0000
     64  N         40.2510   80.0570   67.3110 N.am  447  LEU447     -0.1963
     65  CA        41.0080   79.1220   66.4890 C.3   447  LEU447      0.1728
     66  C         42.1670   79.7730   65.7210 C.2   447  LEU447      0.2616
     67  O         43.3290   79.4480   65.9700 O.2   447  LEU447     -0.2715
     68  CB        40.0770   78.3520   65.5580 C.3   447  LEU447      0.0311
     69  CG        39.1650   77.2870   66.1890 C.3   447  LEU447      0.0022
     70  CD1       39.8540   76.5490   67.3160 C.3   447  LEU447      0.0001
     71  CD2       37.8520   77.8580   66.6650 C.3   447  LEU447      0.0001
     72  N         41.8580   80.6910   64.8110 N.am  448  ASP448     -0.1957
     73  CA        42.8940   81.3530   64.0030 C.3   448  ASP448      0.1840
     74  C         43.8840   82.1410   64.8540 C.2   448  ASP448      0.2621
     75  O         45.0930   82.0680   64.6300 O.2   448  ASP448     -0.2715
     76  CB        42.2810   82.3040   62.9800 C.3   448  ASP448      0.1450
     77  CG        42.1120   81.6650   61.5990 C.2   448  ASP448      0.3671
     78  OD1       42.9680   80.8360   61.2020 O.co2 448  ASP448     -0.2456
     79  OD2       41.1230   82.0070   60.9160 O.co2 448  ASP448     -0.2456
     80  N         43.3750   82.8890   65.8340 N.am  449  ARG449     -0.1977
     81  CA        44.2350   83.7840   66.6060 C.3   449  ARG449      0.1597
     82  C         45.2620   83.0130   67.4170 C.2   449  ARG449      0.2287
     83  O         46.3940   83.4430   67.5730 O.2   449  ARG449     -0.2864
     84  CB        43.4150   84.7240   67.4800 C.3   449  ARG449      0.0334
     85  CG        44.2560   85.6310   68.3480 C.3   449  ARG449      0.0492
     86  CD        45.1310   86.5830   67.5400 C.3   449  ARG449      0.2205
     87  NE        45.9110   87.4290   68.4460 N.pl3 449  ARG449     -0.0865
     88  CZ        47.0200   87.0360   69.0680 C.cat 449  ARG449      0.5346
     89  NH1       47.6470   87.8640   69.8930 N.pl3 449  ARG449      0.1354
     90  NH2       47.4990   85.8150   68.8770 N.pl3 449  ARG449      0.1354
     91  N         32.6220   82.2380   68.3250 N.3   501  MET501     -0.1245
     92  CA        31.5770   81.2670   68.0330 C.3   501  MET501      0.1570
     93  C         31.3650   80.1970   69.1110 C.2   501  MET501      0.2261
     94  O         32.3230   79.6670   69.6860 O.2   501  MET501     -0.2867
     95  CB        31.8860   80.5870   66.6840 C.3   501  MET501      0.0387
     96  CG        30.9450   79.4500   66.3180 C.3   501  MET501      0.0595
     97  SD        29.3890   80.0350   65.5880 S.3   501  MET501     -0.1393
     98  CE        29.9120   80.5850   63.9520 C.3   501  MET501      0.0692
     99  N         30.6730   76.5830   69.3750 N.3   503  THR503     -0.1218
    100  CA        30.8730   75.4870   68.4330 C.3   503  THR503      0.1862
    101  C         30.1340   74.2080   68.8000 C.2   503  THR503      0.2287
    102  O         30.0180   73.3070   67.9830 O.2   503  THR503     -0.2866
    103  CB        32.3730   75.1560   68.2950 C.3   503  THR503      0.1770
    104  OG1       32.9160   74.8480   69.5880 O.3   503  THR503     -0.2211
    105  CG2       33.1320   76.3470   67.7080 C.3   503  THR503      0.0375
    106  N         29.1180   85.3580   67.5550 N.3   527  TRP527     -0.1241
    107  CA        28.7890   84.3270   66.5590 C.3   527  TRP527      0.1605
    108  C         27.9870   83.1490   67.1000 C.2   527  TRP527      0.2264
    109  O         28.2360   82.6580   68.2160 O.2   527  TRP527     -0.2867
    110  CB        30.0510   83.8210   65.8460 C.3   527  TRP527      0.0550
    111  CG        30.5690   84.7970   64.8370 C.ar  527  TRP527      0.0003
    112  CD1       29.9830   85.9690   64.4730 C.ar  527  TRP527      0.0946
    113  CD2       31.7670   84.6860   64.0500 C.ar  527  TRP527      0.0152
    114  NE1       30.7420   86.6040   63.5170 N.ar  527  TRP527     -0.2442
    115  CE2       31.8450   85.8380   63.2440 C.ar  527  TRP527      0.0810
    116  CE3       32.7830   83.7310   63.9580 C.ar  527  TRP527      0.0012
    117  CZ2       32.8930   86.0580   62.3410 C.ar  527  TRP527      0.0191
    118  CZ3       33.8240   83.9540   63.0670 C.ar  527  TRP527      0.0001
    119  CH2       33.8690   85.1070   62.2700 C.ar  527  TRP527      0.0015
    120  N         26.1910   79.3060   65.4970 N.3   529  PRO529     -0.2116
    121  CA        26.3400   78.4050   64.3570 C.3   529  PRO529      0.1372
    122  C         25.0320   78.1660   63.5800 C.2   529  PRO529      0.2244
    123  O         25.0900   77.8960   62.3720 O.2   529  PRO529     -0.2868
    124  CB        26.7930   77.1140   65.0300 C.3   529  PRO529      0.0268
    125  CG        26.0640   77.1300   66.2950 C.3   529  PRO529      0.0207
    126  CD        26.0680   78.5610   66.7570 C.3   529  PRO529      0.0892
    127  N         32.0670   73.1220   56.6700 N.3   605  ALA605     -0.1245
    128  CA        31.5110   73.2420   58.0220 C.3   605  ALA605      0.1562
    129  C         30.3970   72.2330   58.1900 C.2   605  ALA605      0.2260
    130  O         29.5480   72.0920   57.3040 O.2   605  ALA605     -0.2867
    131  CB        30.9900   74.6370   58.2670 C.3   605  ALA605      0.0290
    132  N         30.7810   72.1890   65.4780 N.3   617  MET617     -0.1230
    133  CA        30.8030   72.7860   64.1520 C.3   617  MET617      0.1702
    134  C         31.8490   73.8810   64.1060 C.2   617  MET617      0.2592
    135  O         31.5830   74.9940   64.5450 O.2   617  MET617     -0.2718
    136  CB        29.4550   73.3860   63.7820 C.3   617  MET617      0.0401
    137  CG        29.5140   74.1150   62.4380 C.3   617  MET617      0.0596
    138  SD        27.8920   74.4070   61.7490 S.3   617  MET617     -0.1393
    139  CE        27.3030   72.7190   61.6120 C.3   617  MET617      0.0692
    140  N         33.0280   73.5480   63.5850 N.am  618  GLU618     -0.1966
    141  CA        34.1380   74.4830   63.4320 C.3   618  GLU618      0.1733
    142  C         34.4350   74.7300   61.9420 C.2   618  GLU618      0.2616
    143  O         34.0890   73.9070   61.0910 O.2   618  GLU618     -0.2715
    144  CB        35.3940   73.9040   64.0880 C.3   618  GLU618      0.0429
    145  CG        35.2380   73.6130   65.5830 C.3   618  GLU618      0.1163
    146  CD        36.3900   72.7980   66.1670 C.2   618  GLU618      0.3649
    147  OE1       36.7990   73.0790   67.3290 O.co2 618  GLU618     -0.2457
    148  OE2       36.8630   71.8640   65.4750 O.co2 618  GLU618     -0.2457
    149  N         35.0860   75.8480   61.6350 N.am  619  ASP619     -0.1971
    150  CA        35.5620   76.0800   60.2770 C.3   619  ASP619      0.1709
    151  C         37.0120   75.6360   60.1530 C.2   619  ASP619      0.2293
    152  O         37.5490   75.0150   61.0690 O.2   619  ASP619     -0.2864
    153  CB        35.3390   77.5300   59.8210 C.3   619  ASP619      0.1436
    154  CG        36.2550   78.5200   60.5080 C.2   619  ASP619      0.3671
    155  OD1       37.2630   78.1160   61.1070 O.co2 619  ASP619     -0.2456
    156  OD2       35.9880   79.7280   60.4120 O.co2 619  ASP619     -0.2456
    157  N         39.8170   76.9820   60.4520 N.3   621  ALA621     -0.1245
    158  CA        40.7670   77.4490   61.4590 C.3   621  ALA621      0.1562
    159  C         41.0980   76.3900   62.5280 C.2   621  ALA621      0.2260
    160  O         42.1500   76.4520   63.1650 O.2   621  ALA621     -0.2867
    161  CB        40.2640   78.7230   62.0900 C.3   621  ALA621      0.0290
@<TRIPOS>BOND
     1    24    23    2
     2    11    10    2
     3    10     9    1
     4    23    22    1
     5    21    22    1
     6    22    25    1
     7     9    12    1
     8     9     8    1
     9    12    13    1
    10    18    17    2
    11    17    16    1
    12    13    14    1
    13    25    26    1
    14     8    14    1
    15    26    27    1
    16    20    19    1
    17    15    16    1
    18    16    19    1
    19   127   128    1
    20    27    28    1
    21    28    29    2
    22   130   129    2
    23   128   129    1
    24   128   131    1
    25    29    31    1
    26    29    30    1
    27     3     4    2
    28     3     2    1
    29     6     5    1
    30   153   150    1
    31   153   154    1
    32     2     5    1
    33     2     1    1
    34   151   150    1
    35   151   152    2
    36    38    37    1
    37    38    39    1
    38    47    46   ar
    39   150   149    1
    40   156   154   ar
    41   157   158    1
    42   154   155   ar
    43     5     7    1
    44    37    36    1
    45    79    77   ar
    46    32    33    1
    47   143   142    2
    48    78    77   ar
    49    36    33    1
    50    46    48   ar
    51    46    45    1
    52   158   161    1
    53   158   159    1
    54    77    76    1
    55   139   138    1
    56   149   142   am
    57   138   137    1
    58   142   141    1
    59    35    34    2
    60    33    34    1
    61    45    44    1
    62   119   117   ar
    63   119   118   ar
    64   117   115   ar
    65   123   122    2
    66   137   136    1
    67   159   160    2
    68    76    73    1
    69   118   116   ar
    70   115   114   ar
    71   115   113   ar
    72   141   140    1
    73   141   144    1
    74   114   112   ar
    75   122   121    1
    76   140   134   am
    77    44    41    1
    78   136   133    1
    79    98    97    1
    80   116   113   ar
    81    73    72    1
    82    73    74    1
    83   113   111   ar
    84   144   145    1
    85    43    42    2
    86   134   133    1
    87   134   135    2
    88   133   132    1
    89    42    41    1
    90    40    41    1
    91   121   124    1
    92   121   120    1
    93   112   111   ar
    94    75    74    2
    95    72    66   am
    96   111   110    1
    97    74    80   am
    98   124   125    1
    99   148   146   ar
   100   120   126    1
   101    68    69    1
   102    68    65    1
   103   145   146    1
   104    97    96    1
   105    66    67    2
   106    66    65    1
   107    80    81    1
   108   110   107    1
   109   146   147   ar
   110    69    71    1
   111    69    70    1
   112   125   126    1
   113    96    95    1
   114    65    64    1
   115   107   108    1
   116   107   106    1
   117    81    82    1
   118    81    84    1
   119    95    92    1
   120   108   109    2
   121    64    55   am
   122    82    83    2
   123    84    85    1
   124    86    85    1
   125    86    87    1
   126   105   103    1
   127    50    49    1
   128    50    51    1
   129   102   101    2
   130    92    91    1
   131    92    93    1
   132   103   100    1
   133   103   104    1
   134    55    56    2
   135    55    54    1
   136   100   101    1
   137   100    99    1
   138    87    88    2
   139    53    51   am
   140    53    54    1
   141    51    52    2
   142    90    88    1
   143    88    89    1
   144    93    94    2
   145    54    57    1
   146    57    58    1
   147    60    58   ar
   148    60    62   ar
   149    58    59   ar
   150    62    63   ar
   151    59    61   ar
   152    63    61   ar
