@<TRIPOS>MOLECULE
tmp/5cbiA02.pdb
 113 109 0 0 0
SMALL
GASTEIGER

@<TRIPOS>ATOM
      1  N         25.2690   84.0150   62.6260 N.3   116  LEU116     -0.1231
      2  CA        25.4720   82.7180   61.9940 C.3   116  LEU116      0.1693
      3  C         26.6730   82.7830   61.0500 C.2   116  LEU116      0.2592
      4  O         26.9530   83.8390   60.4690 O.2   116  LEU116     -0.2718
      5  CB        24.2250   82.3680   61.1760 C.3   116  LEU116      0.0284
      6  CG        23.3990   81.1240   61.4730 C.3   116  LEU116      0.0019
      7  CD1       23.6880   80.5440   62.8430 C.3   116  LEU116      0.0001
      8  CD2       21.9250   81.4450   61.3400 C.3   116  LEU116      0.0001
      9  N         27.3810   81.6660   60.8870 N.am  117  VAL117     -0.1966
     10  CA        28.3790   81.5490   59.8220 C.3   117  VAL117      0.1727
     11  C         28.0860   80.2670   59.0590 C.2   117  VAL117      0.2616
     12  O         28.0590   79.1830   59.6490 O.2   117  VAL117     -0.2715
     13  CB        29.8240   81.5010   60.3540 C.3   117  VAL117      0.0290
     14  CG1       30.8090   81.4230   59.1780 C.3   117  VAL117      0.0023
     15  CG2       30.1300   82.7160   61.2090 C.3   117  VAL117      0.0023
     16  N         27.8680   80.3820   57.7500 N.am  118  VAL118     -0.1964
     17  CA        27.3800   79.2420   56.9790 C.3   118  VAL118      0.1712
     18  C         28.1450   79.0780   55.6610 C.2   118  VAL118      0.2458
     19  O         28.4640   80.0650   54.9990 O.2   118  VAL118     -0.2730
     20  CB        25.8550   79.3680   56.7260 C.3   118  VAL118      0.0289
     21  CG1       25.5520   80.5670   55.8550 C.3   118  VAL118      0.0023
     22  CG2       25.3120   78.1260   56.0770 C.3   118  VAL118      0.0023
     23  N         28.4780   77.8300   55.3010 N.am  119  PRO119     -0.2727
     24  CA        29.1420   77.5640   54.0250 C.3   119  PRO119      0.1402
     25  C         28.2780   77.9710   52.8280 C.2   119  PRO119      0.2269
     26  O         27.1860   77.4150   52.6130 O.2   119  PRO119     -0.2865
     27  CB        29.3490   76.0370   54.0530 C.3   119  PRO119      0.0296
     28  CG        28.3670   75.5280   55.0810 C.3   119  PRO119      0.0237
     29  CD        28.3960   76.6110   56.1220 C.3   119  PRO119      0.0939
     30  N         21.6820   75.1860   53.4420 N.3   125  PHE125     -0.1241
     31  CA        22.1660   75.7830   54.6850 C.3   125  PHE125      0.1605
     32  C         22.1840   77.3010   54.5700 C.2   125  PHE125      0.2264
     33  O         21.8150   77.9900   55.5110 O.2   125  PHE125     -0.2867
     34  CB        23.5710   75.2760   55.0370 C.3   125  PHE125      0.0534
     35  CG        23.6380   73.8010   55.3370 C.ar  125  PHE125     -0.0203
     36  CD1       22.4860   73.0710   55.6090 C.ar  125  PHE125     -0.0042
     37  CD2       24.8630   73.1430   55.3490 C.ar  125  PHE125     -0.0042
     38  CE1       22.5570   71.7100   55.8780 C.ar  125  PHE125     -0.0003
     39  CE2       24.9400   71.7820   55.6150 C.ar  125  PHE125     -0.0003
     40  CZ        23.7870   71.0660   55.8790 C.ar  125  PHE125     -0.0000
     41  N         18.5760   78.3610   55.0220 N.3   128  ASN128     -0.1225
     42  CA        18.1430   78.2710   56.4240 C.3   128  ASN128      0.1785
     43  C         18.7470   79.3790   57.2640 C.2   128  ASN128      0.2597
     44  O         18.0590   80.0110   58.0700 O.2   128  ASN128     -0.2718
     45  CB        18.5100   76.9190   57.0440 C.3   128  ASN128      0.1169
     46  CG        17.6210   75.7900   56.5620 C.2   128  ASN128      0.2627
     47  OD1       16.5810   76.0190   55.9370 O.2   128  ASN128     -0.2716
     48  ND2       18.0270   74.5590   56.8510 N.am  128  ASN128     -0.0877
     49  N         20.0450   79.6120   57.0890 N.am  129  ALA129     -0.1979
     50  CA        20.7220   80.6220   57.8980 C.3   129  ALA129      0.1597
     51  C         20.0860   81.9940   57.6640 C.2   129  ALA129      0.2287
     52  O         19.8090   82.7420   58.6140 O.2   129  ALA129     -0.2864
     53  CB        22.2230   80.6460   57.5990 C.3   129  ALA129      0.0319
     54  N         34.9040   77.4010   56.1140 N.3   274  SER274     -0.1217
     55  CA        33.8430   76.3950   56.2130 C.3   274  SER274      0.1889
     56  C         33.4870   75.7480   54.8760 C.2   274  SER274      0.2288
     57  O         32.6360   74.8590   54.8280 O.2   274  SER274     -0.2866
     58  CB        32.5860   76.9520   56.9020 C.3   274  SER274      0.2089
     59  OG        31.8540   77.8420   56.0700 O.3   274  SER274     -0.2183
     60  N         32.9770   80.8120   67.8980 N.3   507  MET507     -0.1245
     61  CA        31.9430   79.8020   67.6870 C.3   507  MET507      0.1570
     62  C         31.7710   78.8350   68.8560 C.2   507  MET507      0.2261
     63  O         32.7540   78.3630   69.4400 O.2   507  MET507     -0.2867
     64  CB        32.2510   79.0060   66.4070 C.3   507  MET507      0.0387
     65  CG        31.2670   77.8780   66.1360 C.3   507  MET507      0.0595
     66  SD        29.6590   78.4360   65.5270 S.3   507  MET507     -0.1393
     67  CE        30.1150   79.0960   63.9020 C.3   507  MET507      0.0692
     68  N         27.2900   81.1670   66.3360 N.3   534  VAL534     -0.1231
     69  CA        26.5140   79.9740   66.6830 C.3   534  VAL534      0.1678
     70  C         26.5220   79.0030   65.4990 C.2   534  VAL534      0.2434
     71  O         26.6290   79.4360   64.3520 O.2   534  VAL534     -0.2733
     72  CB        25.0680   80.3290   67.1020 C.3   534  VAL534      0.0265
     73  CG1       25.0160   80.7190   68.5960 C.3   534  VAL534      0.0020
     74  CG2       24.5130   81.4380   66.2150 C.3   534  VAL534      0.0020
     75  N         26.4480   77.6870   65.7770 N.am  535  PRO535     -0.2718
     76  CA        26.6070   76.6560   64.7430 C.3   535  PRO535      0.1535
     77  C         25.3290   76.2640   63.9980 C.2   535  PRO535      0.2599
     78  O         25.4010   75.4270   63.0920 O.2   535  PRO535     -0.2715
     79  CB        27.0890   75.4450   65.5410 C.3   535  PRO535      0.0310
     80  CG        26.3830   75.6010   66.8860 C.3   535  PRO535      0.0237
     81  CD        26.4140   77.1060   67.1400 C.3   535  PRO535      0.0939
     82  N         24.1850   76.8360   64.3670 N.am  536  SER536     -0.1937
     83  CA        22.9210   76.4580   63.7320 C.3   536  SER536      0.2040
     84  C         21.8370   77.4770   64.0620 C.2   536  SER536      0.2485
     85  O         21.9980   78.2630   64.9960 O.2   536  SER536     -0.2729
     86  CB        22.4800   75.0840   64.2210 C.3   536  SER536      0.2129
     87  OG        22.1620   75.1460   65.5980 O.3   536  SER536     -0.2179
     88  N         20.7500   77.4930   63.2690 N.am  537  PRO537     -0.2726
     89  CA        19.5650   78.3010   63.5820 C.3   537  PRO537      0.1402
     90  C         18.9960   77.9940   64.9550 C.2   537  PRO537      0.2269
     91  O         18.5380   78.9150   65.6220 O.2   537  PRO537     -0.2865
     92  CB        18.5630   77.8660   62.5160 C.3   537  PRO537      0.0296
     93  CG        19.4520   77.5890   61.2940 C.3   537  PRO537      0.0237
     94  CD        20.7070   76.9570   61.8890 C.3   537  PRO537      0.0939
     95  N         32.3780   71.8970   56.3800 N.3   611  ALA611     -0.1231
     96  CA        31.6870   72.0460   57.6600 C.3   611  ALA611      0.1694
     97  C         30.5380   71.0520   57.7840 C.2   611  ALA611      0.2592
     98  O         29.7200   70.9180   56.8660 O.2   611  ALA611     -0.2718
     99  CB        31.1770   73.4630   57.8430 C.3   611  ALA611      0.0304
    100  N         30.4800   70.3870   58.9370 N.am  612  SER612     -0.1952
    101  CA        29.5070   69.3280   59.2050 C.3   612  SER612      0.1924
    102  C         29.6310   68.9260   60.6740 C.2   612  SER612      0.2314
    103  O         30.5720   69.3450   61.3600 O.2   612  SER612     -0.2863
    104  CB        29.7790   68.1100   58.3170 C.3   612  SER612      0.2116
    105  OG        31.0210   67.4950   58.6500 O.3   612  SER612     -0.2180
    106  N         31.1090   71.2430   65.4570 N.3   623  MET623     -0.1245
    107  CA        31.0230   72.0180   64.2170 C.3   623  MET623      0.1570
    108  C         32.2070   72.9740   64.1910 C.2   623  MET623      0.2261
    109  O         32.0940   74.1200   64.6370 O.2   623  MET623     -0.2867
    110  CB        29.7070   72.8120   64.1830 C.3   623  MET623      0.0387
    111  CG        29.5500   73.7770   63.0060 C.3   623  MET623      0.0595
    112  SD        29.5060   72.9380   61.4180 S.3   623  MET623     -0.1393
    113  CE        28.0630   71.8860   61.6380 C.3   623  MET623      0.0692
@<TRIPOS>BOND
     1    26    25    2
     2    25    24    1
     3    30    31    1
     4    24    27    1
     5    24    23    1
     6    27    28    1
     7    32    31    1
     8    32    33    2
     9    31    34    1
    10    57    56    2
    11    56    55    1
    12    19    18    2
    13    41    42    1
    14    34    35    1
    15    28    29    1
    16    23    18   am
    17    23    29    1
    18    35    37   ar
    19    35    36   ar
    20    37    39   ar
    21    36    38   ar
    22    39    40   ar
    23    18    17    1
    24    21    20    1
    25    38    40   ar
    26    47    46    2
    27    59    58    1
    28    22    20    1
    29    54    55    1
    30    55    58    1
    31    95    96    1
    32    42    45    1
    33    42    43    1
    34    46    48   am
    35    46    45    1
    36    20    17    1
    37    98    97    2
    38    17    16    1
    39    49    43   am
    40    49    50    1
    41    43    44    2
    42    53    50    1
    43    96    97    1
    44    96    99    1
    45    51    50    1
    46    51    52    2
    47    16    11   am
    48    97   100   am
    49   104   105    1
    50   104   101    1
    51   100   101    1
    52    11    12    2
    53    11    10    1
    54    14    13    1
    55   101   102    1
    56    10    13    1
    57    10     9    1
    58    13    15    1
    59     4     3    2
    60   102   103    2
    61     9     3   am
    62     3     2    1
    63     5     6    1
    64     5     2    1
    65    93    94    1
    66    93    92    1
    67     8     6    1
    68   112   113    1
    69   112   111    1
    70     6     7    1
    71    94    88    1
    72     2     1    1
    73    92    89    1
    74   111   110    1
    75    78    77    2
    76    88    89    1
    77    88    84   am
    78    89    90    1
    79    83    84    1
    80    83    86    1
    81    83    82    1
    82    67    66    1
    83    77    82   am
    84    77    76    1
    85    84    85    2
    86   110   107    1
    87   108   107    1
    88   108   109    2
    89   107   106    1
    90    86    87    1
    91    71    70    2
    92    76    79    1
    93    76    75    1
    94    90    91    2
    95    70    75   am
    96    70    69    1
    97    66    65    1
    98    79    80    1
    99    75    81    1
   100    65    64    1
   101    74    72    1
   102    68    69    1
   103    64    61    1
   104    69    72    1
   105    80    81    1
   106    72    73    1
   107    61    60    1
   108    61    62    1
   109    62    63    2
