@<TRIPOS>MOLECULE
tmp/5cbiA01.pdb
 105 98 0 0 0
SMALL
GASTEIGER

@<TRIPOS>ATOM
      1  N         27.3810   81.6660   60.8870 N.3   117  VAL117     -0.1245
      2  CA        28.3790   81.5490   59.8220 C.3   117  VAL117      0.1561
      3  C         28.0860   80.2670   59.0590 C.2   117  VAL117      0.2260
      4  O         28.0590   79.1830   59.6490 O.2   117  VAL117     -0.2867
      5  CB        29.8240   81.5010   60.3540 C.3   117  VAL117      0.0252
      6  CG1       30.8090   81.4230   59.1780 C.3   117  VAL117      0.0019
      7  CG2       30.1300   82.7160   61.2090 C.3   117  VAL117      0.0019
      8  N         28.4780   77.8300   55.3010 N.3   119  PRO119     -0.2116
      9  CA        29.1420   77.5640   54.0250 C.3   119  PRO119      0.1372
     10  C         28.2780   77.9710   52.8280 C.2   119  PRO119      0.2244
     11  O         27.1860   77.4150   52.6130 O.2   119  PRO119     -0.2868
     12  CB        29.3490   76.0370   54.0530 C.3   119  PRO119      0.0268
     13  CG        28.3670   75.5280   55.0810 C.3   119  PRO119      0.0207
     14  CD        28.3960   76.6110   56.1220 C.3   119  PRO119      0.0892
     15  N         34.9040   77.4010   56.1140 N.3   274  SER274     -0.1217
     16  CA        33.8430   76.3950   56.2130 C.3   274  SER274      0.1889
     17  C         33.4870   75.7480   54.8760 C.2   274  SER274      0.2288
     18  O         32.6360   74.8590   54.8280 O.2   274  SER274     -0.2866
     19  CB        32.5860   76.9520   56.9020 C.3   274  SER274      0.2089
     20  OG        31.8540   77.8420   56.0700 O.3   274  SER274     -0.2183
     21  N         32.0410   86.4340   53.7610 N.3   331  ARG331     -0.1245
     22  CA        33.4540   86.2990   54.1510 C.3   331  ARG331      0.1563
     23  C         34.2990   85.8480   52.9500 C.2   331  ARG331      0.2260
     24  O         34.1660   84.7070   52.4820 O.2   331  ARG331     -0.2867
     25  CB        33.6550   85.3440   55.3480 C.3   331  ARG331      0.0307
     26  CG        35.1490   85.2050   55.7270 C.3   331  ARG331      0.0489
     27  CD        35.3870   84.6560   57.1360 C.3   331  ARG331      0.2205
     28  NE        35.0660   83.2310   57.2630 N.pl3 331  ARG331     -0.0865
     29  CZ        35.3230   82.5070   58.3540 C.cat 331  ARG331      0.5346
     30  NH1       35.9240   83.0690   59.3920 N.pl3 331  ARG331      0.1354
     31  NH2       35.0020   81.2220   58.3980 N.pl3 331  ARG331      0.1354
     32  N         40.4120   78.9310   67.2670 N.3   453  LEU453     -0.1245
     33  CA        41.2240   78.0060   66.4740 C.3   453  LEU453      0.1561
     34  C         42.3860   78.6270   65.6740 C.2   453  LEU453      0.2260
     35  O         43.5530   78.2490   65.8650 O.2   453  LEU453     -0.2867
     36  CB        40.3340   77.1260   65.5880 C.3   453  LEU453      0.0270
     37  CG        39.3730   76.1680   66.2980 C.3   453  LEU453      0.0019
     38  CD1       38.4310   75.4930   65.3000 C.3   453  LEU453      0.0001
     39  CD2       40.1320   75.1170   67.0890 C.3   453  LEU453      0.0001
     40  N         32.9770   80.8120   67.8980 N.3   507  MET507     -0.1245
     41  CA        31.9430   79.8020   67.6870 C.3   507  MET507      0.1570
     42  C         31.7710   78.8350   68.8560 C.2   507  MET507      0.2261
     43  O         32.7540   78.3630   69.4400 O.2   507  MET507     -0.2867
     44  CB        32.2510   79.0060   66.4070 C.3   507  MET507      0.0387
     45  CG        31.2670   77.8780   66.1360 C.3   507  MET507      0.0595
     46  SD        29.6590   78.4360   65.5270 S.3   507  MET507     -0.1393
     47  CE        30.1150   79.0960   63.9020 C.3   507  MET507      0.0692
     48  N         31.0690   75.2700   69.3530 N.3   509  THR509     -0.1218
     49  CA        31.2710   74.1650   68.4150 C.3   509  THR509      0.1862
     50  C         30.4730   72.9130   68.7750 C.2   509  THR509      0.2287
     51  O         30.2200   72.0670   67.9230 O.2   509  THR509     -0.2866
     52  CB        32.7470   73.7760   68.3670 C.3   509  THR509      0.1770
     53  OG1       33.1640   73.3850   69.6870 O.3   509  THR509     -0.2211
     54  CG2       33.5900   74.9500   67.9080 C.3   509  THR509      0.0375
     55  N         29.3170   83.8310   67.6220 N.3   533  TRP533     -0.1241
     56  CA        29.0140   82.8530   66.5860 C.3   533  TRP533      0.1605
     57  C         28.3150   81.5880   67.0770 C.2   533  TRP533      0.2264
     58  O         28.6910   81.0120   68.1010 O.2   533  TRP533     -0.2867
     59  CB        30.2980   82.5180   65.8100 C.3   533  TRP533      0.0550
     60  CG        30.7100   83.6260   64.9000 C.ar  533  TRP533      0.0003
     61  CD1       30.0640   84.8180   64.7250 C.ar  533  TRP533      0.0946
     62  CD2       31.8460   83.6500   64.0090 C.ar  533  TRP533      0.0152
     63  NE1       30.7310   85.5810   63.7940 N.ar  533  TRP533     -0.2442
     64  CE2       31.8260   84.8890   63.3410 C.ar  533  TRP533      0.0810
     65  CE3       32.8820   82.7540   63.7330 C.ar  533  TRP533      0.0012
     66  CZ2       32.8040   85.2540   62.3980 C.ar  533  TRP533      0.0191
     67  CZ3       33.8550   83.1150   62.8090 C.ar  533  TRP533      0.0001
     68  CH2       33.8040   84.3500   62.1440 C.ar  533  TRP533      0.0015
     69  N         26.4480   77.6870   65.7770 N.3   535  PRO535     -0.2116
     70  CA        26.6070   76.6560   64.7430 C.3   535  PRO535      0.1372
     71  C         25.3290   76.2640   63.9980 C.2   535  PRO535      0.2244
     72  O         25.4010   75.4270   63.0920 O.2   535  PRO535     -0.2868
     73  CB        27.0890   75.4450   65.5410 C.3   535  PRO535      0.0268
     74  CG        26.3830   75.6010   66.8860 C.3   535  PRO535      0.0207
     75  CD        26.4140   77.1060   67.1400 C.3   535  PRO535      0.0892
     76  N         32.3780   71.8970   56.3800 N.3   611  ALA611     -0.1245
     77  CA        31.6870   72.0460   57.6600 C.3   611  ALA611      0.1562
     78  C         30.5380   71.0520   57.7840 C.2   611  ALA611      0.2260
     79  O         29.7200   70.9180   56.8660 O.2   611  ALA611     -0.2867
     80  CB        31.1770   73.4630   57.8430 C.3   611  ALA611      0.0290
     81  N         31.1090   71.2430   65.4570 N.3   623  MET623     -0.1230
     82  CA        31.0230   72.0180   64.2170 C.3   623  MET623      0.1702
     83  C         32.2070   72.9740   64.1910 C.2   623  MET623      0.2592
     84  O         32.0940   74.1200   64.6370 O.2   623  MET623     -0.2718
     85  CB        29.7070   72.8120   64.1830 C.3   623  MET623      0.0401
     86  CG        29.5500   73.7770   63.0060 C.3   623  MET623      0.0596
     87  SD        29.5060   72.9380   61.4180 S.3   623  MET623     -0.1393
     88  CE        28.0630   71.8860   61.6380 C.3   623  MET623      0.0692
     89  N         33.3520   72.4930   63.7130 N.am  624  GLU624     -0.1966
     90  CA        34.5360   73.3370   63.5730 C.3   624  GLU624      0.1733
     91  C         34.7490   73.6370   62.0920 C.2   624  GLU624      0.2616
     92  O         34.1930   72.9420   61.2390 O.2   624  GLU624     -0.2715
     93  CB        35.7690   72.6360   64.1620 C.3   624  GLU624      0.0429
     94  CG        35.5630   72.1500   65.6030 C.3   624  GLU624      0.1163
     95  CD        36.7710   71.4310   66.1820 C.2   624  GLU624      0.3649
     96  OE1       37.3250   70.5260   65.5170 O.co2 624  GLU624     -0.2457
     97  OE2       37.1690   71.7720   67.3140 O.co2 624  GLU624     -0.2457
     98  N         35.5330   74.6670   61.7820 N.am  625  ASP625     -0.1971
     99  CA        35.9310   74.8910   60.3900 C.3   625  ASP625      0.1709
    100  C         37.3930   74.4690   60.1910 C.2   625  ASP625      0.2293
    101  O         38.0080   73.8950   61.1080 O.2   625  ASP625     -0.2864
    102  CB        35.6860   76.3530   59.9710 C.3   625  ASP625      0.1436
    103  CG        36.5180   77.3390   60.7530 C.2   625  ASP625      0.3671
    104  OD1       37.2210   76.9260   61.7050 O.co2 625  ASP625     -0.2456
    105  OD2       36.4720   78.5540   60.4300 O.co2 625  ASP625     -0.2456
@<TRIPOS>BOND
     1    24    23    2
     2    11    10    2
     3    10     9    1
     4    23    22    1
     5    21    22    1
     6     9    12    1
     7     9     8    1
     8    12    13    1
     9    22    25    1
    10    18    17    2
    11    17    16    1
    12    13    14    1
    13     8    14    1
    14    25    26    1
    15    26    27    1
    16    20    19    1
    17    15    16    1
    18    16    19    1
    19    76    77    1
    20    79    78    2
    21    27    28    1
    22    28    29    2
    23    77    78    1
    24    77    80    1
    25    29    31    1
    26    29    30    1
    27     3     4    2
    28     3     2    1
    29     6     5    1
    30     2     5    1
    31     2     1    1
    32   102    99    1
    33   102   103    1
    34   100    99    1
    35   100   101    2
    36     5     7    1
    37    99    98    1
    38   105   103   ar
    39   103   104   ar
    40    92    91    2
    41    87    88    1
    42    87    86    1
    43    98    91   am
    44    91    90    1
    45    68    66   ar
    46    68    67   ar
    47    66    64   ar
    48    67    65   ar
    49    86    85    1
    50    72    71    2
    51    64    63   ar
    52    64    62   ar
    53    90    89    1
    54    90    93    1
    55    89    83   am
    56    65    62   ar
    57    63    61   ar
    58    47    46    1
    59    71    70    1
    60    62    60   ar
    61    93    94    1
    62    85    82    1
    63    83    82    1
    64    83    84    2
    65    82    81    1
    66    61    60   ar
    67    70    73    1
    68    70    69    1
    69    60    59    1
    70    38    37    1
    71    96    95   ar
    72    46    45    1
    73    73    74    1
    74    36    37    1
    75    36    33    1
    76    94    95    1
    77    34    35    2
    78    34    33    1
    79    69    75    1
    80    59    56    1
    81    45    44    1
    82    95    97   ar
    83    37    39    1
    84    44    41    1
    85    33    32    1
    86    56    57    1
    87    56    55    1
    88    74    75    1
    89    57    58    2
    90    41    40    1
    91    41    42    1
    92    54    52    1
    93    51    50    2
    94    52    49    1
    95    52    53    1
    96    49    50    1
    97    49    48    1
    98    42    43    2
