@<TRIPOS>MOLECULE
tmp/5cbkA01.pdb
 101 94 0 0 0
SMALL
GASTEIGER

@<TRIPOS>ATOM
      1  N        -12.5970   33.6520   -7.0770 N.3    26  PHE26      -0.1241
      2  CA       -12.6800   33.3880   -8.5090 C.3    26  PHE26       0.1605
      3  C        -14.0830   33.6250   -9.0570 C.2    26  PHE26       0.2264
      4  O        -15.0750   33.2360   -8.4410 O.2    26  PHE26      -0.2867
      5  CB       -12.2450   31.9530   -8.8150 C.3    26  PHE26       0.0534
      6  CG       -12.4700   31.5460  -10.2440 C.ar   26  PHE26      -0.0203
      7  CD1      -11.6540   32.0330  -11.2520 C.ar   26  PHE26      -0.0042
      8  CD2      -13.4990   30.6820  -10.5820 C.ar   26  PHE26      -0.0042
      9  CE1      -11.8570   31.6640  -12.5680 C.ar   26  PHE26      -0.0003
     10  CE2      -13.7080   30.3110  -11.8970 C.ar   26  PHE26      -0.0003
     11  CZ       -12.8860   30.8040  -12.8910 C.ar   26  PHE26      -0.0000
     12  N         -8.4330   21.7050   -3.0370 N.3   124  VAL124     -0.1245
     13  CA        -9.7350   21.2980   -3.5550 C.3   124  VAL124      0.1561
     14  C         -9.9750   19.7940   -3.4180 C.2   124  VAL124      0.2260
     15  O        -10.9830   19.3660   -2.8540 O.2   124  VAL124     -0.2867
     16  CB        -9.8900   21.6900   -5.0380 C.3   124  VAL124      0.0252
     17  CG1      -11.1910   21.1380   -5.6040 C.3   124  VAL124      0.0019
     18  CG2       -9.8280   23.2020   -5.1980 C.3   124  VAL124      0.0019
     19  N        -12.0040   15.9120  -10.1190 N.3   139  VAL139     -0.1245
     20  CA       -11.5790   17.2850  -10.3630 C.3   139  VAL139      0.1561
     21  C        -10.8960   17.3970  -11.7240 C.2   139  VAL139      0.2260
     22  O        -11.1480   18.3340  -12.4830 O.2   139  VAL139     -0.2867
     23  CB       -10.6210   17.7840   -9.2600 C.3   139  VAL139      0.0252
     24  CG1      -10.0540   19.1510   -9.6140 C.3   139  VAL139      0.0019
     25  CG2      -11.3340   17.8270   -7.9160 C.3   139  VAL139      0.0019
     26  N        -13.4340   17.1150  -14.5590 N.3   142  LEU142     -0.1231
     27  CA       -14.2430   18.3260  -14.6270 C.3   142  LEU142      0.1693
     28  C        -13.4710   19.4550  -15.3010 C.2   142  LEU142      0.2592
     29  O        -14.0450   20.2490  -16.0470 O.2   142  LEU142     -0.2718
     30  CB       -14.7010   18.7540  -13.2310 C.3   142  LEU142      0.0284
     31  CG       -15.7680   17.8750  -12.5710 C.3   142  LEU142      0.0019
     32  CD1      -16.1620   18.4240  -11.2070 C.3   142  LEU142      0.0001
     33  CD2      -16.9840   17.7420  -13.4700 C.3   142  LEU142      0.0001
     34  N        -12.1690   19.5220  -15.0410 N.am  143  TYR143     -0.1976
     35  CA       -11.3220   20.5230  -15.6780 C.3   143  TYR143      0.1639
     36  C        -11.2170   20.2640  -17.1770 C.2   143  TYR143      0.2290
     37  O        -11.2650   21.1950  -17.9810 O.2   143  TYR143     -0.2864
     38  CB        -9.9270   20.5410  -15.0490 C.3   143  TYR143      0.0560
     39  CG        -8.9850   21.5240  -15.7090 C.ar  143  TYR143     -0.0198
     40  CD1       -9.0320   22.8780  -15.3980 C.ar  143  TYR143     -0.0009
     41  CD2       -8.0560   21.1010  -16.6510 C.ar  143  TYR143     -0.0009
     42  CE1       -8.1780   23.7800  -16.0040 C.ar  143  TYR143      0.0417
     43  CE2       -7.1980   21.9950  -17.2620 C.ar  143  TYR143      0.0417
     44  CZ        -7.2630   23.3330  -16.9350 C.ar  143  TYR143      0.1957
     45  OH        -6.4090   24.2250  -17.5420 O.3   143  TYR143     -0.2866
     46  N        -14.2250   21.3320  -18.9100 N.3   146  MET146     -0.1245
     47  CA       -14.2530   22.7870  -18.9550 C.3   146  MET146      0.1570
     48  C        -13.4830   23.3030  -20.1670 C.2   146  MET146      0.2261
     49  O        -13.7710   24.3790  -20.6900 O.2   146  MET146     -0.2867
     50  CB       -13.6760   23.3690  -17.6640 C.3   146  MET146      0.0387
     51  CG       -13.7200   24.8820  -17.5840 C.3   146  MET146      0.0595
     52  SD       -12.8690   25.5170  -16.1300 S.3   146  MET146     -0.1393
     53  CE       -12.8560   27.2690  -16.4980 C.3   146  MET146      0.0692
     54  N        -20.0800   24.4560  -19.0390 N.3   153  MET153     -0.1245
     55  CA       -19.5090   24.2070  -17.7180 C.3   153  MET153      0.1570
     56  C        -19.5990   25.4500  -16.8370 C.2   153  MET153      0.2261
     57  O        -19.9330   25.3640  -15.6560 O.2   153  MET153     -0.2867
     58  CB       -18.0530   23.7500  -17.8340 C.3   153  MET153      0.0387
     59  CG       -17.8750   22.3960  -18.5030 C.3   153  MET153      0.0595
     60  SD       -18.5080   21.0230  -17.5180 S.3   153  MET153     -0.1393
     61  CE       -17.3780   21.0510  -16.1300 C.3   153  MET153      0.0692
     62  N        -21.5850   26.1320  -13.4430 N.3   157  TYR157     -0.1241
     63  CA       -20.7170   26.4730  -12.3210 C.3   157  TYR157      0.1605
     64  C        -21.3280   27.5700  -11.4530 C.2   157  TYR157      0.2264
     65  O        -21.1650   27.5680  -10.2330 O.2   157  TYR157     -0.2867
     66  CB       -19.3390   26.9060  -12.8290 C.3   157  TYR157      0.0534
     67  CG       -18.3490   27.2530  -11.7370 C.ar  157  TYR157     -0.0201
     68  CD1      -17.8860   26.2820  -10.8570 C.ar  157  TYR157     -0.0009
     69  CD2      -17.8660   28.5480  -11.5980 C.ar  157  TYR157     -0.0009
     70  CE1      -16.9780   26.5950   -9.8610 C.ar  157  TYR157      0.0417
     71  CE2      -16.9560   28.8690  -10.6070 C.ar  157  TYR157      0.0417
     72  CZ       -16.5160   27.8890   -9.7410 C.ar  157  TYR157      0.1957
     73  OH       -15.6130   28.2060   -8.7520 O.3   157  TYR157     -0.2866
     74  N         -8.3710   28.3440  -12.8930 N.3   190  CYS190     -0.1235
     75  CA        -8.9240   27.0900  -12.3870 C.3   190  CYS190      0.1677
     76  C         -7.8670   25.9970  -12.3110 C.2   190  CYS190      0.2270
     77  O         -7.8720   25.1800  -11.3890 O.2   190  CYS190     -0.2867
     78  CB       -10.0880   26.6240  -13.2640 C.3   190  CYS190      0.0956
     79  SG       -11.5510   27.6700  -13.1710 S.3   190  CYS190     -0.0801
     80  N         -5.8330   26.9140   -9.3020 N.3   193  ILE193     -0.1231
     81  CA        -6.6130   26.6960   -8.0880 C.3   193  ILE193      0.1692
     82  C         -6.7410   25.2140   -7.7530 C.2   193  ILE193      0.2592
     83  O         -6.4790   24.8010   -6.6230 O.2   193  ILE193     -0.2718
     84  CB        -8.0180   27.3120   -8.2070 C.3   193  ILE193      0.0266
     85  CG1       -7.9340   28.8370   -8.1330 C.3   193  ILE193      0.0019
     86  CG2       -8.9260   26.7920   -7.1030 C.3   193  ILE193      0.0020
     87  CD1       -9.2790   29.5250   -8.2170 C.3   193  ILE193      0.0001
     88  N         -7.1300   24.4150   -8.7400 N.am  194  SER194     -0.1952
     89  CA        -7.2810   22.9780   -8.5420 C.3   194  SER194      0.1924
     90  C         -5.9270   22.2950   -8.3710 C.2   194  SER194      0.2314
     91  O         -5.8560   21.1120   -8.0380 O.2   194  SER194     -0.2863
     92  CB        -8.0360   22.3500   -9.7160 C.3   194  SER194      0.2116
     93  OG        -7.2760   22.4210  -10.9090 O.3   194  SER194     -0.2180
     94  N        -18.6260   23.9590   -2.6290 N.3   219  LEU219     -0.1245
     95  CA       -17.2100   24.0560   -2.9600 C.3   219  LEU219      0.1561
     96  C        -16.3290   23.8700   -1.7290 C.2   219  LEU219      0.2260
     97  O        -15.1980   23.3990   -1.8330 O.2   219  LEU219     -0.2867
     98  CB       -16.9070   25.4030   -3.6200 C.3   219  LEU219      0.0270
     99  CG       -17.5980   25.6740   -4.9580 C.3   219  LEU219      0.0019
    100  CD1      -17.0970   26.9760   -5.5620 C.3   219  LEU219      0.0001
    101  CD2      -17.3810   24.5150   -5.9200 C.3   219  LEU219      0.0001
@<TRIPOS>BOND
     1    49    48    2
     2    48    47    1
     3    54    55    1
     4    47    46    1
     5    47    50    1
     6    59    58    1
     7    59    60    1
     8    37    36    2
     9    58    55    1
    10    55    56    1
    11    50    51    1
    12    51    52    1
    13    45    44    1
    14    60    61    1
    15    43    44   ar
    16    43    41   ar
    17    36    35    1
    18    44    42   ar
    19    56    57    2
    20    41    39   ar
    21    53    52    1
    22    29    28    2
    23    42    40   ar
    24    39    40   ar
    25    39    38    1
    26    35    38    1
    27    35    34    1
    28    28    34   am
    29    28    27    1
    30    27    26    1
    31    27    30    1
    32    33    31    1
    33    62    63    1
    34    78    79    1
    35    78    75    1
    36    30    31    1
    37    74    75    1
    38    11     9   ar
    39    11    10   ar
    40    66    63    1
    41    66    67    1
    42    31    32    1
    43     9     7   ar
    44    22    21    2
    45    75    76    1
    46    63    64    1
    47    76    77    2
    48    10     8   ar
    49    67    69   ar
    50    67    68   ar
    51    21    20    1
    52    69    71   ar
    53    64    65    2
    54     7     6   ar
    55    93    92    1
    56    68    70   ar
    57    71    72   ar
    58     8     6   ar
    59    20    19    1
    60    20    23    1
    61     6     5    1
    62    70    72   ar
    63    72    73    1
    64    92    89    1
    65    24    23    1
    66    80    81    1
    67    23    25    1
    68     3     2    1
    69     3     4    2
    70     5     2    1
    71    88    89    1
    72    88    82   am
    73    89    90    1
    74     2     1    1
    75    90    91    2
    76    87    85    1
    77    84    85    1
    78    84    81    1
    79    84    86    1
    80    81    82    1
    81    82    83    2
    82   101    99    1
    83    17    16    1
    84   100    99    1
    85    18    16    1
    86    16    13    1
    87    99    98    1
    88    98    95    1
    89    13    14    1
    90    13    12    1
    91    14    15    2
    92    95    94    1
    93    95    96    1
    94    97    96    2
