@<TRIPOS>MOLECULE
tmp/5cbnB00.pdb
 98 91 0 0 0
SMALL
GASTEIGER

@<TRIPOS>ATOM
      1  N          0.1670  -10.5120  -27.6970 N.3   106  PHE106     -0.1241
      2  CA        -0.9220  -11.3530  -28.2020 C.3   106  PHE106      0.1605
      3  C         -1.5110  -12.2710  -27.1130 C.2   106  PHE106      0.2264
      4  O         -2.7330  -12.3250  -26.9570 O.2   106  PHE106     -0.2867
      5  CB        -0.4510  -12.1900  -29.3940 C.3   106  PHE106      0.0534
      6  CG        -1.4990  -13.1220  -29.9120 C.ar  106  PHE106     -0.0203
      7  CD1       -2.5240  -12.6450  -30.7240 C.ar  106  PHE106     -0.0042
      8  CD2       -1.4880  -14.4640  -29.5670 C.ar  106  PHE106     -0.0042
      9  CE1       -3.4920  -13.4920  -31.1930 C.ar  106  PHE106     -0.0003
     10  CE2       -2.4690  -15.3140  -30.0340 C.ar  106  PHE106     -0.0003
     11  CZ        -3.4680  -14.8330  -30.8490 C.ar  106  PHE106     -0.0000
     12  N         -2.2620  -10.0080  -34.3780 N.3   122  CYS122     -0.1221
     13  CA        -2.1520  -11.2190  -35.1620 C.3   122  CYS122      0.1808
     14  C         -1.7120  -10.8970  -36.5760 C.2   122  CYS122      0.2601
     15  O         -0.7540  -11.4610  -37.0770 O.2   122  CYS122     -0.2717
     16  CB        -3.4940  -11.9400  -35.1820 C.3   122  CYS122      0.0970
     17  SG        -3.5760  -13.4380  -36.1350 S.3   122  CYS122     -0.0800
     18  N         -2.4010   -9.9700  -37.2290 N.am  123  LYS123     -0.1979
     19  CA        -2.0700   -9.7460  -38.6260 C.3   123  LYS123      0.1596
     20  C         -0.7650   -8.9680  -38.7510 C.2   123  LYS123      0.2287
     21  O         -0.0680   -9.0580  -39.7580 O.2   123  LYS123     -0.2864
     22  CB        -3.2320   -9.0730  -39.3590 C.3   123  LYS123      0.0298
     23  CG        -4.2910  -10.1210  -39.8140 C.3   123  LYS123      0.0038
     24  CD        -3.6650  -11.3300  -40.5840 C.3   123  LYS123      0.0206
     25  CE        -4.0090  -12.7070  -39.9540 C.3   123  LYS123      0.1093
     26  NZ        -3.5310  -13.8510  -40.7940 N.3   123  LYS123     -0.1314
     27  N          1.8650   -9.6860  -36.8120 N.3   125  LYS125     -0.1231
     28  CA         2.8870  -10.7070  -36.7000 C.3   125  LYS125      0.1693
     29  C          3.0400  -11.3980  -38.0400 C.2   125  LYS125      0.2591
     30  O          4.1570  -11.6710  -38.4740 O.2   125  LYS125     -0.2718
     31  CB         2.5550  -11.7240  -35.6020 C.3   125  LYS125      0.0285
     32  CG         3.5930  -12.8360  -35.4650 C.3   125  LYS125      0.0035
     33  CD         3.2510  -13.7800  -34.3270 C.3   125  LYS125      0.0206
     34  CE         4.3430  -14.8220  -34.1260 C.3   125  LYS125      0.1093
     35  NZ         4.0160  -15.7370  -32.9990 N.3   125  LYS125     -0.1314
     36  N          1.9140  -11.6450  -38.7050 N.am  126  ALA126     -0.1980
     37  CA         1.9130  -12.3580  -39.9770 C.3   126  ALA126      0.1597
     38  C          2.5530  -11.5290  -41.0990 C.2   126  ALA126      0.2287
     39  O          3.3580  -12.0360  -41.8820 O.2   126  ALA126     -0.2864
     40  CB         0.4800  -12.7670  -40.3610 C.3   126  ALA126      0.0319
     41  N          6.2660  -11.3590  -40.4710 N.3   129  ALA129     -0.1231
     42  CA         6.8740  -12.6480  -40.8060 C.3   129  ALA129      0.1694
     43  C          7.1280  -12.7030  -42.3090 C.2   129  ALA129      0.2591
     44  O          8.1870  -13.1430  -42.7420 O.2   129  ALA129     -0.2718
     45  CB         5.9990  -13.8060  -40.3620 C.3   129  ALA129      0.0304
     46  N          6.1670  -12.2090  -43.0840 N.am  130  ALA130     -0.1980
     47  CA         6.2780  -12.1330  -44.5400 C.3   130  ALA130      0.1597
     48  C          7.4200  -11.2230  -44.9600 C.2   130  ALA130      0.2287
     49  O          8.2620  -11.6130  -45.7700 O.2   130  ALA130     -0.2864
     50  CB         4.9640  -11.6400  -45.1600 C.3   130  ALA130      0.0319
     51  N          9.9740  -10.1640  -43.2180 N.3   132  TYR132     -0.1227
     52  CA        11.2310  -10.7170  -42.7590 C.3   132  TYR132      0.1736
     53  C         11.7350  -11.8120  -43.6960 C.2   132  TYR132      0.2595
     54  O         12.9330  -11.9260  -43.9300 O.2   132  TYR132     -0.2718
     55  CB        11.0600  -11.2570  -41.3380 C.3   132  TYR132      0.0548
     56  CG        12.2310  -12.0670  -40.8430 C.ar  132  TYR132     -0.0200
     57  CD1       12.3290  -13.4180  -41.1310 C.ar  132  TYR132     -0.0009
     58  CD2       13.2350  -11.4810  -40.0720 C.ar  132  TYR132     -0.0009
     59  CE1       13.3890  -14.1620  -40.6940 C.ar  132  TYR132      0.0417
     60  CE2       14.3100  -12.2260  -39.6180 C.ar  132  TYR132      0.0417
     61  CZ        14.3720  -13.5670  -39.9390 C.ar  132  TYR132      0.1957
     62  OH        15.4140  -14.3380  -39.5100 O.3   132  TYR132     -0.2866
     63  N         10.8200  -12.6260  -44.2130 N.am  133  CYS133     -0.1970
     64  CA        11.1790  -13.6870  -45.1550 C.3   133  CYS133      0.1712
     65  C         11.9060  -13.1130  -46.3580 C.2   133  CYS133      0.2296
     66  O         13.0150  -13.5320  -46.7000 O.2   133  CYS133     -0.2864
     67  CB         9.9370  -14.4500  -45.6340 C.3   133  CYS133      0.0983
     68  SG        10.2810  -15.7660  -46.8420 S.3   133  CYS133     -0.0798
     69  N         15.8620  -13.8010  -47.7350 N.3   137  LEU137     -0.1245
     70  CA        15.9400  -14.6810  -48.8780 C.3   137  LEU137      0.1561
     71  C         17.2260  -14.3360  -49.6020 C.2   137  LEU137      0.2260
     72  O         17.3220  -13.2840  -50.2280 O.2   137  LEU137     -0.2867
     73  CB        14.7230  -14.4950  -49.7730 C.3   137  LEU137      0.0270
     74  CG        13.8580  -15.7100  -50.0830 C.3   137  LEU137      0.0019
     75  CD1       13.8870  -16.6820  -48.9370 C.3   137  LEU137      0.0001
     76  CD2       12.4380  -15.2490  -50.3520 C.3   137  LEU137      0.0001
     77  N          0.6560  -14.8230  -48.8650 N.3   160  ALA160     -0.1245
     78  CA         1.1180  -16.2040  -48.8210 C.3   160  ALA160      0.1562
     79  C          1.4040  -16.6910  -50.2310 C.2   160  ALA160      0.2260
     80  O          2.3410  -17.4520  -50.4690 O.2   160  ALA160     -0.2867
     81  CB         0.0910  -17.0950  -48.1400 C.3   160  ALA160      0.0290
     82  N          4.8550  -14.9630  -51.1200 N.3   163  LEU163     -0.1245
     83  CA         5.9970  -15.6010  -50.4740 C.3   163  LEU163      0.1561
     84  C          6.3970  -16.8580  -51.2270 C.2   163  LEU163      0.2260
     85  O          7.5870  -17.1440  -51.3930 O.2   163  LEU163     -0.2867
     86  CB         5.6800  -15.9480  -49.0210 C.3   163  LEU163      0.0270
     87  CG         5.6150  -14.7810  -48.0460 C.3   163  LEU163      0.0019
     88  CD1        5.3660  -15.2900  -46.6410 C.3   163  LEU163      0.0001
     89  CD2        6.8920  -13.9700  -48.1130 C.3   163  LEU163      0.0001
     90  N         10.0750  -17.5930  -52.9570 N.3   167  LYS167     -0.1245
     91  CA        10.8370  -18.7880  -52.6260 C.3   167  LYS167      0.1561
     92  C         11.2000  -19.5950  -53.8650 C.2   167  LYS167      0.2260
     93  O         12.3340  -20.0520  -53.9980 O.2   167  LYS167     -0.2867
     94  CB        10.0630  -19.6700  -51.6500 C.3   167  LYS167      0.0271
     95  CG        10.0450  -19.1550  -50.2230 C.3   167  LYS167      0.0035
     96  CD         9.4440  -20.2020  -49.3030 C.3   167  LYS167      0.0206
     97  CE         9.6030  -19.8330  -47.8440 C.3   167  LYS167      0.1093
     98  NZ         9.0360  -20.8640  -46.9340 N.3   167  LYS167     -0.1314
@<TRIPOS>BOND
     1    93    92    2
     2    92    91    1
     3    90    91    1
     4    91    94    1
     5    94    95    1
     6    85    84    2
     7    84    83    1
     8    82    83    1
     9    83    86    1
    10    80    79    2
    11    76    74    1
    12    79    78    1
    13    72    71    2
    14    95    96    1
    15    74    73    1
    16    74    75    1
    17    73    70    1
    18    71    70    1
    19    96    97    1
    20    86    87    1
    21    70    69    1
    22    77    78    1
    23    78    81    1
    24    89    87    1
    25    87    88    1
    26    97    98    1
    27    68    67    1
    28    66    65    2
    29    65    64    1
    30    49    48    2
    31    67    64    1
    32    50    47    1
    33    64    63    1
    34    48    47    1
    35    47    46    1
    36    63    53   am
    37    54    53    2
    38    53    52    1
    39    51    52    1
    40    46    43   am
    41    52    55    1
    42    44    43    2
    43    43    42    1
    44    39    38    2
    45    55    56    1
    46    57    56   ar
    47    57    59   ar
    48    38    37    1
    49    56    58   ar
    50    42    41    1
    51    42    45    1
    52    26    25    1
    53    59    61   ar
    54    24    25    1
    55    24    23    1
    56    40    37    1
    57    58    60   ar
    58    37    36    1
    59    61    60   ar
    60    61    62    1
    61    23    22    1
    62    21    20    2
    63    22    19    1
    64    20    19    1
    65    36    29   am
    66    19    18    1
    67    30    29    2
    68    29    28    1
    69    18    14   am
    70    15    14    2
    71    27    28    1
    72    28    31    1
    73    14    13    1
    74    17    16    1
    75    31    32    1
    76    32    33    1
    77    16    13    1
    78    13    12    1
    79    33    34    1
    80    34    35    1
    81     9    11   ar
    82     9     7   ar
    83    11    10   ar
    84     7     6   ar
    85    10     8   ar
    86     6     8   ar
    87     6     5    1
    88     5     2    1
    89     2     1    1
    90     2     3    1
    91     3     4    2
