@<TRIPOS>MOLECULE
tmp/5cbrA00.pdb
 169 163 0 0 0
SMALL
GASTEIGER

@<TRIPOS>ATOM
      1  N         17.9420   12.5200   49.1470 N.3    10  GLU10      -0.1245
      2  CA        16.9170   12.5120   50.1850 C.3    10  GLU10       0.1567
      3  C         17.1480   11.3210   51.1070 C.2    10  GLU10       0.2260
      4  O         16.9600   10.1820   50.7070 O.2    10  GLU10      -0.2867
      5  CB        15.5310   12.3710   49.5470 C.3    10  GLU10       0.0388
      6  CG        14.3610   12.4440   50.5360 C.3    10  GLU10       0.1160
      7  CD        13.8540   13.8580   50.7100 C.2    10  GLU10       0.3649
      8  OE1       13.3220   14.4290   49.7250 O.co2  10  GLU10      -0.2457
      9  OE2       13.9980   14.4030   51.8210 O.co2  10  GLU10      -0.2457
     10  N         16.9780    7.5150   51.3180 N.3    13  TYR13      -0.1241
     11  CA        16.7380    6.9020   50.0210 C.3    13  TYR13       0.1605
     12  C         17.9660    6.9840   49.1300 C.2    13  TYR13       0.2264
     13  O         18.3520    5.9990   48.5080 O.2    13  TYR13      -0.2867
     14  CB        15.5110    7.5410   49.3500 C.3    13  TYR13       0.0534
     15  CG        14.2470    7.2360   50.1310 C.ar   13  TYR13      -0.0201
     16  CD1       13.5970    6.0270   49.9740 C.ar   13  TYR13      -0.0009
     17  CD2       13.7480    8.1360   51.0670 C.ar   13  TYR13      -0.0009
     18  CE1       12.4650    5.7330   50.6910 C.ar   13  TYR13       0.0417
     19  CE2       12.6190    7.8450   51.8000 C.ar   13  TYR13       0.0417
     20  CZ        11.9880    6.6430   51.6080 C.ar   13  TYR13       0.1957
     21  OH        10.8650    6.3400   52.3200 O.3    13  TYR13      -0.2866
     22  N         10.3750   16.8730   42.7130 N.3    58  TYR58      -0.1241
     23  CA         9.7880   15.5700   42.4170 C.3    58  TYR58       0.1605
     24  C          9.0060   15.5690   41.0870 C.2    58  TYR58       0.2264
     25  O          9.2530   14.7310   40.2120 O.2    58  TYR58      -0.2867
     26  CB         8.9590   15.0810   43.6130 C.3    58  TYR58       0.0534
     27  CG         9.8660   14.6420   44.7530 C.ar   58  TYR58      -0.0201
     28  CD1       10.2160   13.3100   44.8930 C.ar   58  TYR58      -0.0009
     29  CD2       10.4230   15.5690   45.6480 C.ar   58  TYR58      -0.0009
     30  CE1       11.0800   12.8870   45.8880 C.ar   58  TYR58       0.0417
     31  CE2       11.2900   15.1470   46.6800 C.ar   58  TYR58       0.0417
     32  CZ        11.6010   13.8000   46.7810 C.ar   58  TYR58       0.1957
     33  OH        12.4460   13.3250   47.7550 O.3    58  TYR58      -0.2866
     34  N         11.7110    8.2840   46.2370 N.3    86  PRO86      -0.2102
     35  CA        10.4540    8.2270   46.9960 C.3    86  PRO86       0.1504
     36  C          9.4360    9.1710   46.3570 C.2    86  PRO86       0.2576
     37  O          9.0910   10.2220   46.9140 O.2    86  PRO86      -0.2718
     38  CB        10.8700    8.7200   48.3760 C.3    86  PRO86       0.0282
     39  CG        12.0140    9.6500   48.1040 C.3    86  PRO86       0.0208
     40  CD        12.7550    9.0380   46.9520 C.3    86  PRO86       0.0893
     41  N          8.9810    8.7670   45.1750 N.am   87  LEU87      -0.1966
     42  CA         8.1090    9.5460   44.3050 C.3    87  LEU87       0.1728
     43  C          6.6780    9.0140   44.3950 C.2    87  LEU87       0.2616
     44  O          6.3870    7.8810   43.9920 O.2    87  LEU87      -0.2715
     45  CB         8.6220    9.4810   42.8530 C.3    87  LEU87       0.0311
     46  CG         7.7270   10.1150   41.7810 C.3    87  LEU87       0.0022
     47  CD1        7.6650   11.6250   41.9420 C.3    87  LEU87       0.0001
     48  CD2        8.2200    9.7530   40.3940 C.3    87  LEU87       0.0001
     49  N          5.7840    9.8240   44.9530 N.am   88  THR88      -0.1951
     50  CA         4.3940    9.3930   45.1500 C.3    88  THR88       0.1897
     51  C          3.6060    9.2220   43.8450 C.2    88  THR88       0.2313
     52  O          3.6560   10.0710   42.9520 O.2    88  THR88      -0.2863
     53  CB         3.6560   10.3640   46.0980 C.3    88  THR88       0.1794
     54  OG1        4.3970   10.4860   47.3200 O.3    88  THR88      -0.2208
     55  CG2        2.2290    9.8830   46.4110 C.3    88  THR88       0.0378
     56  N          0.1920   12.9480   38.0460 N.3    93  ARG93      -0.1245
     57  CA         1.4060   12.3440   37.4950 C.3    93  ARG93       0.1563
     58  C          1.1200   11.0910   36.6560 C.2    93  ARG93       0.2260
     59  O          1.7610   10.8810   35.6290 O.2    93  ARG93      -0.2867
     60  CB         2.4060   12.0270   38.6080 C.3    93  ARG93       0.0307
     61  CG         3.0300   13.2620   39.2560 C.3    93  ARG93       0.0489
     62  CD         3.7240   12.8490   40.5540 C.3    93  ARG93       0.2205
     63  NE         4.3810   13.9550   41.2360 N.pl3  93  ARG93      -0.0865
     64  CZ         4.8540   13.8780   42.4810 C.cat  93  ARG93       0.5346
     65  NH1        4.7170   12.7570   43.1770 N.pl3  93  ARG93       0.1354
     66  NH2        5.4530   14.9230   43.0300 N.pl3  93  ARG93       0.1354
     67  N          4.4720   22.8370   57.6870 N.3   134  THR134     -0.1203
     68  CA         5.0590   21.8460   56.8050 C.3   134  THR134      0.1994
     69  C          6.0060   22.5390   55.8290 C.2   134  THR134      0.2617
     70  O          6.3230   23.7210   55.9980 O.2   134  THR134     -0.2717
     71  CB         3.9670   21.0480   56.0460 C.3   134  THR134      0.1784
     72  OG1        4.5720   19.9730   55.3100 O.3   134  THR134     -0.2211
     73  CG2        3.1810   21.9520   55.0850 C.3   134  THR134      0.0376
     74  N          6.4550   21.8060   54.8150 N.am  135  LEU135     -0.1979
     75  CA         7.3060   22.3700   53.7780 C.3   135  LEU135      0.1596
     76  C          6.6110   23.5250   53.0630 C.2   135  LEU135      0.2287
     77  O          5.4130   23.4750   52.8070 O.2   135  LEU135     -0.2864
     78  CB         7.6700   21.2950   52.7490 C.3   135  LEU135      0.0297
     79  CG         8.9810   20.5230   52.8770 C.3   135  LEU135      0.0022
     80  CD1        9.2870   19.8410   51.5430 C.3   135  LEU135      0.0001
     81  CD2       10.1340   21.4280   53.3060 C.3   135  LEU135      0.0001
     82  N          5.7590   21.7570   47.5670 N.3   138  GLY138     -0.1210
     83  CA         5.7060   20.3150   47.4340 C.3   138  GLY138      0.1956
     84  C          4.3780   19.6950   47.8170 C.2   138  GLY138      0.2613
     85  O          3.3740   20.3860   47.9870 O.2   138  GLY138     -0.2717
     86  N          4.3830   18.3750   47.9630 N.am  139  SER139     -0.1938
     87  CA         3.1430   17.6060   48.0160 C.3   139  SER139      0.2055
     88  C          2.3090   17.7390   49.3020 C.2   139  SER139      0.2643
     89  O          1.0850   17.6470   49.2480 O.2   139  SER139     -0.2714
     90  CB         3.4270   16.1280   47.7580 C.3   139  SER139      0.2130
     91  OG         4.1950   15.5970   48.8200 O.3   139  SER139     -0.2179
     92  N          2.9480   17.9120   50.4540 N.am  140  THR140     -0.1950
     93  CA         2.1730   17.9660   51.6930 C.3   140  THR140      0.1897
     94  C          1.3950   19.2690   51.7560 C.2   140  THR140      0.2313
     95  O          0.2120   19.2850   52.1190 O.2   140  THR140     -0.2863
     96  CB         3.0520   17.8030   52.9480 C.3   140  THR140      0.1794
     97  OG1        3.6540   16.5030   52.9220 O.3   140  THR140     -0.2208
     98  CG2        2.2060   17.9480   54.2220 C.3   140  THR140      0.0378
     99  N         13.2040   20.0800   54.9200 N.3   171  THR171     -0.1218
    100  CA        12.8820   19.1290   55.9720 C.3   171  THR171      0.1862
    101  C         13.8250   19.2660   57.1650 C.2   171  THR171      0.2287
    102  O         13.3840   19.1900   58.3130 O.2   171  THR171     -0.2866
    103  CB        12.9220   17.6950   55.4400 C.3   171  THR171      0.1770
    104  OG1       11.9640   17.5670   54.3800 O.3   171  THR171     -0.2211
    105  CG2       12.5870   16.7100   56.5310 C.3   171  THR171      0.0375
    106  N          5.2860   19.2890   63.2160 N.3   187  TYR187     -0.1227
    107  CA         5.6230   19.2660   61.7850 C.3   187  TYR187      0.1736
    108  C          4.9180   18.1500   60.9960 C.2   187  TYR187      0.2595
    109  O          4.8560   17.0080   61.4350 O.2   187  TYR187     -0.2718
    110  CB         7.1490   19.1540   61.6070 C.3   187  TYR187      0.0548
    111  CG         7.6460   19.3750   60.1900 C.ar  187  TYR187     -0.0200
    112  CD1        7.5310   20.6140   59.5850 C.ar  187  TYR187     -0.0009
    113  CD2        8.2440   18.3460   59.4670 C.ar  187  TYR187     -0.0009
    114  CE1        7.9930   20.8280   58.2930 C.ar  187  TYR187      0.0417
    115  CE2        8.7000   18.5480   58.1650 C.ar  187  TYR187      0.0417
    116  CZ         8.5730   19.7930   57.5900 C.ar  187  TYR187      0.1957
    117  OH         9.0270   20.0300   56.3120 O.3   187  TYR187     -0.2866
    118  N          4.4010   18.4880   59.8200 N.am  188  LEU188     -0.1966
    119  CA         3.7040   17.5060   58.9890 C.3   188  LEU188      0.1728
    120  C          4.5600   17.0490   57.8010 C.2   188  LEU188      0.2616
    121  O          4.9450   17.8600   56.9640 O.2   188  LEU188     -0.2715
    122  CB         2.3660   18.0810   58.5220 C.3   188  LEU188      0.0311
    123  CG         1.3240   18.1830   59.6490 C.3   188  LEU188      0.0022
    124  CD1        0.2330   19.0580   59.2130 C.3   188  LEU188      0.0001
    125  CD2        0.7320   16.8350   59.9810 C.3   188  LEU188      0.0001
    126  N          4.8510   15.7510   57.7520 N.am  189  LEU189     -0.1963
    127  CA         5.7020   15.1480   56.7210 C.3   189  LEU189      0.1728
    128  C          5.3250   13.6840   56.4780 C.2   189  LEU189      0.2616
    129  O          4.5160   13.1160   57.2010 O.2   189  LEU189     -0.2715
    130  CB         7.1910   15.2430   57.1060 C.3   189  LEU189      0.0311
    131  CG         7.7640   14.2270   58.1080 C.3   189  LEU189      0.0022
    132  CD1        9.2630   14.4630   58.3070 C.3   189  LEU189      0.0001
    133  CD2        7.0550   14.2430   59.4550 C.3   189  LEU189      0.0001
    134  N          5.9130   13.0630   55.4590 N.am  190  GLU190     -0.1977
    135  CA         5.5410   11.6830   55.1380 C.3   190  GLU190      0.1602
    136  C          6.0330   10.6950   56.2050 C.2   190  GLU190      0.2287
    137  O          7.1160   10.8690   56.7600 O.2   190  GLU190     -0.2864
    138  CB         5.9880   11.3340   53.7070 C.3   190  GLU190      0.0415
    139  CG         5.2550   12.2390   52.7080 C.3   190  GLU190      0.1163
    140  CD         5.6740   12.0910   51.2510 C.2   190  GLU190      0.3649
    141  OE1        6.5030   11.2200   50.9170 O.co2 190  GLU190     -0.2457
    142  OE2        5.1480   12.8780   50.4400 O.co2 190  GLU190     -0.2457
    143  N          7.1670    7.7060   56.3470 N.3   192  THR192     -0.1203
    144  CA         8.4580    7.0710   56.0890 C.3   192  THR192      0.1994
    145  C          9.6150    7.8640   56.6950 C.2   192  THR192      0.2617
    146  O         10.4270    7.3270   57.4630 O.2   192  THR192     -0.2717
    147  CB         8.6760    6.9380   54.5700 C.3   192  THR192      0.1784
    148  OG1        8.3120    8.1770   53.9370 O.3   192  THR192     -0.2211
    149  CG2        7.8100    5.8610   54.0370 C.3   192  THR192      0.0376
    150  N          9.6820    9.1470   56.3620 N.am  193  MET193     -0.1979
    151  CA        10.7090   10.0270   56.9040 C.3   193  MET193      0.1605
    152  C         10.5290   10.2780   58.4090 C.2   193  MET193      0.2287
    153  O         11.5050   10.4020   59.1520 O.2   193  MET193     -0.2864
    154  CB        10.7000   11.3600   56.1550 C.3   193  MET193      0.0413
    155  CG        11.6950   12.3750   56.6680 C.3   193  MET193      0.0598
    156  SD        13.3850   12.0070   56.1500 S.3   193  MET193     -0.1393
    157  CE        13.2350   12.4120   54.3930 C.3   193  MET193      0.0692
    158  N          4.8360    5.0180   47.0110 N.3   217  TYR217     -0.1241
    159  CA         5.9170    5.4490   46.1210 C.3   217  TYR217      0.1605
    160  C          6.0010    4.4530   44.9760 C.2   217  TYR217      0.2264
    161  O          5.8940    3.2530   45.1970 O.2   217  TYR217     -0.2867
    162  CB         7.2670    5.4770   46.8410 C.3   217  TYR217      0.0534
    163  CG         7.3860    6.4550   47.9980 C.ar  217  TYR217     -0.0201
    164  CD1        6.6850    7.6500   48.0100 C.ar  217  TYR217     -0.0009
    165  CD2        8.2460    6.1880   49.0680 C.ar  217  TYR217     -0.0009
    166  CE1        6.8150    8.5530   49.0800 C.ar  217  TYR217      0.0417
    167  CE2        8.3760    7.0680   50.1250 C.ar  217  TYR217      0.0417
    168  CZ         7.6630    8.2500   50.1290 C.ar  217  TYR217      0.1957
    169  OH         7.7970    9.1200   51.1970 O.3   217  TYR217     -0.2866
@<TRIPOS>BOND
     1    59    58    2
     2    58    57    1
     3    57    56    1
     4    57    60    1
     5    60    61    1
     6    61    62    1
     7    25    24    2
     8    48    46    1
     9    62    63    1
    10    24    23    1
    11    63    64    2
    12    46    47    1
    13    46    45    1
    14    23    22    1
    15    23    26    1
    16    64    66    1
    17    64    65    1
    18    45    42    1
    19    52    51    2
    20    26    27    1
    21    51    50    1
    22    44    43    2
    23    42    43    1
    24    42    41    1
    25    43    49   am
    26    27    28   ar
    27    27    29   ar
    28    28    30   ar
    29    49    50    1
    30   160   161    2
    31   160   159    1
    32    50    53    1
    33    41    36   am
    34    29    31   ar
    35    30    32   ar
    36    53    55    1
    37    53    54    1
    38   159   162    1
    39   159   158    1
    40    34    40    1
    41    34    35    1
    42    36    37    2
    43    36    35    1
    44    31    32   ar
    45    32    33    1
    46   162   163    1
    47    40    39    1
    48    35    38    1
    49    83    82    1
    50    83    84    1
    51    90    87    1
    52    90    91    1
    53    84    86   am
    54    84    85    2
    55    86    87    1
    56   163   164   ar
    57   163   165   ar
    58   164   166   ar
    59    87    88    1
    60    39    38    1
    61    13    12    2
    62   165   167   ar
    63   166   168   ar
    64    12    11    1
    65     1     2    1
    66    89    88    2
    67    88    92   am
    68    14    11    1
    69    14    15    1
    70     5     2    1
    71     5     6    1
    72     8     7   ar
    73    16    15   ar
    74    16    18   ar
    75    11    10    1
    76   167   168   ar
    77   168   169    1
    78    15    17   ar
    79     2     3    1
    80   142   140   ar
    81    92    93    1
    82     6     7    1
    83    18    20   ar
    84     4     3    2
    85     7     9   ar
    86   141   140   ar
    87    17    19   ar
    88   140   139    1
    89    80    79    1
    90    20    19   ar
    91    20    21    1
    92    93    94    1
    93    93    96    1
    94    94    95    2
    95   139   138    1
    96    78    79    1
    97    78    75    1
    98    77    76    2
    99    79    81    1
   100    97    96    1
   101    96    98    1
   102    76    75    1
   103   138   135    1
   104    75    74    1
   105   148   147    1
   106   149   147    1
   107   104   103    1
   108   157   156    1
   109   147   144    1
   110    74    69   am
   111    99   100    1
   112    73    71    1
   113   135   134    1
   114   135   136    1
   115    72    71    1
   116   103   100    1
   117   103   105    1
   118   134   128   am
   119    69    70    2
   120    69    68    1
   121   100   101    1
   122    71    68    1
   123   144   143    1
   124   144   145    1
   125   156   155    1
   126   154   155    1
   127   154   151    1
   128   136   137    2
   129   117   116    1
   130   150   145   am
   131   150   151    1
   132   128   127    1
   133   128   129    2
   134   145   146    2
   135   127   130    1
   136   127   126    1
   137    68    67    1
   138   151   152    1
   139   121   120    2
   140   130   131    1
   141   101   102    2
   142   116   115   ar
   143   116   114   ar
   144   126   120   am
   145   120   119    1
   146   131   132    1
   147   131   133    1
   148   115   113   ar
   149   114   112   ar
   150   152   153    2
   151   122   119    1
   152   122   123    1
   153   119   118    1
   154   124   123    1
   155   113   111   ar
   156   112   111   ar
   157   123   125    1
   158   118   108   am
   159   111   110    1
   160   108   109    2
   161   108   107    1
   162   110   107    1
   163   107   106    1
