@<TRIPOS>MOLECULE
tmp/5cbsA00.pdb
 134 127 0 0 0
SMALL
GASTEIGER

@<TRIPOS>ATOM
      1  N         65.1770    6.8730   46.3910 N.3    58  TYR58      -0.1241
      2  CA        63.7830    6.5430   46.7030 C.3    58  TYR58       0.1605
      3  C         63.6480    5.8460   48.0530 C.2    58  TYR58       0.2264
      4  O         62.8630    6.2670   48.9100 O.2    58  TYR58      -0.2867
      5  CB        63.1860    5.6830   45.5940 C.3    58  TYR58       0.0534
      6  CG        62.7940    6.5120   44.4010 C.ar   58  TYR58      -0.0201
      7  CD1       61.5460    7.0980   44.3380 C.ar   58  TYR58      -0.0009
      8  CD2       63.6840    6.7450   43.3660 C.ar   58  TYR58      -0.0009
      9  CE1       61.1780    7.8740   43.2670 C.ar   58  TYR58       0.0417
     10  CE2       63.3270    7.5270   42.2810 C.ar   58  TYR58       0.0417
     11  CZ        62.0670    8.0870   42.2400 C.ar   58  TYR58       0.1957
     12  OH        61.6940    8.8790   41.1800 O.3    58  TYR58      -0.2866
     13  N         57.0090    9.5090   43.1150 N.3    86  PRO86      -0.2102
     14  CA        56.6800    8.2530   42.4340 C.3    86  PRO86       0.1504
     15  C         57.3550    7.0520   43.1220 C.2    86  PRO86       0.2576
     16  O         58.2700    6.4210   42.5960 O.2    86  PRO86      -0.2718
     17  CB        57.2040    8.4810   41.0190 C.3    86  PRO86       0.0282
     18  CG        58.3210    9.4560   41.1930 C.3    86  PRO86       0.0208
     19  CD        57.8760   10.3730   42.2950 C.3    86  PRO86       0.0893
     20  N         56.8770    6.7560   44.3240 N.am   87  LEU87      -0.1966
     21  CA        57.4620    5.7290   45.1760 C.3    87  LEU87       0.1728
     22  C         56.6060    4.4850   45.0890 C.2    87  LEU87       0.2616
     23  O         55.4620    4.4690   45.5590 O.2    87  LEU87      -0.2715
     24  CB        57.5300    6.2320   46.6230 C.3    87  LEU87       0.0311
     25  CG        58.1740    5.3580   47.6940 C.3    87  LEU87       0.0022
     26  CD1       59.6960    5.3010   47.5120 C.3    87  LEU87       0.0001
     27  CD2       57.7980    5.8780   49.0920 C.3    87  LEU87       0.0001
     28  N         57.1630    3.4430   44.4810 N.am   88  THR88      -0.1951
     29  CA        56.4400    2.1850   44.2870 C.3    88  THR88       0.1897
     30  C         56.0810    1.4730   45.5940 C.2    88  THR88       0.2313
     31  O         56.9140    1.3270   46.4960 O.2    88  THR88      -0.2863
     32  CB        57.2430    1.2070   43.4090 C.3    88  THR88       0.1794
     33  OG1       57.5710    1.8310   42.1640 O.3    88  THR88      -0.2208
     34  CG2       56.4380   -0.0800   43.1440 C.3    88  THR88       0.0378
     35  N         55.8900   -1.5190   47.6230 N.3    90  THR90      -0.1218
     36  CA        56.5070   -2.8420   47.6390 C.3    90  THR90       0.1862
     37  C         56.3610   -3.4760   49.0280 C.2    90  THR90       0.2287
     38  O         56.1560   -2.7740   50.0230 O.2    90  THR90      -0.2866
     39  CB        58.0210   -2.7810   47.2810 C.3    90  THR90       0.1770
     40  OG1       58.7470   -2.1410   48.3380 O.3    90  THR90      -0.2211
     41  CG2       58.2580   -2.0180   45.9650 C.3    90  THR90       0.0375
     42  N         58.9970   -2.3500   51.6880 N.3    93  ARG93      -0.1245
     43  CA        58.7210   -0.9920   52.1370 C.3    93  ARG93       0.1563
     44  C         57.4740   -0.9250   53.0030 C.2    93  ARG93       0.2260
     45  O         57.4470   -0.2140   54.0010 O.2    93  ARG93      -0.2867
     46  CB        58.5870   -0.0380   50.9590 C.3    93  ARG93       0.0307
     47  CG        59.9120    0.2690   50.2900 C.3    93  ARG93       0.0489
     48  CD        59.6690    0.9190   48.9450 C.3    93  ARG93       0.2205
     49  NE        60.9120    1.3630   48.3100 N.pl3  93  ARG93      -0.0865
     50  CZ        60.9670    1.8690   47.0840 C.cat  93  ARG93       0.5346
     51  NH1       59.8560    1.9570   46.3680 N.pl3  93  ARG93       0.1354
     52  NH2       62.1290    2.2660   46.5640 N.pl3  93  ARG93       0.1354
     53  N         50.7890    1.3120   37.1930 N.3   106  LEU106     -0.1231
     54  CA        51.7930    1.2050   36.1390 C.3   106  LEU106      0.1693
     55  C         52.3880   -0.1910   36.0770 C.2   106  LEU106      0.2593
     56  O         52.0340   -1.0610   36.8690 O.2   106  LEU106     -0.2718
     57  CB        52.9090    2.2210   36.3760 C.3   106  LEU106      0.0284
     58  CG        53.7810    1.9940   37.6310 C.3   106  LEU106      0.0019
     59  CD1       55.2070    2.4820   37.3810 C.3   106  LEU106      0.0001
     60  CD2       53.2000    2.6610   38.8800 C.3   106  LEU106      0.0001
     61  N         53.3040   -0.3950   35.1330 N.am  107  GLY107     -0.1942
     62  CA        53.9510   -1.6810   34.9710 C.3   107  GLY107      0.2014
     63  C         55.2320   -1.5770   34.1610 C.2   107  GLY107      0.2638
     64  O         55.5210   -0.5350   33.5900 O.2   107  GLY107     -0.2714
     65  N         56.0040   -2.6580   34.1310 N.am  108  ILE108     -0.1977
     66  CA        57.2040   -2.7080   33.2940 C.3   108  ILE108      0.1596
     67  C         56.7550   -2.6590   31.8420 C.2   108  ILE108      0.2287
     68  O         55.7470   -3.2650   31.4850 O.2   108  ILE108     -0.2864
     69  CB        58.0140   -3.9830   33.5610 C.3   108  ILE108      0.0276
     70  CG1       58.5570   -3.9650   34.9900 C.3   108  ILE108      0.0022
     71  CG2       59.1720   -4.1190   32.5660 C.3   108  ILE108      0.0022
     72  CD1       59.3840   -5.1930   35.3180 C.3   108  ILE108      0.0001
     73  N         64.0800   -3.6820   41.3210 N.3   139  SER139     -0.1202
     74  CA        62.9250   -4.5350   41.1160 C.3   139  SER139      0.2020
     75  C         62.6080   -4.8910   39.6570 C.2   139  SER139      0.2619
     76  O         62.0470   -5.9490   39.4010 O.2   139  SER139     -0.2717
     77  CB        61.7000   -3.9470   41.8260 C.3   139  SER139      0.2103
     78  OG        61.9390   -3.8380   43.2300 O.3   139  SER139     -0.2182
     79  N         62.9430   -4.0220   38.7060 N.am  140  THR140     -0.1952
     80  CA        62.6440   -4.3110   37.3060 C.3   140  THR140      0.1897
     81  C         63.5720   -5.3930   36.7490 C.2   140  THR140      0.2313
     82  O         63.1940   -6.1420   35.8420 O.2   140  THR140     -0.2863
     83  CB        62.6690   -3.0370   36.4020 C.3   140  THR140      0.1794
     84  OG1       63.9970   -2.5070   36.3200 O.3   140  THR140     -0.2208
     85  CG2       61.7420   -1.9720   36.9680 C.3   140  THR140      0.0378
     86  N         62.4060   -8.7220   38.5450 N.3   143  PHE143     -0.1241
     87  CA        61.1710   -9.1960   37.9260 C.3   143  PHE143      0.1605
     88  C         61.4660  -10.3050   36.9270 C.2   143  PHE143      0.2264
     89  O         60.7520  -11.3030   36.8570 O.2   143  PHE143     -0.2867
     90  CB        60.4290   -8.0570   37.2210 C.3   143  PHE143      0.0534
     91  CG        59.2180   -8.5190   36.4560 C.ar  143  PHE143     -0.0203
     92  CD1       58.0050   -8.6910   37.0960 C.ar  143  PHE143     -0.0042
     93  CD2       59.3020   -8.8110   35.1090 C.ar  143  PHE143     -0.0042
     94  CE1       56.8880   -9.1270   36.3960 C.ar  143  PHE143     -0.0003
     95  CE2       58.1900   -9.2450   34.4010 C.ar  143  PHE143     -0.0003
     96  CZ        56.9820   -9.4090   35.0500 C.ar  143  PHE143     -0.0000
     97  N         59.7450    1.5490   33.6910 N.3   190  GLU190     -0.1245
     98  CA        58.3980    1.8830   34.1710 C.3   190  GLU190      0.1567
     99  C         57.5830    2.5380   33.0650 C.2   190  GLU190      0.2260
    100  O         58.0770    3.4130   32.3550 O.2   190  GLU190     -0.2867
    101  CB        58.4680    2.8130   35.3720 C.3   190  GLU190      0.0388
    102  CG        58.9080    2.1350   36.6620 C.3   190  GLU190      0.1160
    103  CD        59.5060    3.1260   37.6450 C.2   190  GLU190      0.3649
    104  OE1       58.7710    3.6100   38.5390 O.co2 190  GLU190     -0.2457
    105  OE2       60.7160    3.4210   37.5170 O.co2 190  GLU190     -0.2457
    106  N         53.3450   -6.1970   33.8550 N.3   213  ASP213     -0.1239
    107  CA        52.8090   -6.4380   35.1940 C.3   213  ASP213      0.1674
    108  C         52.0750   -5.1930   35.6750 C.2   213  ASP213      0.2266
    109  O         51.9120   -4.2410   34.9170 O.2   213  ASP213     -0.2867
    110  CB        53.9120   -6.8360   36.1810 C.3   213  ASP213      0.1410
    111  CG        54.8370   -5.6690   36.5600 C.2   213  ASP213      0.3668
    112  OD1       54.9560   -4.6880   35.7940 O.co2 213  ASP213     -0.2456
    113  OD2       55.4560   -5.7470   37.6390 O.co2 213  ASP213     -0.2456
    114  N         51.8180   -2.5250   39.1080 N.3   215  LYS215     -0.1245
    115  CA        52.1850   -2.0280   40.4380 C.3   215  LYS215      0.1561
    116  C         51.6400   -0.6120   40.5850 C.2   215  LYS215      0.2260
    117  O         51.0630   -0.0640   39.6450 O.2   215  LYS215     -0.2867
    118  CB        53.7090   -2.0080   40.6050 C.3   215  LYS215      0.0271
    119  CG        54.3960   -3.3540   40.3650 C.3   215  LYS215      0.0035
    120  CD        54.0380   -4.3690   41.4560 C.3   215  LYS215      0.0206
    121  CE        54.6550   -5.7520   41.1960 C.3   215  LYS215      0.1093
    122  NZ        54.1350   -6.3990   39.9540 N.3   215  LYS215     -0.1314
    123  N         52.2040    3.4880   42.6190 N.3   217  TYR217     -0.1241
    124  CA        52.8960    4.4490   43.4660 C.3   217  TYR217      0.1605
    125  C         51.9610    4.8370   44.5980 C.2   217  TYR217      0.2264
    126  O         50.7610    5.0180   44.3990 O.2   217  TYR217     -0.2867
    127  CB        53.2200    5.7260   42.6880 C.3   217  TYR217      0.0534
    128  CG        54.1640    5.5870   41.5100 C.ar  217  TYR217     -0.0201
    129  CD1       55.1610    4.6160   41.4830 C.ar  217  TYR217     -0.0009
    130  CD2       54.0650    6.4610   40.4260 C.ar  217  TYR217     -0.0009
    131  CE1       56.0400    4.5180   40.3920 C.ar  217  TYR217      0.0417
    132  CE2       54.9160    6.3700   39.3430 C.ar  217  TYR217      0.0417
    133  CZ        55.9090    5.4040   39.3290 C.ar  217  TYR217      0.1957
    134  OH        56.7520    5.3240   38.2420 O.3   217  TYR217     -0.2866
@<TRIPOS>BOND
     1    68    67    2
     2    67    66    1
     3   100    99    2
     4    71    69    1
     5    99    98    1
     6    66    69    1
     7    66    65    1
     8    69    70    1
     9    64    63    2
    10    97    98    1
    11   106   107    1
    12    65    63   am
    13    63    62    1
    14    98   101    1
    15    95    96   ar
    16    95    93   ar
    17   109   108    2
    18    62    61    1
    19    70    72    1
    20    96    94   ar
    21    93    91   ar
    22    61    55   am
    23   107   108    1
    24   107   110    1
    25   101   102    1
    26   112   111   ar
    27    82    81    2
    28    55    54    1
    29    55    56    2
    30    54    57    1
    31    54    53    1
    32   110   111    1
    33    84    83    1
    34    57    58    1
    35    94    92   ar
    36    83    85    1
    37    83    80    1
    38    91    92   ar
    39    91    90    1
    40   111   113   ar
    41   102   103    1
    42    81    80    1
    43    89    88    2
    44    88    87    1
    45    90    87    1
    46    80    79    1
    47    59    58    1
    48   105   103   ar
    49    58    60    1
    50   103   104   ar
    51    87    86    1
    52   134   133    1
    53    79    75   am
    54   114   115    1
    55   133   132   ar
    56   133   131   ar
    57   132   130   ar
    58    76    75    2
    59   117   116    2
    60    75    74    1
    61   122   121    1
    62   119   118    1
    63   119   120    1
    64   131   129   ar
    65   130   128   ar
    66   115   116    1
    67   115   118    1
    68    17    18    1
    69    17    14    1
    70    74    73    1
    71    74    77    1
    72    12    11    1
    73    18    19    1
    74   121   120    1
    75   129   128   ar
    76   128   127    1
    77    77    78    1
    78    33    32    1
    79    11    10   ar
    80    11     9   ar
    81    10     8   ar
    82    19    13    1
    83    14    13    1
    84    14    15    1
    85    16    15    2
    86   123   124    1
    87   127   124    1
    88    15    20   am
    89    34    32    1
    90     9     7   ar
    91     8     6   ar
    92    32    29    1
    93   124   125    1
    94    29    28    1
    95    29    30    1
    96    20    21    1
    97     7     6   ar
    98   126   125    2
    99     6     5    1
   100    28    22   am
   101    22    21    1
   102    22    23    2
   103    21    24    1
   104     5     2    1
   105    30    31    2
   106    41    39    1
   107    51    50    1
   108     1     2    1
   109    52    50    1
   110    24    25    1
   111     2     3    1
   112    50    49    2
   113    39    36    1
   114    39    40    1
   115    26    25    1
   116    35    36    1
   117    36    37    1
   118    25    27    1
   119     3     4    2
   120    49    48    1
   121    48    47    1
   122    37    38    2
   123    47    46    1
   124    46    43    1
   125    42    43    1
   126    43    44    1
   127    44    45    2
