@<TRIPOS>MOLECULE
tmp/5cbtA00.pdb
 142 134 0 0 0
SMALL
GASTEIGER

@<TRIPOS>ATOM
      1  N          6.1210   -9.0690   -3.5250 N.3    53  HIS53      -0.1226
      2  CA         5.1910   -8.4410   -4.4670 C.3    53  HIS53       0.1752
      3  C          5.2800   -6.9360   -4.4280 C.2    53  HIS53       0.2592
      4  O          4.7040   -6.3220   -5.3630 O.2    53  HIS53      -0.2718
      5  CB         3.7440   -8.8460   -4.1780 C.3    53  HIS53       0.0759
      6  CG         3.2860   -8.4270   -2.8160 C.ar   53  HIS53       0.0818
      7  ND1        2.5730   -7.2960   -2.4940 N.ar   53  HIS53      -0.2268
      8  CD2        3.4820   -9.0740   -1.6270 C.ar   53  HIS53       0.1154
      9  CE1        2.3880   -7.2180   -1.1810 C.ar   53  HIS53       0.1986
     10  NE2        2.9290   -8.3210   -0.6570 N.ar   53  HIS53      -0.2212
     11  N          5.8790   -6.2550   -3.4590 N.am   54  ARG54      -0.2033
     12  CA         5.9010   -4.8460   -3.3780 C.3    54  ARG54       0.1283
     13  C          7.2740   -4.4550   -2.8720 C.3    54  ARG54       0.2036
     14  O          7.5990   -4.6830   -1.6190 O.3    54  ARG54      -0.2185
     15  CB         4.8150   -4.2940   -2.4210 C.3    54  ARG54       0.0281
     16  CG         4.7750   -2.8020   -2.3190 C.3    54  ARG54       0.0488
     17  CD         3.4330   -2.3280   -1.8460 C.3    54  ARG54       0.2205
     18  NE         3.6410   -2.0480   -0.5470 N.pl3  54  ARG54      -0.0865
     19  CZ         3.5890   -0.8650    0.0620 C.cat  54  ARG54       0.5346
     20  NH1        3.7750   -0.9130    1.4340 N.pl3  54  ARG54       0.1354
     21  NH2        3.3900    0.2490   -0.5340 N.pl3  54  ARG54       0.1354
     22  N         13.1890    2.1980    0.9690 N.3    59  PHE59      -0.1227
     23  CA        12.1290    2.0190    1.9700 C.3    59  PHE59       0.1736
     24  C         12.1250    0.5770    2.5030 C.2    59  PHE59       0.2595
     25  O         12.6160    0.3510    3.6190 O.2    59  PHE59      -0.2718
     26  CB        10.7380    2.4340    1.3430 C.3    59  PHE59       0.0547
     27  CG         9.5200    2.3110    2.2500 C.ar   59  PHE59      -0.0202
     28  CD1        9.6410    2.2280    3.6760 C.ar   59  PHE59      -0.0042
     29  CD2        8.2400    2.3130    1.7330 C.ar   59  PHE59      -0.0042
     30  CE1        8.5380    2.1080    4.4420 C.ar   59  PHE59      -0.0003
     31  CE2        7.1360    2.1380    2.5290 C.ar   59  PHE59      -0.0003
     32  CZ         7.2790    2.1450    3.8820 C.ar   59  PHE59      -0.0000
     33  N         11.5440   -0.3580    1.7640 N.am   60  MET60      -0.1979
     34  CA        11.3860   -1.7490    2.2640 C.3    60  MET60       0.1605
     35  C         11.0300   -2.7350    1.1950 C.2    60  MET60       0.2287
     36  O         10.6990   -2.3220    0.0290 O.2    60  MET60      -0.2864
     37  CB        10.3670   -1.8260    3.4340 C.3    60  MET60       0.0413
     38  CG         8.9790   -1.3580    3.0330 C.3    60  MET60       0.0598
     39  SD         7.9940   -2.6130    2.2180 S.3    60  MET60      -0.1393
     40  CE         7.3480   -1.7540    0.7830 C.3    60  MET60       0.0692
     41  N          8.5810   -6.0870    0.6330 N.3    62  GLN62      -0.1245
     42  CA         7.3600   -6.7130    1.2300 C.3    62  GLN62       0.1566
     43  C          6.9730   -7.9960    0.5470 C.2    62  GLN62       0.2260
     44  O          7.0320   -8.1080   -0.6930 O.2    62  GLN62      -0.2867
     45  CB         6.1810   -5.7250    1.1920 C.3    62  GLN62       0.0367
     46  CG         4.9300   -6.1380    1.9710 C.3    62  GLN62       0.0905
     47  CD         3.8610   -5.0550    1.9730 C.2    62  GLN62       0.2608
     48  OE1        4.2100   -3.8550    1.8960 O.2    62  GLN62      -0.2717
     49  NE2        2.6030   -5.4020    2.1230 N.am   62  GLN62      -0.0878
     50  N         -0.7780   -8.5360   -2.4410 N.3    71  GLY71      -0.1210
     51  CA        -0.9960   -7.6560   -1.3380 C.3    71  GLY71       0.1956
     52  C         -2.3100   -7.5840   -0.6990 C.2    71  GLY71       0.2613
     53  O         -2.5840   -7.0390    0.4380 O.2    71  GLY71      -0.2717
     54  N         -3.2560   -8.2740   -1.3140 N.am   72  THR72      -0.1938
     55  CA        -4.5790   -8.3800   -0.7530 C.3    72  THR72       0.2028
     56  C         -4.7640   -9.4840    0.2130 C.2    72  THR72       0.2642
     57  O         -5.8130   -9.5190    0.9390 O.2    72  THR72      -0.2714
     58  CB        -5.7160   -8.4170   -1.8600 C.3    72  THR72       0.1808
     59  OG1       -5.5830   -9.5310   -2.6220 O.3    72  THR72      -0.2208
     60  CG2       -5.5460   -7.1250   -2.7580 C.3    72  THR72       0.0379
     61  N         -3.9240  -10.5350    0.1240 N.am   73  GLY73      -0.1954
     62  CA        -4.1830  -11.8430    0.8210 C.3    73  GLY73       0.1869
     63  C         -3.1610  -12.2060    1.9150 C.2    73  GLY73       0.2309
     64  O         -2.6420  -11.3380    2.6040 O.2    73  GLY73      -0.2863
     65  N         -6.6770  -13.5400   10.5390 N.3    81  ARG81      -0.1245
     66  CA        -5.9880  -12.3820   11.1540 C.3    81  ARG81       0.1563
     67  C         -5.7700  -12.6160   12.6380 C.2    81  ARG81       0.2260
     68  O         -6.5170  -13.4120   13.2680 O.2    81  ARG81      -0.2867
     69  CB        -6.7020  -11.0550   10.9240 C.3    81  ARG81       0.0307
     70  CG        -6.9830  -10.9200    9.3970 C.3    81  ARG81       0.0489
     71  CD        -7.7950   -9.7360    8.8480 C.3    81  ARG81       0.2205
     72  NE        -8.8720   -9.4060    9.7490 N.pl3  81  ARG81      -0.0865
     73  CZ        -9.7230   -8.3830    9.6030 C.cat  81  ARG81       0.5346
     74  NH1       -9.6810   -7.5940    8.5310 N.pl3  81  ARG81       0.1354
     75  NH2      -10.5950   -8.1550   10.5930 N.pl3  81  ARG81       0.1354
     76  N          3.3580   -6.4400    7.9740 N.3   100  ALA100     -0.1231
     77  CA         2.4140   -5.5720    7.2170 C.3   100  ALA100      0.1694
     78  C          0.9780   -5.7310    7.7560 C.2   100  ALA100      0.2592
     79  O          0.6920   -6.7270    8.4360 O.2   100  ALA100     -0.2718
     80  CB         2.4730   -6.0070    5.7630 C.3   100  ALA100      0.0304
     81  N          0.1650   -4.7140    7.5470 N.am  101  ASN101     -0.1960
     82  CA        -1.2220   -4.8030    8.0620 C.3   101  ASN101      0.1819
     83  C         -2.1090   -3.9100    7.2000 C.2   101  ASN101      0.2621
     84  O         -1.6030   -3.1320    6.3480 O.2   101  ASN101     -0.2715
     85  CB        -1.2560   -4.5940    9.5450 C.3   101  ASN101      0.1195
     86  CG        -0.9410   -3.1910    9.9660 C.2   101  ASN101      0.2630
     87  OD1       -1.4470   -2.2320    9.3830 O.2   101  ASN101     -0.2716
     88  ND2       -0.0490   -3.0280   10.9860 N.am  101  ASN101     -0.0877
     89  N         -3.4400   -4.0200    7.5070 N.am  102  ALA102     -0.1977
     90  CA        -4.4820   -3.1360    6.9230 C.3   102  ALA102      0.1597
     91  C         -5.1500   -2.3490    8.0090 C.2   102  ALA102      0.2287
     92  O         -6.3840   -2.1740    7.9750 O.2   102  ALA102     -0.2864
     93  CB        -5.4800   -4.0140    6.1210 C.3   102  ALA102      0.0319
     94  N         -4.8740   -6.5920   12.3550 N.3   106  THR106     -0.1218
     95  CA        -5.0710   -7.2370   11.0560 C.3   106  THR106      0.1862
     96  C         -3.8660   -7.9980   10.5210 C.2   106  THR106      0.2287
     97  O         -3.7220   -8.2740    9.3030 O.2   106  THR106     -0.2866
     98  CB        -5.5810   -6.2890    9.9350 C.3   106  THR106      0.1770
     99  OG1       -4.6290   -5.2460    9.7420 O.3   106  THR106     -0.2211
    100  CG2       -6.9180   -5.6250   10.3480 C.3   106  THR106      0.0375
    101  N         -1.5670  -11.0100    9.3440 N.3   108  GLY108     -0.1225
    102  CA        -1.8340  -12.2810    8.7380 C.3   108  GLY108      0.1811
    103  C         -0.5110  -12.9770    8.4580 C.2   108  GLY108      0.2280
    104  O          0.0540  -13.5870    9.3710 O.2   108  GLY108     -0.2866
    105  N          1.6470  -11.3230    5.7600 N.3   110  GLN110     -0.1245
    106  CA         2.5190  -10.4390    5.0060 C.3   110  GLN110      0.1566
    107  C          3.4470   -9.7480    5.9480 C.2   110  GLN110      0.2260
    108  O          3.1110   -9.3810    7.1310 O.2   110  GLN110     -0.2867
    109  CB         1.6950   -9.3760    4.2210 C.3   110  GLN110      0.0367
    110  CG         0.9120   -9.9230    3.0330 C.3   110  GLN110      0.0905
    111  CD         0.3120   -8.8250    2.2250 C.2   110  GLN110      0.2608
    112  OE1        0.9660   -7.8590    1.8570 O.2   110  GLN110     -0.2717
    113  NE2       -0.9960   -8.9460    2.0210 N.am  110  GLN110     -0.0878
    114  N          7.5340   -7.2900    6.0340 N.3   112  PHE112     -0.1241
    115  CA         8.5220   -6.4810    5.2820 C.3   112  PHE112      0.1605
    116  C          9.8450   -6.4810    5.9670 C.2   112  PHE112      0.2264
    117  O          9.9300   -6.6140    7.2200 O.2   112  PHE112     -0.2867
    118  CB         7.9870   -5.0530    4.9510 C.3   112  PHE112      0.0534
    119  CG         7.6640   -4.1990    6.1340 C.ar  112  PHE112     -0.0203
    120  CD1        6.4280   -4.3160    6.8290 C.ar  112  PHE112     -0.0042
    121  CD2        8.5340   -3.1500    6.6120 C.ar  112  PHE112     -0.0042
    122  CE1        6.1130   -3.5140    7.8970 C.ar  112  PHE112     -0.0003
    123  CE2        8.1860   -2.3620    7.6920 C.ar  112  PHE112     -0.0003
    124  CZ         6.9540   -2.5580    8.3220 C.ar  112  PHE112     -0.0000
    125  N          6.6460    4.2150   11.3770 N.3   121  LEU121     -0.1245
    126  CA         5.8500    2.9920   11.5950 C.3   121  LEU121      0.1561
    127  C          5.7420    2.4990   13.0260 C.2   121  LEU121      0.2260
    128  O          4.9950    1.5390   13.3480 O.2   121  LEU121     -0.2867
    129  CB         6.2920    1.9110   10.6210 C.3   121  LEU121      0.0270
    130  CG         6.3260    2.2590    9.1390 C.3   121  LEU121      0.0019
    131  CD1        6.7950    1.0530    8.3520 C.3   121  LEU121      0.0001
    132  CD2        4.9290    2.6870    8.6630 C.3   121  LEU121      0.0001
    133  N          3.0280   -0.9070   13.3150 N.3   125  HIS125     -0.1241
    134  CA         3.4280   -2.2230   12.8220 C.3   125  HIS125      0.1621
    135  C          4.2220   -2.9660   13.8430 C.2   125  HIS125      0.2264
    136  O          5.0960   -2.3400   14.4810 O.2   125  HIS125     -0.2867
    137  CB         4.2150   -2.0880   11.5040 C.3   125  HIS125      0.0745
    138  CG         3.3840   -1.4930   10.3830 C.ar  125  HIS125      0.0817
    139  ND1        2.7680   -2.2770    9.4330 N.ar  125  HIS125     -0.2268
    140  CD2        3.0290   -0.1970   10.1400 C.ar  125  HIS125      0.1154
    141  CE1        2.0500   -1.4730    8.6470 C.ar  125  HIS125      0.1986
    142  NE2        2.1830   -0.2190    9.0340 N.ar  125  HIS125     -0.2212
@<TRIPOS>BOND
     1     4     3    2
     2     2     3    1
     3     2     5    1
     4     2     1    1
     5     3    11   am
     6     5     6    1
     7    11    12    1
     8    12    13    1
     9    12    15    1
    10    13    14    1
    11     6     7   ar
    12     6     8   ar
    13    60    58    1
    14    59    58    1
    15     7     9   ar
    16    50    51    1
    17    15    16    1
    18    16    17    1
    19    58    55    1
    20    17    18    1
    21     8    10   ar
    22    51    52    1
    23    54    55    1
    24    54    52   am
    25     9    10   ar
    26    55    56    1
    27    52    53    2
    28    44    43    2
    29    18    19    2
    30    21    19    1
    31    36    35    2
    32    19    20    1
    33    61    56   am
    34    61    62    1
    35    56    57    2
    36    43    42    1
    37    41    42    1
    38    40    39    1
    39    62    63    1
    40    22    23    1
    41    45    42    1
    42    45    46    1
    43    35    34    1
    44    26    23    1
    45    26    27    1
    46    29    27   ar
    47    29    31   ar
    48    33    34    1
    49    33    24   am
    50   112   111    2
    51    48    47    2
    52    63    64    2
    53    23    24    1
    54    46    47    1
    55    47    49   am
    56   113   111   am
    57    39    38    1
    58   111   110    1
    59    27    28   ar
    60    34    37    1
    61    24    25    2
    62    31    32   ar
    63    38    37    1
    64   110   109    1
    65    28    30   ar
    66    32    30   ar
    67   109   106    1
    68   118   115    1
    69   118   119    1
    70   106   105    1
    71   106   107    1
    72   115   116    1
    73   115   114    1
    74    80    77    1
    75   107   108    2
    76   116   117    2
    77    93    90    1
    78   119   121   ar
    79   119   120   ar
    80    84    83    2
    81   121   123   ar
    82   120   122   ar
    83    90    89    1
    84    90    91    1
    85    83    89   am
    86    83    82    1
    87    77    78    1
    88    77    76    1
    89    81    78   am
    90    81    82    1
    91   123   124   ar
    92    78    79    2
    93   122   124   ar
    94    92    91    2
    95    82    85    1
    96   131   130    1
    97   103   102    1
    98   103   104    2
    99    74    73    1
   100   141   142   ar
   101   141   139   ar
   102   132   130    1
   103   102   101    1
   104    71    70    1
   105    71    72    1
   106   142   140   ar
   107   130   129    1
   108    97    96    2
   109    87    86    2
   110    70    69    1
   111   139   138   ar
   112    85    86    1
   113    73    72    2
   114    73    75    1
   115    99    98    1
   116    98   100    1
   117    98    95    1
   118    86    88   am
   119   140   138   ar
   120   138   137    1
   121    96    95    1
   122    65    66    1
   123   129   126    1
   124    69    66    1
   125    95    94    1
   126    66    67    1
   127   125   126    1
   128   137   134    1
   129   126   127    1
   130    67    68    2
   131   134   133    1
   132   134   135    1
   133   127   128    2
   134   135   136    2
