@<TRIPOS>MOLECULE
tmp/5cbuA02.pdb
 158 151 0 0 0
SMALL
GASTEIGER

@<TRIPOS>ATOM
      1  N          6.2070   -9.1200   -3.5670 N.3    53  HIS53      -0.1226
      2  CA         5.2740   -8.4750   -4.5300 C.3    53  HIS53       0.1752
      3  C          5.3690   -6.9650   -4.5120 C.2    53  HIS53       0.2592
      4  O          4.7900   -6.3240   -5.4300 O.2    53  HIS53      -0.2718
      5  CB         3.8150   -8.8920   -4.2680 C.3    53  HIS53       0.0759
      6  CG         3.2620   -8.3610   -2.9990 C.ar   53  HIS53       0.0818
      7  ND1        3.4570   -8.9960   -1.7860 N.ar   53  HIS53      -0.2268
      8  CD2        2.5480   -7.2570   -2.7330 C.ar   53  HIS53       0.1154
      9  CE1        2.9020   -8.2580   -0.8460 C.ar   53  HIS53       0.1986
     10  NE2        2.3390   -7.1950   -1.3820 N.ar   53  HIS53      -0.2212
     11  N          5.9670   -6.3150   -3.5010 N.am   54  ARG54      -0.2033
     12  CA         5.9560   -4.8880   -3.4130 C.3    54  ARG54       0.1283
     13  C          7.3100   -4.5270   -2.9150 C.3    54  ARG54       0.2036
     14  O          7.6150   -4.7660   -1.6720 O.3    54  ARG54      -0.2185
     15  CB         4.8480   -4.3380   -2.5130 C.3    54  ARG54       0.0281
     16  CG         4.7210   -2.8760   -2.5050 C.3    54  ARG54       0.0488
     17  CD         3.3710   -2.4350   -1.9590 C.3    54  ARG54       0.2205
     18  NE         3.5220   -2.2210   -0.6560 N.pl3  54  ARG54      -0.0865
     19  CZ         3.6980   -1.0430   -0.0320 C.cat  54  ARG54       0.5346
     20  NH1        3.8310   -1.0170    1.3250 N.pl3  54  ARG54       0.1354
     21  NH2        3.6910    0.0160   -0.6760 N.pl3  54  ARG54       0.1354
     22  N         13.2470    2.1810    0.9540 N.3    59  PHE59      -0.1227
     23  CA        12.1470    1.9750    1.9360 C.3    59  PHE59       0.1736
     24  C         12.1700    0.5490    2.4130 C.2    59  PHE59       0.2592
     25  O         12.5960    0.3250    3.5940 O.2    59  PHE59      -0.2718
     26  CB        10.7750    2.4000    1.2780 C.3    59  PHE59       0.0547
     27  CG         9.5440    2.2540    2.1610 C.ar   59  PHE59      -0.0202
     28  CD1        9.6390    2.2420    3.5630 C.ar   59  PHE59      -0.0042
     29  CD2        8.2510    2.2750    1.6130 C.ar   59  PHE59      -0.0042
     30  CE1        8.5490    2.1610    4.3650 C.ar   59  PHE59      -0.0003
     31  CE2        7.1320    2.1290    2.4180 C.ar   59  PHE59      -0.0003
     32  CZ         7.2930    2.1520    3.7680 C.ar   59  PHE59      -0.0000
     33  N         11.5860   -0.3770    1.6690 N.am   60  MET60      -0.2032
     34  CA        11.3810   -1.7470    2.1990 C.3    60  MET60       0.1291
     35  C         11.0760   -2.7360    1.1650 C.3    60  MET60       0.2036
     36  O         10.7130   -2.3510   -0.0090 O.3    60  MET60      -0.2185
     37  CB        10.3250   -1.8150    3.3500 C.3    60  MET60       0.0360
     38  CG         8.9160   -1.3760    2.9300 C.3    60  MET60       0.0594
     39  SD         7.9990   -2.6450    2.1200 S.3    60  MET60      -0.1393
     40  CE         7.4000   -1.8290    0.6370 C.3    60  MET60       0.0692
     41  N          8.6190   -6.0940    0.5930 N.3    62  GLN62      -0.1245
     42  CA         7.3800   -6.7220    1.1750 C.3    62  GLN62       0.1566
     43  C          7.0540   -8.0140    0.5410 C.2    62  GLN62       0.2260
     44  O          7.1150   -8.1180   -0.7340 O.2    62  GLN62      -0.2867
     45  CB         6.2300   -5.7430    1.1350 C.3    62  GLN62       0.0367
     46  CG         4.9010   -6.2380    1.8010 C.3    62  GLN62       0.0905
     47  CD         3.8600   -5.1850    1.8670 C.2    62  GLN62       0.2608
     48  OE1        4.1360   -3.9650    1.7760 O.2    62  GLN62      -0.2717
     49  NE2        2.6230   -5.5920    2.0280 N.am   62  GLN62      -0.0878
     50  N         -0.5940   -8.6430   -2.4710 N.3    71  GLY71      -0.1210
     51  CA        -0.9860   -7.8580   -1.3210 C.3    71  GLY71       0.1956
     52  C         -2.3930   -7.9180   -0.8130 C.2    71  GLY71       0.2613
     53  O         -2.6970   -7.3170    0.2320 O.2    71  GLY71      -0.2717
     54  N         -3.2010   -8.6790   -1.5100 N.am   72  THR72      -0.1938
     55  CA        -4.5780   -8.8420   -1.1550 C.3    72  THR72       0.2028
     56  C         -4.8510  -10.1010   -0.3460 C.2    72  THR72       0.2643
     57  O         -5.9930  -10.2060    0.1630 O.2    72  THR72      -0.2714
     58  CB        -5.5400   -8.8550   -2.4040 C.3    72  THR72       0.1808
     59  OG1       -5.3210   -9.9160   -3.1990 O.3    72  THR72      -0.2208
     60  CG2       -5.3150   -7.4900   -3.2230 C.3    72  THR72       0.0379
     61  N         -3.8700  -11.0040   -0.1980 N.am   73  GLY73      -0.1939
     62  CA        -4.0960  -12.3390    0.4070 C.3    73  GLY73       0.2014
     63  C         -3.1140  -12.6170    1.6040 C.2    73  GLY73       0.2639
     64  O         -2.5950  -11.7420    2.2360 O.2    73  GLY73      -0.2714
     65  N         -2.9660  -13.9020    1.7410 N.am   74  GLY74      -0.1954
     66  CA        -2.2340  -14.5300    2.9290 C.3    74  GLY74       0.1869
     67  C         -3.1360  -14.8120    4.0600 C.2    74  GLY74       0.2309
     68  O         -4.3430  -14.4570    4.0940 O.2    74  GLY74      -0.2863
     69  N         -7.5330  -16.1390    9.8460 N.3    80  SER80      -0.1202
     70  CA        -7.3000  -15.1920    8.7480 C.3    80  SER80       0.2020
     71  C         -6.5890  -13.9500    9.1840 C.2    80  SER80       0.2615
     72  O         -5.8910  -13.3130    8.3150 O.2    80  SER80      -0.2717
     73  CB        -8.6650  -14.7470    8.1360 C.3    80  SER80       0.2103
     74  OG        -9.5280  -14.0150    8.8500 O.3    80  SER80      -0.2182
     75  N         -6.6610  -13.5380   10.4140 N.am   81  ARG81      -0.2032
     76  CA        -5.9870  -12.3740   10.9840 C.3    81  ARG81       0.1283
     77  C         -5.7930  -12.5450   12.4980 C.3    81  ARG81       0.2036
     78  O         -6.5590  -13.3650   13.1530 O.3    81  ARG81      -0.2185
     79  CB        -6.7770  -11.0760   10.7370 C.3    81  ARG81       0.0281
     80  CG        -8.2460  -11.1860   11.0940 C.3    81  ARG81       0.0488
     81  CD        -9.0120   -9.8910   10.9500 C.3    81  ARG81       0.2205
     82  NE        -9.1940   -9.3700    9.5590 N.pl3  81  ARG81      -0.0865
     83  CZ        -9.8470   -8.2450    9.3700 C.cat  81  ARG81       0.5346
     84  NH1       -9.9820   -7.8800    8.1050 N.pl3  81  ARG81       0.1354
     85  NH2      -10.3440   -7.5550   10.3350 N.pl3  81  ARG81       0.1354
     86  N          3.3590   -6.4150    7.8710 N.3   100  ALA100     -0.1231
     87  CA         2.4300   -5.5550    7.0930 C.3   100  ALA100      0.1694
     88  C          1.0020   -5.7030    7.5910 C.2   100  ALA100      0.2592
     89  O          0.6870   -6.6870    8.3060 O.2   100  ALA100     -0.2718
     90  CB         2.5040   -6.0210    5.6620 C.3   100  ALA100      0.0304
     91  N          0.1780   -4.6950    7.3750 N.am  101  ASN101     -0.1960
     92  CA        -1.2190   -4.7610    7.8590 C.3   101  ASN101      0.1819
     93  C         -2.0810   -3.8160    7.0520 C.2   101  ASN101      0.2621
     94  O         -1.5920   -3.0690    6.1860 O.2   101  ASN101     -0.2715
     95  CB        -1.2530   -4.5590    9.3720 C.3   101  ASN101      0.1195
     96  CG        -0.9180   -3.1770    9.7850 C.2   101  ASN101      0.2630
     97  OD1       -1.3770   -2.1820    9.1880 O.2   101  ASN101     -0.2716
     98  ND2       -0.0880   -3.0440   10.8600 N.am  101  ASN101     -0.0877
     99  N         -3.3970   -3.9280    7.3180 N.am  102  ALA102     -0.1977
    100  CA        -4.4120   -3.0040    6.7770 C.3   102  ALA102      0.1597
    101  C         -5.0450   -2.2800    7.8940 C.2   102  ALA102      0.2287
    102  O         -6.2960   -2.0590    7.8790 O.2   102  ALA102     -0.2864
    103  CB        -5.4110   -3.8690    5.9580 C.3   102  ALA102      0.0319
    104  N         -4.8820   -6.5680   12.1920 N.3   106  THR106     -0.1218
    105  CA        -5.0940   -7.1680   10.8540 C.3   106  THR106      0.1862
    106  C         -3.8980   -7.9680   10.3600 C.2   106  THR106      0.2287
    107  O         -3.7590   -8.2630    9.1700 O.2   106  THR106     -0.2866
    108  CB        -5.5760   -6.1920    9.7420 C.3   106  THR106      0.1770
    109  OG1       -4.5920   -5.1890    9.5640 O.3   106  THR106     -0.2211
    110  CG2       -6.9020   -5.5460   10.0830 C.3   106  THR106      0.0375
    111  N         -1.6160  -10.9930    9.1720 N.3   108  GLY108     -0.1210
    112  CA        -1.8370  -12.2710    8.5840 C.3   108  GLY108      0.1956
    113  C         -0.5120  -12.9880    8.3890 C.2   108  GLY108      0.2613
    114  O          0.0700  -13.5510    9.3200 O.2   108  GLY108     -0.2717
    115  N         -0.0470  -13.0010    7.1760 N.am  109  SER109     -0.1938
    116  CA         1.2490  -13.5570    6.7640 C.3   109  SER109      0.2055
    117  C          2.1410  -12.5420    6.1010 C.2   109  SER109      0.2639
    118  O          3.3500  -12.8120    5.9580 O.2   109  SER109     -0.2714
    119  CB         1.0860  -14.7610    5.8990 C.3   109  SER109      0.2130
    120  OG         0.3200  -14.4050    4.7260 O.3   109  SER109     -0.2179
    121  N          1.6610  -11.3790    5.6650 N.am  110  GLN110     -0.2030
    122  CA         2.5050  -10.4630    4.8930 C.3   110  GLN110      0.1287
    123  C          3.4340   -9.7560    5.8600 C.3   110  GLN110      0.2036
    124  O          3.1050   -9.3960    7.0650 O.3   110  GLN110     -0.2185
    125  CB         1.6910   -9.4340    4.1290 C.3   110  GLN110      0.0340
    126  CG         0.9190  -10.0260    2.9590 C.3   110  GLN110      0.0904
    127  CD         0.2250   -8.9710    2.1800 C.2   110  GLN110      0.2608
    128  OE1        0.7930   -7.9780    1.7730 O.2   110  GLN110     -0.2717
    129  NE2       -1.0650   -9.1720    2.0230 N.am  110  GLN110     -0.0878
    130  N          7.5270   -7.2710    5.9970 N.3   112  PHE112     -0.1241
    131  CA         8.4960   -6.5120    5.2340 C.3   112  PHE112      0.1605
    132  C          9.8470   -6.4650    5.9330 C.2   112  PHE112      0.2264
    133  O          9.9340   -6.6110    7.1880 O.2   112  PHE112     -0.2867
    134  CB         7.9860   -5.0810    4.8830 C.3   112  PHE112      0.0534
    135  CG         7.6820   -4.2200    6.0850 C.ar  112  PHE112     -0.0203
    136  CD1        6.4410   -4.3490    6.7750 C.ar  112  PHE112     -0.0042
    137  CD2        8.5450   -3.1820    6.5300 C.ar  112  PHE112     -0.0042
    138  CE1        6.1470   -3.5340    7.8490 C.ar  112  PHE112     -0.0003
    139  CE2        8.2140   -2.3720    7.5990 C.ar  112  PHE112     -0.0003
    140  CZ         6.9840   -2.5680    8.2520 C.ar  112  PHE112     -0.0000
    141  N          6.5990    4.1780   11.2880 N.3   121  LEU121     -0.1245
    142  CA         5.7850    2.9800   11.4870 C.3   121  LEU121      0.1561
    143  C          5.6570    2.4850   12.9420 C.2   121  LEU121      0.2260
    144  O          4.9160    1.5720   13.2340 O.2   121  LEU121     -0.2867
    145  CB         6.2650    1.9250   10.5350 C.3   121  LEU121      0.0270
    146  CG         6.2540    2.3000    9.0230 C.3   121  LEU121      0.0019
    147  CD1        6.7550    1.0830    8.2150 C.3   121  LEU121      0.0001
    148  CD2        4.8570    2.7420    8.5790 C.3   121  LEU121      0.0001
    149  N          2.9690   -0.9180   13.1750 N.3   125  HIS125     -0.1241
    150  CA         3.3710   -2.2230   12.6680 C.3   125  HIS125      0.1621
    151  C          4.1660   -2.9450   13.7240 C.2   125  HIS125      0.2264
    152  O          5.0410   -2.3060   14.3780 O.2   125  HIS125     -0.2867
    153  CB         4.1690   -2.0530   11.3630 C.3   125  HIS125      0.0745
    154  CG         3.3720   -1.4580   10.2370 C.ar  125  HIS125      0.0817
    155  ND1        2.7550   -2.2520    9.2710 N.ar  125  HIS125     -0.2268
    156  CD2        3.0080   -0.1800    9.9770 C.ar  125  HIS125      0.1154
    157  CE1        2.0350   -1.4380    8.4780 C.ar  125  HIS125      0.1986
    158  NE2        2.1960   -0.1990    8.8550 N.ar  125  HIS125     -0.2212
@<TRIPOS>BOND
     1     4     3    2
     2     2     3    1
     3     2     5    1
     4     2     1    1
     5     3    11   am
     6     5     6    1
     7    11    12    1
     8    12    13    1
     9    12    15    1
    10    60    58    1
    11    59    58    1
    12     6     8   ar
    13     6     7   ar
    14    13    14    1
    15     8    10   ar
    16    15    16    1
    17    16    17    1
    18    50    51    1
    19    58    55    1
    20    17    18    1
    21     7     9   ar
    22    54    55    1
    23    54    52   am
    24    10     9   ar
    25    51    52    1
    26    55    56    1
    27    52    53    2
    28    44    43    2
    29    21    19    1
    30    18    19    2
    31    56    61   am
    32    56    57    2
    33    61    62    1
    34    19    20    1
    35    36    35    1
    36    62    63    1
    37    43    42    1
    38    41    42    1
    39    40    39    1
    40    22    23    1
    41    45    42    1
    42    45    46    1
    43    35    34    1
    44    26    23    1
    45    26    27    1
    46    63    65   am
    47    63    64    2
    48    29    27   ar
    49    29    31   ar
    50    33    34    1
    51    33    24   am
    52    65    66    1
    53   128   127    2
    54    48    47    2
    55    46    47    1
    56    47    49   am
    57    23    24    1
    58   129   127   am
    59    39    38    1
    60    27    28   ar
    61   127   126    1
    62    34    37    1
    63    24    25    2
    64    31    32   ar
    65    66    67    1
    66    38    37    1
    67   126   125    1
    68    28    30   ar
    69    32    30   ar
    70    67    68    2
    71   125   122    1
    72   120   119    1
    73   134   131    1
    74   134   135    1
    75   122   121    1
    76   122   123    1
    77   131   132    1
    78   131   130    1
    79    90    87    1
    80   121   117   am
    81   123   124    1
    82   119   116    1
    83   132   133    2
    84   118   117    2
    85   103   100    1
    86   135   137   ar
    87   135   136   ar
    88   117   116    1
    89    94    93    2
    90   137   139   ar
    91   116   115    1
    92   136   138   ar
    93   100    99    1
    94   100   101    1
    95    93    99   am
    96    93    92    1
    97    87    88    1
    98    87    86    1
    99   115   113   am
   100    91    88   am
   101    91    92    1
   102    88    89    2
   103   139   140   ar
   104   138   140   ar
   105    92    95    1
   106   102   101    2
   107    84    83    1
   108    73    70    1
   109    73    74    1
   110   147   146    1
   111    72    71    2
   112   113   112    1
   113   113   114    2
   114   157   158   ar
   115   157   155   ar
   116   148   146    1
   117   112   111    1
   118    70    71    1
   119    70    69    1
   120   158   156   ar
   121   146   145    1
   122   107   106    2
   123    71    75   am
   124    97    96    2
   125   155   154   ar
   126    83    82    2
   127    83    85    1
   128    95    96    1
   129    82    81    1
   130   109   108    1
   131   108   110    1
   132   108   105    1
   133    96    98   am
   134   156   154   ar
   135   154   153    1
   136   106   105    1
   137    75    76    1
   138   145   142    1
   139    79    76    1
   140    79    80    1
   141   105   104    1
   142    81    80    1
   143    76    77    1
   144   141   142    1
   145   153   150    1
   146   142   143    1
   147    77    78    1
   148   150   149    1
   149   150   151    1
   150   143   144    2
   151   151   152    2
