@<TRIPOS>MOLECULE
tmp/5cbuA03.pdb
 125 124 0 0 0
SMALL
GASTEIGER

@<TRIPOS>ATOM
      1  N         13.7570  -14.1090  -11.3590 N.3    12  ASN12      -0.1240
      2  CA        13.5360  -14.8210  -12.6700 C.3    12  ASN12       0.1653
      3  C         14.2890  -16.1120  -12.7840 C.2    12  ASN12       0.2266
      4  O         14.9880  -16.3550  -13.8120 O.2    12  ASN12      -0.2867
      5  CB        13.9670  -13.8770  -13.8040 C.3    12  ASN12       0.1155
      6  CG        12.9670  -12.7960  -14.0470 C.2    12  ASN12       0.2627
      7  OD1       11.7960  -12.8720  -13.6250 O.2    12  ASN12      -0.2716
      8  ND2       13.3680  -11.8590  -14.9150 N.am   12  ASN12      -0.0877
      9  N          6.2430  -14.9120   -3.4170 N.3    51  THR51      -0.1203
     10  CA         6.9860  -13.7850   -4.0370 C.3    51  THR51       0.1994
     11  C          7.1790  -12.5760   -3.1000 C.2    51  THR51       0.2618
     12  O          6.4500  -12.3720   -2.1240 O.2    51  THR51      -0.2717
     13  CB         6.3620  -13.2780   -5.3530 C.3    51  THR51       0.1784
     14  OG1        5.2100  -12.4770   -5.0820 O.3    51  THR51      -0.2211
     15  CG2        5.9980  -14.4280   -6.3280 C.3    51  THR51       0.0376
     16  N          8.1760  -11.7280   -3.4050 N.am   52  PHE52      -0.1961
     17  CA         8.2590  -10.3650   -2.9370 C.3    52  PHE52       0.1771
     18  C          7.3940   -9.5670   -3.8840 C.2    52  PHE52       0.2620
     19  O          7.8650   -9.3530   -5.0570 O.2    52  PHE52      -0.2715
     20  CB         9.6760   -9.8140   -2.8270 C.3    52  PHE52       0.0574
     21  CG        10.3990  -10.2830   -1.5690 C.ar   52  PHE52      -0.0200
     22  CD1       10.8790  -11.5930   -1.4460 C.ar   52  PHE52      -0.0042
     23  CD2       10.5290   -9.4620   -0.4680 C.ar   52  PHE52      -0.0042
     24  CE1       11.5200  -11.9630   -0.2910 C.ar   52  PHE52      -0.0003
     25  CE2       11.1160   -9.8580    0.7240 C.ar   52  PHE52      -0.0003
     26  CZ        11.6140  -11.1350    0.7980 C.ar   52  PHE52      -0.0000
     27  N          6.2070   -9.1200   -3.5670 N.am   53  HIS53      -0.1959
     28  CA         5.2740   -8.4750   -4.5300 C.3    53  HIS53       0.1787
     29  C          5.3690   -6.9650   -4.5120 C.2    53  HIS53       0.2616
     30  O          4.7900   -6.3240   -5.4300 O.2    53  HIS53      -0.2715
     31  CB         3.8150   -8.8920   -4.2680 C.3    53  HIS53       0.0785
     32  CG         3.2620   -8.3610   -2.9990 C.ar   53  HIS53       0.0821
     33  ND1        3.4570   -8.9960   -1.7860 N.ar   53  HIS53      -0.2267
     34  CD2        2.5480   -7.2570   -2.7330 C.ar   53  HIS53       0.1154
     35  CE1        2.9020   -8.2580   -0.8460 C.ar   53  HIS53       0.1986
     36  NE2        2.3390   -7.1950   -1.3820 N.ar   53  HIS53      -0.2212
     37  N          5.9670   -6.3150   -3.5010 N.am   54  ARG54      -0.2030
     38  CA         5.9560   -4.8880   -3.4130 C.3    54  ARG54       0.1283
     39  C          7.3100   -4.5270   -2.9150 C.3    54  ARG54       0.2036
     40  O          7.6150   -4.7660   -1.6720 O.3    54  ARG54      -0.2185
     41  CB         4.8480   -4.3380   -2.5130 C.3    54  ARG54       0.0281
     42  CG         4.7210   -2.8760   -2.5050 C.3    54  ARG54       0.0488
     43  CD         3.3710   -2.4350   -1.9590 C.3    54  ARG54       0.2205
     44  NE         3.5220   -2.2210   -0.6560 N.pl3  54  ARG54      -0.0865
     45  CZ         3.6980   -1.0430   -0.0320 C.cat  54  ARG54       0.5346
     46  NH1        3.8310   -1.0170    1.3250 N.pl3  54  ARG54       0.1354
     47  NH2        3.6910    0.0160   -0.6760 N.pl3  54  ARG54       0.1354
     48  N         -0.4900  -13.2890   -4.2550 N.3    69  HIS69      -0.1226
     49  CA         0.7190  -12.7710   -4.8680 C.3    69  HIS69       0.1752
     50  C          0.6680  -11.2820   -5.2250 C.2    69  HIS69       0.2596
     51  O          1.4300  -10.8590   -6.0680 O.2    69  HIS69      -0.2718
     52  CB         1.1360  -13.6440   -6.0760 C.3    69  HIS69       0.0759
     53  CG         1.0540  -15.1000   -5.7430 C.ar   69  HIS69       0.0818
     54  ND1        1.9760  -15.7360   -4.9270 N.ar   69  HIS69      -0.2268
     55  CD2        0.1510  -16.0430   -6.1100 C.ar   69  HIS69       0.1154
     56  CE1        1.6390  -17.0180   -4.8160 C.ar   69  HIS69       0.1986
     57  NE2        0.5220  -17.2100   -5.4930 N.ar   69  HIS69      -0.2212
     58  N         -0.1340  -10.5320   -4.4600 N.am   70  ASN70      -0.1974
     59  CA        -0.3000   -9.1060   -4.8200 C.3    70  ASN70       0.1688
     60  C         -0.6400   -8.1820   -3.7240 C.2    70  ASN70       0.2292
     61  O         -1.0070   -7.0010   -3.9850 O.2    70  ASN70      -0.2864
     62  CB        -1.3080   -8.9810   -5.9720 C.3    70  ASN70       0.1181
     63  CG        -2.6580   -9.4350   -5.6150 C.2    70  ASN70       0.2629
     64  OD1       -3.0210   -9.6690   -4.4530 O.2    70  ASN70      -0.2716
     65  ND2       -3.5190   -9.5540   -6.5980 N.am   70  ASN70      -0.0877
     66  N          6.9140    2.7830   -7.5400 N.3   148  SER148     -0.1202
     67  CA         5.5130    2.3380   -7.5210 C.3   148  SER148      0.2020
     68  C          5.3330    1.0760   -6.6380 C.2   148  SER148      0.2619
     69  O          4.2010    0.6820   -6.3220 O.2   148  SER148     -0.2717
     70  CB         5.0360    1.9790   -8.9140 C.3   148  SER148      0.2103
     71  OG         5.6990    0.7550   -9.3760 O.3   148  SER148     -0.2182
     72  N          6.4240    0.3770   -6.3190 N.am  149  GLY149     -0.1942
     73  CA         6.4040   -0.9670   -5.6950 C.3   149  GLY149      0.2014
     74  C          6.4090   -2.0940   -6.6240 C.2   149  GLY149      0.2639
     75  O          6.7470   -3.2160   -6.2540 O.2   149  GLY149     -0.2714
     76  N          6.1670   -1.8660   -7.9110 N.am  150  ARG150     -0.1963
     77  CA         6.2000   -2.9840   -8.8420 C.3   150  ARG150      0.1729
     78  C          7.6180   -3.4870   -9.0910 C.2   150  ARG150      0.2617
     79  O          8.5650   -2.6630   -9.2940 O.2   150  ARG150     -0.2715
     80  CB         5.5900   -2.5870  -10.2530 C.3   150  ARG150      0.0348
     81  CG         4.1270   -2.4340  -10.1630 C.3   150  ARG150      0.0492
     82  CD         3.4340   -2.8880  -11.5180 C.3   150  ARG150      0.2205
     83  NE         1.9940   -2.7210  -11.2990 N.pl3 150  ARG150     -0.0865
     84  CZ         1.0730   -2.4390  -12.2200 C.cat 150  ARG150      0.5346
     85  NH1        1.4420   -2.3040  -13.4840 N.pl3 150  ARG150      0.1354
     86  NH2       -0.1660   -2.2590  -11.8500 N.pl3 150  ARG150      0.1354
     87  N          7.8020   -4.7950   -9.2110 N.am  151  THR151     -0.1937
     88  CA         9.0910   -5.3620   -9.4450 C.3   151  THR151      0.2028
     89  C          9.3360   -5.5370  -10.9570 C.2   151  THR151      0.2643
     90  O          8.3720   -5.8490  -11.6810 O.2   151  THR151     -0.2714
     91  CB         9.2650   -6.7620   -8.6820 C.3   151  THR151      0.1808
     92  OG1        8.2500   -7.6610   -9.0180 O.3   151  THR151     -0.2208
     93  CG2        9.2290   -6.4650   -7.1400 C.3   151  THR151      0.0379
     94  N         10.6150   -5.4960  -11.2960 N.am  152  SER152     -0.1935
     95  CA        10.9840   -5.6430  -12.7390 C.3   152  SER152      0.2055
     96  C         11.3630   -7.0580  -13.0710 C.2   152  SER152      0.2643
     97  O         11.4880   -7.3980  -14.2740 O.2   152  SER152     -0.2714
     98  CB        12.1570   -4.7380  -13.1030 C.3   152  SER152      0.2130
     99  OG        13.2660   -4.8950  -12.3060 O.3   152  SER152     -0.2179
    100  N         11.5740   -7.9180  -12.0580 N.am  153  LYS153     -0.1963
    101  CA        11.7760   -9.3470  -12.2670 C.3   153  LYS153      0.1728
    102  C         10.8480  -10.0630  -11.2590 C.2   153  LYS153      0.2616
    103  O         10.4450   -9.4080  -10.2610 O.2   153  LYS153     -0.2715
    104  CB        13.2070   -9.7210  -11.9960 C.3   153  LYS153      0.0311
    105  CG        14.1120   -9.2220  -13.1140 C.3   153  LYS153      0.0038
    106  CD        15.2450  -10.1450  -13.2340 C.3   153  LYS153      0.0206
    107  CE        16.3840   -9.6980  -12.4000 C.3   153  LYS153      0.1093
    108  NZ        17.4200   -9.1950  -13.3370 N.3   153  LYS153     -0.1314
    109  N         10.6030  -11.3610  -11.4440 N.am  154  LYS154     -0.1963
    110  CA         9.8280  -12.1560  -10.5080 C.3   154  LYS154      0.1728
    111  C         10.7700  -12.6090   -9.3940 C.2   154  LYS154      0.2616
    112  O         11.6930  -13.3970   -9.5870 O.2   154  LYS154     -0.2715
    113  CB         9.1550  -13.3630  -11.1880 C.3   154  LYS154      0.0311
    114  CG         8.0960  -14.0040  -10.3800 C.3   154  LYS154      0.0038
    115  CD         7.5550  -15.2660  -11.0490 C.3   154  LYS154      0.0206
    116  CE         6.5010  -15.8800  -10.1890 C.3   154  LYS154      0.1093
    117  NZ         5.8710  -16.9700  -10.9750 N.3   154  LYS154     -0.1314
    118  N         10.5040  -12.1090   -8.1570 N.am  155  ILE155     -0.1977
    119  CA        11.3710  -12.3670   -6.9770 C.3   155  ILE155      0.1596
    120  C         10.6900  -13.4300   -6.0890 C.2   155  ILE155      0.2287
    121  O          9.6150  -13.1550   -5.5670 O.2   155  ILE155     -0.2864
    122  CB        11.6040  -11.0950   -6.1930 C.3   155  ILE155      0.0276
    123  CG1       12.1070   -9.9220   -7.0630 C.3   155  ILE155      0.0022
    124  CG2       12.5780  -11.4190   -5.0430 C.3   155  ILE155      0.0022
    125  CD1       13.3790  -10.2600   -7.8640 C.3   155  ILE155      0.0001
@<TRIPOS>BOND
     1     8     6   am
     2    97    96    2
     3     6     5    1
     4     6     7    2
     5     4     3    2
     6     5     2    1
     7    85    84    1
     8   108   107    1
     9   106   105    1
    10   106   107    1
    11   105   104    1
    12    98    95    1
    13    98    99    1
    14    96    95    1
    15    96   100   am
    16     3     2    1
    17    95    94    1
    18     2     1    1
    19   101   100    1
    20   101   104    1
    21   101   102    1
    22    84    86    1
    23    84    83    2
    24    90    89    2
    25    82    83    1
    26    82    81    1
    27   109   102   am
    28   109   110    1
    29    94    89   am
    30   102   103    2
    31   113   110    1
    32   113   114    1
    33   115   114    1
    34   115   116    1
    35   117   116    1
    36    89    88    1
    37   110   111    1
    38    80    81    1
    39    80    77    1
    40   112   111    2
    41    88    87    1
    42    88    91    1
    43   111   118   am
    44    71    70    1
    45    79    78    2
    46    87    78   am
    47    78    77    1
    48    92    91    1
    49    70    67    1
    50    77    76    1
    51    91    93    1
    52   118   119    1
    53    76    74   am
    54   125   123    1
    55    66    67    1
    56    67    68    1
    57   123   122    1
    58   119   122    1
    59   119   120    1
    60    68    69    2
    61    68    72   am
    62    74    75    2
    63    74    73    1
    64    65    63   am
    65    15    13    1
    66    72    73    1
    67   122   124    1
    68    55    53   ar
    69    55    57   ar
    70   120   121    2
    71    52    53    1
    72    52    49    1
    73    51    50    2
    74    62    63    1
    75    62    59    1
    76    53    54   ar
    77    63    64    2
    78    57    56   ar
    79    30    29    2
    80    13    14    1
    81    13    10    1
    82    50    49    1
    83    50    58   am
    84    19    18    2
    85    54    56   ar
    86    49    48    1
    87    59    58    1
    88    59    60    1
    89    28    29    1
    90    28    31    1
    91    28    27    1
    92    29    37   am
    93    31    32    1
    94    10     9    1
    95    10    11    1
    96    61    60    2
    97    18    27   am
    98    18    17    1
    99    37    38    1
   100    38    39    1
   101    38    41    1
   102    16    11   am
   103    16    17    1
   104    11    12    2
   105    32    34   ar
   106    32    33   ar
   107    17    20    1
   108    39    40    1
   109    20    21    1
   110    34    36   ar
   111    41    42    1
   112    42    43    1
   113    43    44    1
   114    33    35   ar
   115    21    22   ar
   116    21    23   ar
   117    22    24   ar
   118    36    35   ar
   119    47    45    1
   120    44    45    2
   121    23    25   ar
   122    24    26   ar
   123    45    46    1
   124    25    26   ar
