@<TRIPOS>MOLECULE
tmp/5cbvA02.pdb
 142 133 0 0 0
SMALL
GASTEIGER

@<TRIPOS>ATOM
      1  N          5.8740   -6.2740   -3.4460 N.3    54  ARG54      -0.1245
      2  CA         5.9580   -4.8470   -3.3600 C.3    54  ARG54       0.1563
      3  C          7.3080   -4.4460   -2.8310 C.2    54  ARG54       0.2260
      4  O          7.6100   -4.7050   -1.6760 O.2    54  ARG54      -0.2867
      5  CB         4.8840   -4.2730   -2.4850 C.3    54  ARG54       0.0307
      6  CG         4.8330   -2.7780   -2.4660 C.3    54  ARG54       0.0489
      7  CD         3.4560   -2.2860   -2.0610 C.3    54  ARG54       0.2205
      8  NE         3.5340   -2.0720   -0.6840 N.pl3  54  ARG54      -0.0865
      9  CZ         3.7060   -0.9630    0.0240 C.cat  54  ARG54       0.5346
     10  NH1        3.8040   -1.0540    1.3920 N.pl3  54  ARG54       0.1354
     11  NH2        3.7150    0.1790   -0.5070 N.pl3  54  ARG54       0.1354
     12  N         13.1920    2.1220    0.8840 N.3    59  PHE59      -0.1227
     13  CA        12.1360    1.9910    1.8540 C.3    59  PHE59       0.1736
     14  C         12.0790    0.5710    2.4620 C.2    59  PHE59       0.2595
     15  O         12.5820    0.3510    3.5810 O.2    59  PHE59      -0.2718
     16  CB        10.7740    2.4190    1.2050 C.3    59  PHE59       0.0547
     17  CG         9.5510    2.2890    2.1060 C.ar   59  PHE59      -0.0202
     18  CD1        9.6460    2.2430    3.5230 C.ar   59  PHE59      -0.0042
     19  CD2        8.2780    2.2950    1.5550 C.ar   59  PHE59      -0.0042
     20  CE1        8.5240    2.1180    4.3140 C.ar   59  PHE59      -0.0003
     21  CE2        7.1480    2.2000    2.3680 C.ar   59  PHE59      -0.0003
     22  CZ         7.2510    2.1680    3.7470 C.ar   59  PHE59      -0.0000
     23  N         11.5510   -0.3690    1.6570 N.am   60  MET60      -0.1979
     24  CA        11.3330   -1.7650    2.1220 C.3    60  MET60       0.1605
     25  C         10.9920   -2.7530    1.0320 C.2    60  MET60       0.2287
     26  O         10.6760   -2.3470   -0.0910 O.2    60  MET60      -0.2864
     27  CB        10.3200   -1.8450    3.2810 C.3    60  MET60       0.0413
     28  CG         8.9560   -1.3240    2.8660 C.3    60  MET60       0.0598
     29  SD         7.9730   -2.6090    2.0700 S.3    60  MET60      -0.1393
     30  CE         7.3360   -1.7850    0.5660 C.3    60  MET60       0.0692
     31  N          8.5560   -6.0560    0.5010 N.3    62  GLN62      -0.1245
     32  CA         7.3730   -6.6270    1.1390 C.3    62  GLN62       0.1566
     33  C          6.9940   -7.9610    0.4690 C.2    62  GLN62       0.2260
     34  O          7.0230   -8.0810   -0.7590 O.2    62  GLN62      -0.2867
     35  CB         6.1950   -5.6630    1.0710 C.3    62  GLN62       0.0367
     36  CG         4.9440   -6.1250    1.8340 C.3    62  GLN62       0.0905
     37  CD         3.8820   -5.0690    1.9050 C.2    62  GLN62       0.2608
     38  OE1        4.2040   -3.8850    1.8690 O.2    62  GLN62      -0.2717
     39  NE2        2.6160   -5.4830    2.0580 N.am   62  GLN62      -0.0878
     40  N         -0.6890   -8.4640   -2.3220 N.3    71  GLY71      -0.1210
     41  CA        -1.0020   -7.5510   -1.2300 C.3    71  GLY71       0.1956
     42  C         -2.4120   -7.6140   -0.6920 C.2    71  GLY71       0.2613
     43  O         -2.7230   -7.0030    0.3710 O.2    71  GLY71      -0.2717
     44  N         -3.2980   -8.3460   -1.4130 N.am   72  THR72      -0.1938
     45  CA        -4.6760   -8.4620   -0.9460 C.3    72  THR72       0.2028
     46  C         -4.9480   -9.6890   -0.0840 C.2    72  THR72       0.2643
     47  O         -6.0620   -9.8170    0.4630 O.2    72  THR72      -0.2714
     48  CB        -5.6640   -8.5170   -2.1500 C.3    72  THR72       0.1808
     49  OG1       -5.4240   -9.6790   -2.9360 O.3    72  THR72      -0.2208
     50  CG2       -5.4480   -7.3290   -3.0640 C.3    72  THR72       0.0379
     51  N         -4.0030  -10.6490   -0.0250 N.am   73  GLY73      -0.1939
     52  CA        -4.2580  -11.9020    0.7210 C.3    73  GLY73       0.2014
     53  C         -3.2450  -12.2220    1.8110 C.2    73  GLY73       0.2639
     54  O         -2.7270  -11.3340    2.4400 O.2    73  GLY73      -0.2714
     55  N         -2.9510  -13.5180    1.9420 N.am   74  GLY74      -0.1954
     56  CA        -2.2220  -14.0600    3.0980 C.3    74  GLY74       0.1869
     57  C         -3.1290  -14.4640    4.2190 C.2    74  GLY74       0.2309
     58  O         -4.3340  -14.0750    4.2740 O.2    74  GLY74      -0.2863
     59  N         -7.4050  -16.0480    9.7860 N.3    80  SER80      -0.1202
     60  CA        -7.1390  -15.1050    8.7220 C.3    80  SER80       0.2020
     61  C         -6.3450  -13.9000    9.1800 C.2    80  SER80       0.2618
     62  O         -5.5490  -13.4070    8.4180 O.2    80  SER80      -0.2717
     63  CB        -8.4870  -14.6700    8.0180 C.3    80  SER80       0.2103
     64  OG        -9.2780  -13.9120    8.8290 O.3    80  SER80      -0.2182
     65  N         -6.5730  -13.4150   10.4070 N.am   81  ARG81      -0.1975
     66  CA        -5.7900  -12.3410   10.9710 C.3    81  ARG81       0.1640
     67  C         -5.6760  -12.5150   12.4780 C.2    81  ARG81       0.2290
     68  O         -6.4590  -13.2710   13.0980 O.2    81  ARG81      -0.2864
     69  CB        -6.5000  -10.9890   10.6150 C.3    81  ARG81       0.0589
     70  CG        -7.8240  -10.9250   11.2730 C.2    81  ARG81       0.0162
     71  CD        -8.9980  -10.3150   10.4970 C.2    81  ARG81       0.1886
     72  NE        -8.7730   -9.5460    9.2670 N.pl3  81  ARG81      -0.0578
     73  CZ        -9.4070   -8.3980    9.0160 C.cat  81  ARG81       0.5393
     74  NH1       -9.1840   -7.7520    7.8990 N.pl3  81  ARG81       0.1358
     75  NH2      -10.2640   -7.8860    9.8930 N.pl3  81  ARG81       0.1358
     76  N          3.3980   -6.4050    7.8920 N.3   100  ALA100     -0.1231
     77  CA         2.5280   -5.5000    7.0810 C.3   100  ALA100      0.1694
     78  C          1.1040   -5.6100    7.6230 C.2   100  ALA100      0.2592
     79  O          0.7720   -6.6130    8.2530 O.2   100  ALA100     -0.2718
     80  CB         2.5590   -5.9920    5.6330 C.3   100  ALA100      0.0304
     81  N          0.2390   -4.6210    7.3800 N.am  101  ASN101     -0.1960
     82  CA        -1.1250   -4.7010    7.8830 C.3   101  ASN101      0.1819
     83  C         -2.0230   -3.7410    7.0710 C.2   101  ASN101      0.2621
     84  O         -1.5520   -3.0070    6.2050 O.2   101  ASN101     -0.2715
     85  CB        -1.2310   -4.5100    9.3630 C.3   101  ASN101      0.1195
     86  CG        -0.8820   -3.1080    9.8200 C.2   101  ASN101      0.2630
     87  OD1       -1.3150   -2.1350    9.1970 O.2   101  ASN101     -0.2716
     88  ND2       -0.0310   -2.9980   10.8490 N.am  101  ASN101     -0.0877
     89  N         -3.3280   -3.9020    7.3350 N.am  102  ALA102     -0.1977
     90  CA        -4.3640   -3.0770    6.7260 C.3   102  ALA102      0.1597
     91  C         -5.0600   -2.3360    7.8740 C.2   102  ALA102      0.2287
     92  O         -6.2860   -2.1600    7.8780 O.2   102  ALA102     -0.2864
     93  CB        -5.3210   -3.9540    5.9450 C.3   102  ALA102      0.0319
     94  N         -4.8100   -6.5380   12.1140 N.3   106  THR106     -0.1218
     95  CA        -5.0070   -7.1990   10.8100 C.3   106  THR106      0.1862
     96  C         -3.8270   -7.9880   10.3250 C.2   106  THR106      0.2287
     97  O         -3.7340   -8.3320    9.1400 O.2   106  THR106     -0.2866
     98  CB        -5.4570   -6.2090    9.7290 C.3   106  THR106      0.1770
     99  OG1       -4.4930   -5.1940    9.5700 O.3   106  THR106     -0.2211
    100  CG2       -6.7580   -5.5500   10.1100 C.3   106  THR106      0.0375
    101  N         -1.5670  -10.8920    9.1850 N.3   108  GLY108     -0.1225
    102  CA        -1.7780  -12.2060    8.6070 C.3   108  GLY108      0.1811
    103  C         -0.4490  -12.9670    8.4300 C.2   108  GLY108      0.2280
    104  O          0.1120  -13.5530    9.3910 O.2   108  GLY108     -0.2866
    105  N          1.6340  -11.2600    5.6280 N.3   110  GLN110     -0.1245
    106  CA         2.4740  -10.2890    4.9350 C.3   110  GLN110      0.1566
    107  C          3.4560   -9.6270    5.8980 C.2   110  GLN110      0.2260
    108  O          3.1180   -9.2820    7.0240 O.2   110  GLN110     -0.2867
    109  CB         1.6490   -9.2660    4.1800 C.3   110  GLN110      0.0367
    110  CG         0.9110   -9.8900    2.9980 C.3   110  GLN110      0.0905
    111  CD         0.2060   -8.8140    2.2320 C.2   110  GLN110      0.2608
    112  OE1        0.7590   -7.7830    1.9470 O.2   110  GLN110     -0.2717
    113  NE2       -1.0920   -8.9990    2.0710 N.am  110  GLN110     -0.0878
    114  N          7.4890   -7.2490    5.9700 N.3   112  PHE112     -0.1241
    115  CA         8.4780   -6.4490    5.2070 C.3   112  PHE112      0.1605
    116  C          9.8280   -6.4520    5.8750 C.2   112  PHE112      0.2264
    117  O          9.8960   -6.5760    7.1240 O.2   112  PHE112     -0.2867
    118  CB         7.9630   -5.0560    4.8500 C.3   112  PHE112      0.0534
    119  CG         7.6500   -4.2000    6.0520 C.ar  112  PHE112     -0.0203
    120  CD1        6.4570   -4.3070    6.7220 C.ar  112  PHE112     -0.0042
    121  CD2        8.5260   -3.2560    6.4810 C.ar  112  PHE112     -0.0042
    122  CE1        6.1740   -3.4960    7.7720 C.ar  112  PHE112     -0.0003
    123  CE2        8.2290   -2.4220    7.5060 C.ar  112  PHE112     -0.0003
    124  CZ         7.0570   -2.5810    8.2140 C.ar  112  PHE112     -0.0000
    125  N          6.6230    4.1900   11.2680 N.3   121  LEU121     -0.1245
    126  CA         5.7810    2.9950   11.4540 C.3   121  LEU121      0.1561
    127  C          5.7060    2.4630   12.8980 C.2   121  LEU121      0.2260
    128  O          4.9750    1.5090   13.2150 O.2   121  LEU121     -0.2867
    129  CB         6.2760    1.9200   10.4800 C.3   121  LEU121      0.0270
    130  CG         6.3210    2.2250    8.9820 C.3   121  LEU121      0.0019
    131  CD1        6.7350    0.9890    8.2070 C.3   121  LEU121      0.0001
    132  CD2        4.9510    2.7060    8.5540 C.3   121  LEU121      0.0001
    133  N          3.0840   -0.8840   13.1520 N.3   125  HIS125     -0.1241
    134  CA         3.4500   -2.1930   12.6610 C.3   125  HIS125      0.1621
    135  C          4.2470   -2.9150   13.6920 C.2   125  HIS125      0.2264
    136  O          5.0970   -2.2950   14.3500 O.2   125  HIS125     -0.2867
    137  CB         4.2570   -2.0220   11.3790 C.3   125  HIS125      0.0745
    138  CG         3.4440   -1.4510   10.2680 C.ar  125  HIS125      0.0817
    139  ND1        2.8350   -2.2450    9.3070 N.ar  125  HIS125     -0.2268
    140  CD2        3.1380   -0.1650    9.9520 C.ar  125  HIS125      0.1154
    141  CE1        2.1450   -1.4620    8.4890 C.ar  125  HIS125      0.1986
    142  NE2        2.2830   -0.1980    8.8700 N.ar  125  HIS125     -0.2212
@<TRIPOS>BOND
     1     1     2    1
     2     2     3    1
     3     2     5    1
     4    50    48    1
     5    49    48    1
     6     3     4    2
     7     5     6    1
     8     6     7    1
     9    40    41    1
    10    48    45    1
    11     7     8    1
    12    44    45    1
    13    44    42   am
    14    41    42    1
    15    45    46    1
    16    34    33    2
    17    42    43    2
    18     8     9    2
    19    11     9    1
    20    26    25    2
    21    46    51   am
    22    46    47    2
    23    51    52    1
    24     9    10    1
    25    33    32    1
    26    31    32    1
    27    30    29    1
    28    52    53    1
    29    12    13    1
    30    25    24    1
    31    35    32    1
    32    35    36    1
    33    16    13    1
    34    16    17    1
    35    19    17   ar
    36    19    21   ar
    37    23    24    1
    38    23    14   am
    39    53    55   am
    40    53    54    2
    41    36    37    1
    42    13    14    1
    43    38    37    2
    44    37    39   am
    45    55    56    1
    46   112   111    2
    47    29    28    1
    48   113   111   am
    49    17    18   ar
    50    24    27    1
    51   111   110    1
    52    21    22   ar
    53    14    15    2
    54    28    27    1
    55   110   109    1
    56    56    57    1
    57    18    20   ar
    58    22    20   ar
    59   109   106    1
    60    57    58    2
    61   118   115    1
    62   118   119    1
    63   106   105    1
    64   106   107    1
    65   115   116    1
    66   115   114    1
    67    80    77    1
    68   116   117    2
    69   107   108    2
    70    93    90    1
    71   119   121   ar
    72   119   120   ar
    73    84    83    2
    74   121   123   ar
    75   120   122   ar
    76    90    89    1
    77    90    91    1
    78    83    89   am
    79    83    82    1
    80    77    78    1
    81    77    76    1
    82    81    78   am
    83    81    82    1
    84   123   124   ar
    85    78    79    2
    86   122   124   ar
    87    91    92    2
    88    82    85    1
    89    74    73    1
    90    63    60    1
    91    63    64    1
    92   131   130    1
    93    62    61    2
    94   103   102    1
    95   103   104    2
    96   141   142   ar
    97   141   139   ar
    98   132   130    1
    99   102   101    1
   100    60    61    1
   101    60    59    1
   102   142   140   ar
   103   130   129    1
   104    73    72    2
   105    73    75    1
   106    97    96    2
   107    61    65   am
   108    87    86    2
   109    72    71    1
   110   139   138   ar
   111    85    86    1
   112    99    98    1
   113    98   100    1
   114    98    95    1
   115    86    88   am
   116   140   138   ar
   117   138   137    1
   118    96    95    1
   119    65    66    1
   120   129   126    1
   121    71    70    2
   122    69    66    1
   123    69    70    1
   124    95    94    1
   125    66    67    1
   126   125   126    1
   127   137   134    1
   128   126   127    1
   129    67    68    2
   130   134   133    1
   131   134   135    1
   132   127   128    2
   133   135   136    2
