@<TRIPOS>MOLECULE
tmp/5cbwA02.pdb
 150 142 0 0 0
SMALL
GASTEIGER

@<TRIPOS>ATOM
      1  N          5.7450   -6.3810   -3.4580 N.3    54  ARG54      -0.1245
      2  CA         5.8480   -4.9460   -3.3330 C.3    54  ARG54       0.1563
      3  C          7.1880   -4.5970   -2.7830 C.2    54  ARG54       0.2260
      4  O          7.4900   -4.8780   -1.6200 O.2    54  ARG54      -0.2867
      5  CB         4.7340   -4.3950   -2.4880 C.3    54  ARG54       0.0307
      6  CG         4.8020   -2.9030   -2.3260 C.3    54  ARG54       0.0489
      7  CD         3.4950   -2.3130   -1.9020 C.3    54  ARG54       0.2205
      8  NE         3.5400   -2.1120   -0.5440 N.pl3  54  ARG54      -0.0865
      9  CZ         3.5790   -0.9810    0.1640 C.cat  54  ARG54       0.5346
     10  NH1        3.6260   -1.0910    1.5040 N.pl3  54  ARG54       0.1354
     11  NH2        3.5820    0.2080   -0.3540 N.pl3  54  ARG54       0.1354
     12  N         13.1470    2.0320    0.8960 N.3    59  PHE59      -0.1227
     13  CA        12.0810    1.9110    1.8660 C.3    59  PHE59       0.1736
     14  C         12.0230    0.4990    2.4490 C.2    59  PHE59       0.2595
     15  O         12.5210    0.2620    3.5850 O.2    59  PHE59      -0.2718
     16  CB        10.7110    2.3370    1.2480 C.3    59  PHE59       0.0547
     17  CG         9.5170    2.2500    2.1760 C.ar   59  PHE59      -0.0202
     18  CD1        9.6210    2.1460    3.5790 C.ar   59  PHE59      -0.0042
     19  CD2        8.2120    2.2730    1.6000 C.ar   59  PHE59      -0.0042
     20  CE1        8.4760    2.0610    4.3530 C.ar   59  PHE59      -0.0003
     21  CE2        7.0750    2.1780    2.3860 C.ar   59  PHE59      -0.0003
     22  CZ         7.1950    2.1450    3.7530 C.ar   59  PHE59      -0.0000
     23  N         11.4560   -0.4390    1.6820 N.am   60  MET60      -0.1979
     24  CA        11.2500   -1.7950    2.2250 C.3    60  MET60       0.1605
     25  C         10.9270   -2.8000    1.1240 C.2    60  MET60       0.2287
     26  O         10.5780   -2.4340   -0.0030 O.2    60  MET60      -0.2864
     27  CB        10.2150   -1.8520    3.3720 C.3    60  MET60       0.0413
     28  CG         8.8160   -1.3480    2.9340 C.3    60  MET60       0.0598
     29  SD         7.9190   -2.6790    2.1110 S.3    60  MET60      -0.1393
     30  CE         7.1510   -1.8130    0.6710 C.3    60  MET60       0.0692
     31  N          8.4850   -6.1080    0.5650 N.3    62  GLN62      -0.1245
     32  CA         7.2660   -6.7090    1.1980 C.3    62  GLN62       0.1566
     33  C          6.9100   -8.0540    0.5210 C.2    62  GLN62       0.2260
     34  O          6.9200   -8.1910   -0.7000 O.2    62  GLN62      -0.2867
     35  CB         6.0860   -5.7410    1.1530 C.3    62  GLN62       0.0367
     36  CG         4.7940   -6.2390    1.8330 C.3    62  GLN62       0.0905
     37  CD         3.7550   -5.1640    1.9290 C.2    62  GLN62       0.2608
     38  OE1        4.0880   -3.9810    1.9360 O.2    62  GLN62      -0.2717
     39  NE2        2.4970   -5.5580    2.1030 N.am   62  GLN62      -0.0878
     40  N         -0.8550   -8.5190   -2.2930 N.3    71  GLY71      -0.1210
     41  CA        -1.1620   -7.6190   -1.2080 C.3    71  GLY71       0.1956
     42  C         -2.5650   -7.6570   -0.6350 C.2    71  GLY71       0.2613
     43  O         -2.8550   -7.0190    0.3940 O.2    71  GLY71      -0.2717
     44  N         -3.4670   -8.3560   -1.3180 N.am   72  THR72      -0.1938
     45  CA        -4.8160   -8.4630   -0.8210 C.3    72  THR72       0.2028
     46  C         -5.0450   -9.6640    0.0770 C.2    72  THR72       0.2643
     47  O         -6.0970   -9.7080    0.7230 O.2    72  THR72      -0.2714
     48  CB        -5.8360   -8.5630   -1.9770 C.3    72  THR72       0.1808
     49  OG1       -5.6010   -9.7270   -2.7570 O.3    72  THR72      -0.2208
     50  CG2       -5.7080   -7.3580   -2.9110 C.3    72  THR72       0.0379
     51  N         -4.1380  -10.6550    0.0400 N.am   73  GLY73      -0.1939
     52  CA        -4.3400  -11.9700    0.6960 C.3    73  GLY73       0.2014
     53  C         -3.3850  -12.2860    1.8310 C.2    73  GLY73       0.2639
     54  O         -2.8890  -11.3640    2.5130 O.2    73  GLY73      -0.2714
     55  N         -3.1110  -13.5770    1.9770 N.am   74  GLY74      -0.1954
     56  CA        -2.4320  -14.1200    3.1970 C.3    74  GLY74       0.1869
     57  C         -3.3470  -14.5020    4.3450 C.2    74  GLY74       0.2309
     58  O         -4.5540  -14.0990    4.4280 O.2    74  GLY74      -0.2863
     59  N         -7.5460  -15.9030    9.9970 N.3    80  SER80      -0.1202
     60  CA        -7.3200  -14.9950    8.8640 C.3    80  SER80       0.2020
     61  C         -6.5630  -13.7830    9.3140 C.2    80  SER80       0.2618
     62  O         -5.8180  -13.1770    8.5280 O.2    80  SER80      -0.2717
     63  CB        -8.6570  -14.6100    8.1930 C.3    80  SER80       0.2103
     64  OG        -9.4480  -13.7710    8.9930 O.3    80  SER80      -0.2182
     65  N         -6.7580  -13.4080   10.5510 N.am   81  ARG81      -0.1979
     66  CA        -6.0750  -12.2720   11.1470 C.3    81  ARG81       0.1597
     67  C         -5.8650  -12.4480   12.6450 C.2    81  ARG81       0.2287
     68  O         -6.6180  -13.1810   13.3040 O.2    81  ARG81      -0.2864
     69  CB        -6.8880  -10.9960   10.8830 C.3    81  ARG81       0.0334
     70  CG        -8.3440  -11.1840   11.2870 C.3    81  ARG81       0.0492
     71  CD        -9.2470   -9.9670   11.1780 C.3    81  ARG81       0.2205
     72  NE        -9.2930   -9.3300    9.8480 N.pl3  81  ARG81      -0.0865
     73  CZ        -9.8790   -8.1530    9.6310 C.cat  81  ARG81       0.5346
     74  NH1       -9.8320   -7.6520    8.4310 N.pl3  81  ARG81       0.1354
     75  NH2      -10.4710   -7.4690   10.6100 N.pl3  81  ARG81       0.1354
     76  N          3.2070   -6.3200    7.9400 N.3   100  ALA100     -0.1231
     77  CA         2.3760   -5.4080    7.1050 C.3   100  ALA100      0.1694
     78  C          0.9660   -5.5320    7.6750 C.2   100  ALA100      0.2592
     79  O          0.6470   -6.5510    8.2810 O.2   100  ALA100     -0.2718
     80  CB         2.3610   -5.9160    5.6680 C.3   100  ALA100      0.0304
     81  N          0.1200   -4.5140    7.4940 N.am  101  ASN101     -0.1960
     82  CA        -1.2430   -4.6620    7.9640 C.3   101  ASN101      0.1819
     83  C         -2.1730   -3.7610    7.1920 C.2   101  ASN101      0.2621
     84  O         -1.7120   -3.0050    6.2900 O.2   101  ASN101     -0.2715
     85  CB        -1.3340   -4.4440    9.4730 C.3   101  ASN101      0.1195
     86  CG        -1.0170   -3.0380    9.8950 C.2   101  ASN101      0.2630
     87  OD1       -1.5430   -2.0950    9.3490 O.2   101  ASN101     -0.2716
     88  ND2       -0.1940   -2.8960   10.9270 N.am  101  ASN101     -0.0877
     89  N         -3.4630   -3.8860    7.5130 N.am  102  ALA102     -0.1977
     90  CA        -4.5370   -3.0650    6.8500 C.3   102  ALA102      0.1597
     91  C         -5.2750   -2.2580    7.9390 C.2   102  ALA102      0.2287
     92  O         -6.5240   -2.0980    7.9620 O.2   102  ALA102     -0.2864
     93  CB        -5.4640   -3.9580    5.9960 C.3   102  ALA102      0.0319
     94  N         -4.8810   -6.4590   12.2810 N.3   106  THR106     -0.1203
     95  CA        -5.0910   -7.1130   10.9550 C.3   106  THR106      0.1994
     96  C         -3.8660   -7.8450   10.4820 C.2   106  THR106      0.2618
     97  O         -3.6520   -8.0570    9.2510 O.2   106  THR106     -0.2717
     98  CB        -5.5800   -6.1070    9.8490 C.3   106  THR106      0.1784
     99  OG1       -4.6290   -5.0970    9.6940 O.3   106  THR106     -0.2211
    100  CG2       -6.9180   -5.4750   10.2530 C.3   106  THR106      0.0376
    101  N         -3.0530   -8.3130   11.4340 N.am  107  ASN107     -0.1960
    102  CA        -1.8790   -9.1450   11.0160 C.3   107  ASN107      0.1819
    103  C         -2.3200  -10.4390   10.4560 C.2   107  ASN107      0.2621
    104  O         -3.2560  -11.0540   10.9860 O.2   107  ASN107     -0.2715
    105  CB        -0.9440   -9.4050   12.2310 C.3   107  ASN107      0.1195
    106  CG        -0.5220   -8.1350   12.8720 C.2   107  ASN107      0.2630
    107  OD1        0.3350   -7.4210   12.3590 O.2   107  ASN107     -0.2716
    108  ND2       -1.1680   -7.7890   14.0340 N.am  107  ASN107     -0.0877
    109  N         -1.7080  -10.8510    9.3410 N.am  108  GLY108     -0.1954
    110  CA        -1.9470  -12.1080    8.7260 C.3   108  GLY108      0.1869
    111  C         -0.6350  -12.8190    8.5050 C.2   108  GLY108      0.2309
    112  O         -0.1410  -13.4900    9.4270 O.2   108  GLY108     -0.2863
    113  N          1.4660  -11.1960    5.7300 N.3   110  GLN110     -0.1245
    114  CA         2.3320  -10.2770    5.0370 C.3   110  GLN110      0.1566
    115  C          3.3130   -9.5720    5.9910 C.2   110  GLN110      0.2260
    116  O          2.9810   -9.1560    7.1080 O.2   110  GLN110     -0.2867
    117  CB         1.5160   -9.2790    4.2500 C.3   110  GLN110      0.0367
    118  CG         0.7460   -9.9320    3.1210 C.3   110  GLN110      0.0905
    119  CD         0.0820   -8.8660    2.2780 C.2   110  GLN110      0.2608
    120  OE1        0.7030   -7.8600    1.9070 O.2   110  GLN110     -0.2717
    121  NE2       -1.2240   -9.0080    2.0960 N.am  110  GLN110     -0.0878
    122  N          7.3640   -7.2970    6.0130 N.3   112  PHE112     -0.1241
    123  CA         8.3570   -6.5030    5.2720 C.3   112  PHE112      0.1605
    124  C          9.7040   -6.4680    5.9670 C.2   112  PHE112      0.2264
    125  O          9.7570   -6.6090    7.1700 O.2   112  PHE112     -0.2867
    126  CB         7.8450   -5.0730    4.9270 C.3   112  PHE112      0.0534
    127  CG         7.5200   -4.2030    6.1050 C.ar  112  PHE112     -0.0203
    128  CD1        6.3060   -4.3110    6.8090 C.ar  112  PHE112     -0.0042
    129  CD2        8.3970   -3.2470    6.5450 C.ar  112  PHE112     -0.0042
    130  CE1        6.0190   -3.4190    7.8260 C.ar  112  PHE112     -0.0003
    131  CE2        8.1010   -2.3770    7.5400 C.ar  112  PHE112     -0.0003
    132  CZ         6.9400   -2.5110    8.2520 C.ar  112  PHE112     -0.0000
    133  N          6.5580    4.1920   11.2710 N.3   121  LEU121     -0.1245
    134  CA         5.7230    3.0130   11.4730 C.3   121  LEU121      0.1561
    135  C          5.6380    2.4960   12.9140 C.2   121  LEU121      0.2260
    136  O          4.9010    1.5400   13.2170 O.2   121  LEU121     -0.2867
    137  CB         6.1640    1.9250   10.5240 C.3   121  LEU121      0.0270
    138  CG         6.1680    2.3090    9.0300 C.3   121  LEU121      0.0019
    139  CD1        6.7320    1.1180    8.2380 C.3   121  LEU121      0.0001
    140  CD2        4.7730    2.6750    8.5250 C.3   121  LEU121      0.0001
    141  N          2.9700   -0.8860   13.1910 N.3   125  HIS125     -0.1241
    142  CA         3.3340   -2.1790   12.6450 C.3   125  HIS125      0.1621
    143  C          4.1590   -2.8800   13.6990 C.2   125  HIS125      0.2264
    144  O          5.0220   -2.2230   14.3160 O.2   125  HIS125     -0.2867
    145  CB         4.1570   -1.9960   11.4040 C.3   125  HIS125      0.0745
    146  CG         3.3510   -1.3840   10.3020 C.ar  125  HIS125      0.0817
    147  ND1        2.6910   -2.1530    9.3700 N.ar  125  HIS125     -0.2268
    148  CD2        2.9460   -0.1040   10.1040 C.ar  125  HIS125      0.1154
    149  CE1        1.9950   -1.3570    8.5710 C.ar  125  HIS125      0.1986
    150  NE2        2.1280   -0.1110    8.9800 N.ar  125  HIS125     -0.2212
@<TRIPOS>BOND
     1     1     2    1
     2     2     3    1
     3     2     5    1
     4    50    48    1
     5     3     4    2
     6    49    48    1
     7     5     6    1
     8     6     7    1
     9    40    41    1
    10    48    45    1
    11     7     8    1
    12    44    45    1
    13    44    42   am
    14    41    42    1
    15    45    46    1
    16    34    33    2
    17    42    43    2
    18     8     9    2
    19    11     9    1
    20    26    25    2
    21    51    46   am
    22    51    52    1
    23    46    47    2
    24     9    10    1
    25    33    32    1
    26    31    32    1
    27    30    29    1
    28    52    53    1
    29    12    13    1
    30    25    24    1
    31    35    32    1
    32    35    36    1
    33    16    13    1
    34    16    17    1
    35    19    17   ar
    36    19    21   ar
    37    23    24    1
    38    23    14   am
    39    53    55   am
    40    53    54    2
    41    36    37    1
    42    13    14    1
    43   120   119    2
    44    37    38    2
    45    37    39   am
    46    55    56    1
    47   121   119   am
    48    29    28    1
    49    17    18   ar
    50    24    27    1
    51   119   118    1
    52    21    22   ar
    53    14    15    2
    54    28    27    1
    55   118   117    1
    56    56    57    1
    57    18    20   ar
    58    22    20   ar
    59   117   114    1
    60    57    58    2
    61   126   123    1
    62   126   127    1
    63   114   113    1
    64   114   115    1
    65   123   124    1
    66   123   122    1
    67    80    77    1
    68   124   125    2
    69   115   116    2
    70    93    90    1
    71   127   129   ar
    72   127   128   ar
    73    84    83    2
    74   129   131   ar
    75   128   130   ar
    76    90    89    1
    77    90    91    1
    78    77    78    1
    79    77    76    1
    80    83    89   am
    81    83    82    1
    82    81    78   am
    83    81    82    1
    84   131   132   ar
    85    78    79    2
    86   130   132   ar
    87    91    92    2
    88    82    85    1
    89    63    60    1
    90    63    64    1
    91   139   138    1
    92    74    73    1
    93   111   110    1
    94   111   112    2
    95   140   138    1
    96    62    61    2
    97   149   150   ar
    98   149   147   ar
    99   110   109    1
   100    60    61    1
   101    60    59    1
   102   150   148   ar
   103   138   137    1
   104    97    96    2
   105    61    65   am
   106   109   103   am
   107    87    86    2
   108   147   146   ar
   109    85    86    1
   110    73    72    2
   111    73    75    1
   112    99    98    1
   113    72    71    1
   114    98   100    1
   115    98    95    1
   116    86    88   am
   117   148   146   ar
   118   146   145    1
   119   103   104    2
   120   103   102    1
   121    96    95    1
   122    96   101   am
   123   137   134    1
   124    65    66    1
   125    69    66    1
   126    69    70    1
   127    95    94    1
   128   102   101    1
   129   102   105    1
   130    66    67    1
   131    71    70    1
   132   133   134    1
   133   145   142    1
   134   134   135    1
   135   105   106    1
   136   107   106    2
   137    67    68    2
   138   142   141    1
   139   142   143    1
   140   106   108   am
   141   135   136    2
   142   143   144    2
