@<TRIPOS>MOLECULE
tmp/5cc2A01.pdb
 108 102 0 0 0
SMALL
GASTEIGER

@<TRIPOS>ATOM
      1  N         17.1200    7.5680   14.5450 N.3   103  TYR103     -0.1241
      2  CA        16.1660    6.6540   15.1630 C.3   103  TYR103      0.1605
      3  C         16.2220    5.3120   14.4430 C.2   103  TYR103      0.2264
      4  O         16.3880    5.2560   13.2230 O.2   103  TYR103     -0.2867
      5  CB        14.7520    7.2340   15.0840 C.3   103  TYR103      0.0534
      6  CG        13.7030    6.5220   15.9150 C.ar  103  TYR103     -0.0201
      7  CD1       13.3030    7.0290   17.1450 C.ar  103  TYR103     -0.0009
      8  CD2       13.0950    5.3590   15.4580 C.ar  103  TYR103     -0.0009
      9  CE1       12.3370    6.3890   17.9030 C.ar  103  TYR103      0.0417
     10  CE2       12.1320    4.7110   16.2100 C.ar  103  TYR103      0.0417
     11  CZ        11.7570    5.2290   17.4290 C.ar  103  TYR103      0.1957
     12  OH        10.7980    4.5830   18.1710 O.3   103  TYR103     -0.2866
     13  N         14.6260    0.9900   14.8610 N.3   105  VAL105     -0.1245
     14  CA        13.8420   -0.0100   15.5750 C.3   105  VAL105      0.1561
     15  C         14.4010   -1.4040   15.2900 C.2   105  VAL105      0.2260
     16  O         14.7280   -1.7290   14.1470 O.2   105  VAL105     -0.2867
     17  CB        12.3350    0.0820   15.2180 C.3   105  VAL105      0.0252
     18  CG1       12.1250   -0.0030   13.7140 C.3   105  VAL105      0.0019
     19  CG2       11.5360   -0.9910   15.9400 C.3   105  VAL105      0.0019
     20  N         11.8710   -7.4370   11.4790 N.3   118  LEU118     -0.1245
     21  CA        10.6040   -7.2460   12.1720 C.3   118  LEU118      0.1561
     22  C          9.4620   -7.8540   11.3590 C.2   118  LEU118      0.2260
     23  O          8.4700   -8.3230   11.9170 O.2   118  LEU118     -0.2867
     24  CB        10.3560   -5.7580   12.4290 C.3   118  LEU118      0.0270
     25  CG        11.3480   -5.0790   13.3740 C.3   118  LEU118      0.0019
     26  CD1       11.1780   -3.5710   13.3630 C.3   118  LEU118      0.0001
     27  CD2       11.1860   -5.6160   14.7870 C.3   118  LEU118      0.0001
     28  N          7.8250    2.3720   20.9710 N.3   137  VAL137     -0.1245
     29  CA         7.5630    1.1770   20.1760 C.3   137  VAL137      0.1561
     30  C          6.1360    0.6650   20.3700 C.2   137  VAL137      0.2260
     31  O          5.4400    0.3630   19.4010 O.2   137  VAL137     -0.2867
     32  CB         8.5610    0.0550   20.5220 C.3   137  VAL137      0.0252
     33  CG1        8.1800   -1.2390   19.8230 C.3   137  VAL137      0.0019
     34  CG2        9.9720    0.4670   20.1450 C.3   137  VAL137      0.0019
     35  N          3.4720    3.0320   18.8830 N.3   140  HIS140     -0.1226
     36  CA         3.5270    3.0450   17.4240 C.3   140  HIS140      0.1752
     37  C          2.8030    1.8300   16.8440 C.2   140  HIS140      0.2595
     38  O          1.9780    1.9600   15.9380 O.2   140  HIS140     -0.2718
     39  CB         4.9750    3.0850   16.9320 C.3   140  HIS140      0.0759
     40  CG         5.1040    3.3150   15.4580 C.ar  140  HIS140      0.0818
     41  ND1        5.1320    4.5760   14.9010 N.ar  140  HIS140     -0.2268
     42  CD2        5.2120    2.4470   14.4260 C.ar  140  HIS140      0.1154
     43  CE1        5.2530    4.4760   13.5900 C.ar  140  HIS140      0.1986
     44  NE2        5.3040    3.1880   13.2760 N.ar  140  HIS140     -0.2212
     45  N          3.1240    0.6520   17.3720 N.am  141  VAL141     -0.1980
     46  CA         2.4730   -0.5870   16.9570 C.3   141  VAL141      0.1595
     47  C          0.9690   -0.5310   17.2230 C.2   141  VAL141      0.2287
     48  O          0.1670   -0.9710   16.3970 O.2   141  VAL141     -0.2864
     49  CB         3.0970   -1.8110   17.6570 C.3   141  VAL141      0.0276
     50  CG1        2.2390   -3.0430   17.4560 C.3   141  VAL141      0.0022
     51  CG2        4.5010   -2.0610   17.1360 C.3   141  VAL141      0.0022
     52  N          1.6160   -6.1430    8.8620 N.3   154  MET154     -0.1230
     53  CA         2.6350   -6.3490    9.8870 C.3   154  MET154      0.1702
     54  C          2.2120   -5.7610   11.2310 C.2   154  MET154      0.2592
     55  O          2.2450   -6.4450   12.2530 O.2   154  MET154     -0.2718
     56  CB         3.9760   -5.7470    9.4510 C.3   154  MET154      0.0401
     57  CG         5.0770   -5.9110   10.4900 C.3   154  MET154      0.0596
     58  SD         6.6670   -5.1920   10.0310 S.3   154  MET154     -0.1393
     59  CE         6.2480   -3.4510    9.9730 C.3   154  MET154      0.0692
     60  N          1.8060   -4.4960   11.2210 N.am  155  TYR155     -0.1976
     61  CA         1.4230   -3.8040   12.4460 C.3   155  TYR155      0.1639
     62  C          0.1390   -4.3550   13.0610 C.2   155  TYR155      0.2290
     63  O         -0.0850   -4.2290   14.2640 O.2   155  TYR155     -0.2864
     64  CB         1.2880   -2.3020   12.1930 C.3   155  TYR155      0.0560
     65  CG         2.5870   -1.6250   11.8250 C.ar  155  TYR155     -0.0198
     66  CD1        3.6400   -1.5670   12.7270 C.ar  155  TYR155     -0.0009
     67  CD2        2.7550   -1.0330   10.5820 C.ar  155  TYR155     -0.0009
     68  CE1        4.8280   -0.9490   12.3970 C.ar  155  TYR155      0.0417
     69  CE2        3.9390   -0.4110   10.2440 C.ar  155  TYR155      0.0417
     70  CZ         4.9710   -0.3720   11.1550 C.ar  155  TYR155      0.1957
     71  OH         6.1520    0.2460   10.8220 O.3   155  TYR155     -0.2866
     72  N          1.3830   -7.7300   14.6790 N.3   158  MET158     -0.1245
     73  CA         2.2440   -7.3990   15.8100 C.3   158  MET158      0.1570
     74  C          1.4210   -6.9430   17.0050 C.2   158  MET158      0.2261
     75  O          1.6500   -7.3820   18.1290 O.2   158  MET158     -0.2867
     76  CB         3.2510   -6.3090   15.4280 C.3   158  MET158      0.0387
     77  CG         4.5030   -6.8070   14.7240 C.3   158  MET158      0.0595
     78  SD         5.6890   -5.4710   14.4790 S.3   158  MET158     -0.1393
     79  CE         7.1990   -6.4030   14.2340 C.3   158  MET158      0.0692
     80  N         11.3910   -6.0580   21.3260 N.3   190  VAL190     -0.1245
     81  CA        11.4720   -4.9870   20.3330 C.3   190  VAL190      0.1561
     82  C         11.8120   -3.6480   20.9920 C.2   190  VAL190      0.2260
     83  O         11.1460   -3.2250   21.9400 O.2   190  VAL190     -0.2867
     84  CB        10.1620   -4.8510   19.5350 C.3   190  VAL190      0.0252
     85  CG1       10.3160   -3.8110   18.4450 C.3   190  VAL190      0.0019
     86  CG2        9.7770   -6.1800   18.9200 C.3   190  VAL190      0.0019
     87  N         15.9030   -2.2690   11.3830 N.3   213  ASN213     -0.1225
     88  CA        15.9820   -1.2830   10.3170 C.3   213  ASN213      0.1785
     89  C         15.9720    0.1220   10.9030 C.2   213  ASN213      0.2598
     90  O         15.2670    0.3910   11.8760 O.2   213  ASN213     -0.2718
     91  CB        14.8180   -1.4520    9.3400 C.3   213  ASN213      0.1169
     92  CG        13.4660   -1.3270   10.0170 C.2   213  ASN213      0.2627
     93  OD1       12.9300   -2.3020   10.5470 O.2   213  ASN213     -0.2716
     94  ND2       12.9050   -0.1220   10.0000 N.am  213  ASN213     -0.0877
     95  N         16.7650    1.0170   10.3240 N.am  214  THR214     -0.1939
     96  CA        16.7570    2.4110   10.7490 C.3   214  THR214      0.2028
     97  C         15.5370    3.1190   10.1660 C.2   214  THR214      0.2642
     98  O         14.9290    2.6340    9.2110 O.2   214  THR214     -0.2714
     99  CB        18.0420    3.1440   10.3270 C.3   214  THR214      0.1808
    100  OG1       18.1950    3.0660    8.9040 O.3   214  THR214     -0.2208
    101  CG2       19.2570    2.5200   10.9960 C.3   214  THR214      0.0379
    102  N         15.1780    4.2590   10.7490 N.am  215  VAL215     -0.1977
    103  CA        14.0250    5.0260   10.2880 C.3   215  VAL215      0.1596
    104  C         14.4270    6.4560    9.9370 C.2   215  VAL215      0.2287
    105  O         14.8070    7.2320   10.8130 O.2   215  VAL215     -0.2864
    106  CB        12.9080    5.0640   11.3530 C.3   215  VAL215      0.0276
    107  CG1       11.7090    5.8480   10.8400 C.3   215  VAL215      0.0022
    108  CG2       12.4960    3.6550   11.7420 C.3   215  VAL215      0.0022
@<TRIPOS>BOND
     1    52    53    1
     2   100    99    1
     3    98    97    2
     4    91    92    1
     5    91    88    1
     6    56    53    1
     7    56    57    1
     8    53    54    1
     9   104   103    1
    10   104   105    2
    11    59    58    1
    12    94    92   am
    13    92    93    2
    14    58    57    1
    15    97    96    1
    16    97   102   am
    17    69    67   ar
    18    69    70   ar
    19   103   102    1
    20   103   106    1
    21    88    89    1
    22    88    87    1
    23    95    96    1
    24    95    89   am
    25    99    96    1
    26    99   101    1
    27    67    65   ar
    28    71    70    1
    29   107   106    1
    30    89    90    2
    31    70    68   ar
    32    60    54   am
    33    60    61    1
    34    54    55    2
    35   106   108    1
    36    22    23    2
    37    22    21    1
    38    20    21    1
    39    65    64    1
    40    65    66   ar
    41    21    24    1
    42    64    61    1
    43    68    66   ar
    44    24    25    1
    45    61    62    1
    46    62    63    2
    47     4     3    2
    48    44    43   ar
    49    44    42   ar
    50    26    25    1
    51    25    27    1
    52    43    41   ar
    53    18    17    1
    54    16    15    2
    55    79    78    1
    56    42    40   ar
    57     3     2    1
    58    78    77    1
    59     1     2    1
    60    72    73    1
    61    77    76    1
    62    13    14    1
    63    41    40   ar
    64     5     2    1
    65     5     6    1
    66    17    14    1
    67    17    19    1
    68    15    14    1
    69    76    73    1
    70     8     6   ar
    71     8    10   ar
    72    40    39    1
    73    73    74    1
    74     6     7   ar
    75    38    37    2
    76    10    11   ar
    77    48    47    2
    78    37    45   am
    79    37    36    1
    80    39    36    1
    81    46    47    1
    82    46    45    1
    83    46    49    1
    84    74    75    2
    85    51    49    1
    86     7     9   ar
    87    36    35    1
    88    11     9   ar
    89    11    12    1
    90    50    49    1
    91    85    84    1
    92    86    84    1
    93    31    30    2
    94    84    81    1
    95    33    32    1
    96    34    32    1
    97    29    30    1
    98    29    32    1
    99    29    28    1
   100    81    82    1
   101    81    80    1
   102    82    83    2
