@<TRIPOS>MOLECULE
tmp/5cc2A00.pdb
 134 130 0 0 0
SMALL
GASTEIGER

@<TRIPOS>ATOM
      1  N         19.5200    5.4340   29.6760 N.3    10  GLU10      -0.1245
      2  CA        19.2930    4.5400   28.5420 C.3    10  GLU10       0.1567
      3  C         20.6330    4.1040   27.9570 C.2    10  GLU10       0.2260
      4  O         21.3010    4.8870   27.2780 O.2    10  GLU10      -0.2867
      5  CB        18.4720    5.2490   27.4600 C.3    10  GLU10       0.0388
      6  CG        17.8830    4.3250   26.4050 C.3    10  GLU10       0.1160
      7  CD        16.5410    3.7560   26.8180 C.2    10  GLU10       0.3649
      8  OE1       15.5720    4.5370   26.9150 O.co2  10  GLU10      -0.2457
      9  OE2       16.4560    2.5320   27.0470 O.co2  10  GLU10      -0.2457
     10  N         23.3880    5.2110   25.6730 N.3    13  PHE13      -0.1241
     11  CA        23.3330    6.6580   25.5020 C.3    13  PHE13       0.1605
     12  C         23.7150    7.3950   26.7820 C.2    13  PHE13       0.2264
     13  O         24.6260    8.2210   26.7820 O.2    13  PHE13      -0.2867
     14  CB        21.9480    7.0940   25.0210 C.3    13  PHE13       0.0534
     15  CG        21.5980    6.5850   23.6500 C.ar   13  PHE13      -0.0203
     16  CD1       20.8860    5.4040   23.4920 C.ar   13  PHE13      -0.0042
     17  CD2       21.9870    7.2850   22.5180 C.ar   13  PHE13      -0.0042
     18  CE1       20.5660    4.9340   22.2290 C.ar   13  PHE13      -0.0003
     19  CE2       21.6710    6.8200   21.2530 C.ar   13  PHE13      -0.0003
     20  CZ        20.9590    5.6440   21.1090 C.ar   13  PHE13      -0.0000
     21  N         10.6560   10.4260   29.2620 N.3    56  TYR56      -0.1241
     22  CA        11.1720   11.3880   28.2980 C.3    56  TYR56       0.1605
     23  C         10.2990   12.6410   28.2480 C.2    56  TYR56       0.2264
     24  O         10.8070   13.7620   28.2800 O.2    56  TYR56      -0.2867
     25  CB        11.3090   10.7550   26.9090 C.3    56  TYR56       0.0534
     26  CG        12.4670    9.7900   26.7940 C.ar   56  TYR56      -0.0201
     27  CD1       13.7660   10.2530   26.6370 C.ar   56  TYR56      -0.0009
     28  CD2       12.2610    8.4180   26.8420 C.ar   56  TYR56      -0.0009
     29  CE1       14.8270    9.3770   26.5340 C.ar   56  TYR56       0.0417
     30  CE2       13.3180    7.5350   26.7370 C.ar   56  TYR56       0.0417
     31  CZ        14.5970    8.0220   26.5840 C.ar   56  TYR56       0.1957
     32  OH        15.6540    7.1500   26.4800 O.3    56  TYR56      -0.2866
     33  N         18.4740   10.2420   24.7150 N.3    83  ALA83      -0.1231
     34  CA        17.9700    9.7880   23.4280 C.3    83  ALA83       0.1694
     35  C         16.5460   10.2990   23.2440 C.2    83  ALA83       0.2592
     36  O         15.6000    9.5130   23.1640 O.2    83  ALA83      -0.2718
     37  CB        18.0010    8.2770   23.3520 C.3    83  ALA83       0.0304
     38  N         16.4010   11.6200   23.1740 N.am   84  LEU84      -0.1966
     39  CA        15.0880   12.2550   23.0890 C.3    84  LEU84       0.1728
     40  C         14.6510   12.4500   21.6380 C.2    84  LEU84       0.2616
     41  O         15.2660   13.2110   20.8900 O.2    84  LEU84      -0.2715
     42  CB        15.1120   13.6020   23.8110 C.3    84  LEU84       0.0311
     43  CG        13.7830   14.3470   23.9200 C.3    84  LEU84       0.0022
     44  CD1       12.8520   13.6170   24.8630 C.3    84  LEU84       0.0001
     45  CD2       13.9900   15.7750   24.3870 C.3    84  LEU84       0.0001
     46  N         13.5780   11.7670   21.2490 N.am   85  THR85      -0.1951
     47  CA        13.0640   11.8430   19.8830 C.3    85  THR85       0.1897
     48  C         12.5700   13.2510   19.5380 C.2    85  THR85       0.2313
     49  O         11.7830   13.8420   20.2780 O.2    85  THR85      -0.2863
     50  CB        11.9200   10.8360   19.6570 C.3    85  THR85       0.1794
     51  OG1       12.3530    9.5230   20.0340 O.3    85  THR85      -0.2208
     52  CG2       11.5000   10.8230   18.1950 C.3    85  THR85       0.0378
     53  N          6.8750   18.2830   20.6820 N.3    90  ARG90      -0.1245
     54  CA         7.8940   18.7560   21.6140 C.3    90  ARG90       0.1563
     55  C          8.5860   20.0350   21.1430 C.2    90  ARG90       0.2260
     56  O          9.0750   20.8150   21.9570 O.2    90  ARG90      -0.2867
     57  CB         8.9320   17.6570   21.8640 C.3    90  ARG90       0.0307
     58  CG         8.4110   16.4810   22.6690 C.3    90  ARG90       0.0489
     59  CD         9.3670   15.3050   22.6330 C.3    90  ARG90       0.2205
     60  NE         8.9480   14.2390   23.5420 N.pl3  90  ARG90      -0.0865
     61  CZ         9.4950   13.0290   23.5920 C.cat  90  ARG90       0.5346
     62  NH1       10.4860   12.7120   22.7750 N.pl3  90  ARG90       0.1354
     63  NH2        9.0410   12.1340   24.4570 N.pl3  90  ARG90       0.1354
     64  N         17.1200    7.5680   14.5450 N.3   103  TYR103     -0.1241
     65  CA        16.1660    6.6540   15.1630 C.3   103  TYR103      0.1605
     66  C         16.2220    5.3120   14.4430 C.2   103  TYR103      0.2264
     67  O         16.3880    5.2560   13.2230 O.2   103  TYR103     -0.2867
     68  CB        14.7520    7.2340   15.0840 C.3   103  TYR103      0.0534
     69  CG        13.7030    6.5220   15.9150 C.ar  103  TYR103     -0.0201
     70  CD1       13.3030    7.0290   17.1450 C.ar  103  TYR103     -0.0009
     71  CD2       13.0950    5.3590   15.4580 C.ar  103  TYR103     -0.0009
     72  CE1       12.3370    6.3890   17.9030 C.ar  103  TYR103      0.0417
     73  CE2       12.1320    4.7110   16.2100 C.ar  103  TYR103      0.0417
     74  CZ        11.7570    5.2290   17.4290 C.ar  103  TYR103      0.1957
     75  OH        10.7980    4.5830   18.1710 O.3   103  TYR103     -0.2866
     76  N          5.5010    2.5760   25.8350 N.3   135  SER135     -0.1202
     77  CA         6.7110    3.1940   25.3010 C.3   135  SER135      0.2020
     78  C          6.4850    3.6870   23.8720 C.2   135  SER135      0.2619
     79  O          5.3620    3.6640   23.3700 O.2   135  SER135     -0.2717
     80  CB         7.8820    2.2130   25.3340 C.3   135  SER135      0.2103
     81  OG         7.6160    1.0740   24.5400 O.3   135  SER135     -0.2182
     82  N          7.5540    4.1340   23.2190 N.am  136  ALA136     -0.1965
     83  CA         7.4600    4.6040   21.8390 C.3   136  ALA136      0.1728
     84  C          7.0670    3.4630   20.9030 C.2   136  ALA136      0.2616
     85  O          6.1090    3.5790   20.1350 O.2   136  ALA136     -0.2715
     86  CB         8.7690    5.2270   21.3980 C.3   136  ALA136      0.0334
     87  N          7.8250    2.3720   20.9710 N.am  137  VAL137     -0.1977
     88  CA         7.5630    1.1770   20.1760 C.3   137  VAL137      0.1596
     89  C          6.1360    0.6650   20.3700 C.2   137  VAL137      0.2287
     90  O          5.4400    0.3630   19.4010 O.2   137  VAL137     -0.2864
     91  CB         8.5610    0.0550   20.5220 C.3   137  VAL137      0.0276
     92  CG1        8.1800   -1.2390   19.8230 C.3   137  VAL137      0.0022
     93  CG2        9.9720    0.4670   20.1450 C.3   137  VAL137      0.0022
     94  N         12.8430   -2.9800   20.4840 N.3   191  TRP191     -0.1227
     95  CA        13.3360   -1.7550   21.1040 C.3   191  TRP191      0.1737
     96  C         14.1810   -0.9630   20.1120 C.2   191  TRP191      0.2595
     97  O         14.2480   -1.3090   18.9310 O.2   191  TRP191     -0.2718
     98  CB        14.1660   -2.1180   22.3390 C.3   191  TRP191      0.0564
     99  CG        14.2710   -1.0410   23.3730 C.ar  191  TRP191      0.0003
    100  CD1       15.4150   -0.4580   23.8360 C.ar  191  TRP191      0.0946
    101  CD2       13.1920   -0.4290   24.0830 C.ar  191  TRP191      0.0152
    102  NE1       15.1130    0.4820   24.7890 N.ar  191  TRP191     -0.2442
    103  CE2       13.7500    0.5210   24.9590 C.ar  191  TRP191      0.0810
    104  CE3       11.8030   -0.5890   24.0630 C.ar  191  TRP191      0.0012
    105  CZ2       12.9710    1.3100   25.8060 C.ar  191  TRP191      0.0191
    106  CZ3       11.0310    0.1900   24.8960 C.ar  191  TRP191      0.0001
    107  CH2       11.6140    1.1280   25.7600 C.ar  191  TRP191      0.0015
    108  N         14.8230    0.0980   20.5940 N.am  192  ASP192     -0.1974
    109  CA        15.7630    0.8610   19.7810 C.3   192  ASP192      0.1709
    110  C         16.9060   -0.0510   19.3500 C.2   192  ASP192      0.2293
    111  O         17.5220   -0.7180   20.1800 O.2   192  ASP192     -0.2864
    112  CB        16.3080    2.0490   20.5740 C.3   192  ASP192      0.1436
    113  CG        17.3200    2.8600   19.7910 C.2   192  ASP192      0.3671
    114  OD1       16.9150    3.8390   19.1330 O.co2 192  ASP192     -0.2456
    115  OD2       18.5210    2.5220   19.8400 O.co2 192  ASP192     -0.2456
    116  N         20.4060    0.4720   20.9660 N.3   195  VAL195     -0.1245
    117  CA        20.4490   -0.0370   22.3330 C.3   195  VAL195      0.1561
    118  C         20.6960   -1.5400   22.3250 C.2   195  VAL195      0.2260
    119  O         21.5820   -2.0400   23.0140 O.2   195  VAL195     -0.2867
    120  CB        19.1310    0.2480   23.0780 C.3   195  VAL195      0.0252
    121  CG1       19.1250   -0.4340   24.4400 C.3   195  VAL195      0.0019
    122  CG2       18.9110    1.7420   23.2300 C.3   195  VAL195      0.0019
    123  N         17.1810   11.3580   17.4670 N.3   220  TYR220     -0.1241
    124  CA        17.3400   11.9330   18.7950 C.3   220  TYR220      0.1605
    125  C         18.1050   13.2530   18.7310 C.2   220  TYR220      0.2264
    126  O         19.0300   13.4070   17.9310 O.2   220  TYR220     -0.2867
    127  CB        18.0710   10.9410   19.7010 C.3   220  TYR220      0.0534
    128  CG        17.4540    9.5580   19.7150 C.ar  220  TYR220     -0.0201
    129  CD1       16.0830    9.3880   19.8520 C.ar  220  TYR220     -0.0009
    130  CD2       18.2430    8.4240   19.5820 C.ar  220  TYR220     -0.0009
    131  CE1       15.5170    8.1270   19.8640 C.ar  220  TYR220      0.0417
    132  CE2       17.6860    7.1590   19.5930 C.ar  220  TYR220      0.0417
    133  CZ        16.3230    7.0180   19.7340 C.ar  220  TYR220      0.1957
    134  OH        15.7590    5.7640   19.7440 O.3   220  TYR220     -0.2866
@<TRIPOS>BOND
     1    67    66    2
     2    66    65    1
     3    64    65    1
     4    68    65    1
     5    68    69    1
     6    71    69   ar
     7    71    73   ar
     8    69    70   ar
     9    73    74   ar
    10    70    72   ar
    11    74    72   ar
    12    74    75    1
    13   123   124    1
    14   126   125    2
    15    52    50    1
    16   125   124    1
    17   124   127    1
    18    97    96    2
    19   114   113   ar
    20   110   109    1
    21   110   111    2
    22    90    89    2
    23    48    47    1
    24    48    49    2
    25   130   132   ar
    26   130   128   ar
    27   132   133   ar
    28    50    47    1
    29    50    51    1
    30   127   128    1
    31   128   129   ar
    32   133   134    1
    33   133   131   ar
    34   109   112    1
    35   109   108    1
    36   113   115   ar
    37   113   112    1
    38    92    91    1
    39   129   131   ar
    40    47    46    1
    41    96   108   am
    42    96    95    1
    43    85    84    2
    44    93    91    1
    45    88    89    1
    46    88    91    1
    47    88    87    1
    48    94    95    1
    49    53    54    1
    50    41    40    2
    51    84    87   am
    52    84    83    1
    53   116   117    1
    54    95    98    1
    55    20    19   ar
    56    20    18   ar
    57    55    54    1
    58    55    56    2
    59    46    40   am
    60    19    17   ar
    61    86    83    1
    62    54    57    1
    63    40    39    1
    64    83    82    1
    65    57    58    1
    66    18    16   ar
    67   118   117    1
    68   118   119    2
    69   117   120    1
    70    98    99    1
    71    17    15   ar
    72    59    58    1
    73    59    60    1
    74    62    61    1
    75   120   122    1
    76   120   121    1
    77    39    38    1
    78    39    42    1
    79    36    35    2
    80    38    35   am
    81    82    78   am
    82    35    34    1
    83    37    34    1
    84    79    78    2
    85    99   100   ar
    86    99   101   ar
    87    34    33    1
    88    16    15   ar
    89    60    61    2
    90    61    63    1
    91    15    14    1
    92    42    43    1
    93   100   102   ar
    94    78    77    1
    95    43    45    1
    96    43    44    1
    97   104   101   ar
    98   104   106   ar
    99   101   103   ar
   100    81    80    1
   101   102   103   ar
   102   106   107   ar
   103   103   105   ar
   104    14    11    1
   105    77    80    1
   106    77    76    1
   107    11    10    1
   108    11    12    1
   109   107   105   ar
   110     6     7    1
   111     6     5    1
   112    32    31    1
   113    29    31   ar
   114    29    27   ar
   115    31    30   ar
   116    27    26   ar
   117    30    28   ar
   118    12    13    2
   119    26    28   ar
   120    26    25    1
   121     7     8   ar
   122     7     9   ar
   123    25    22    1
   124     4     3    2
   125     5     2    1
   126     3     2    1
   127    23    24    2
   128    23    22    1
   129    22    21    1
   130     2     1    1
