@<TRIPOS>MOLECULE
tmp/5cc3A00.pdb
 127 122 0 0 0
SMALL
GASTEIGER

@<TRIPOS>ATOM
      1  N         26.4440   79.9160   60.9090 N.3   117  VAL117     -0.1231
      2  CA        27.4160   79.7720   59.8340 C.3   117  VAL117      0.1692
      3  C         27.1320   78.4580   59.1030 C.2   117  VAL117      0.2592
      4  O         26.9560   77.4220   59.7330 O.2   117  VAL117     -0.2718
      5  CB        28.8610   79.7010   60.3510 C.3   117  VAL117      0.0266
      6  CG1       29.8530   79.8410   59.1790 C.3   117  VAL117      0.0020
      7  CG2       29.1150   80.7460   61.4080 C.3   117  VAL117      0.0020
      8  N         27.1090   78.4870   57.7770 N.am  118  VAL118     -0.1966
      9  CA        26.6340   77.3250   57.0360 C.3   118  VAL118      0.1712
     10  C         27.3750   77.1660   55.7010 C.2   118  VAL118      0.2458
     11  O         27.7030   78.1560   55.0470 O.2   118  VAL118     -0.2730
     12  CB        25.0810   77.3840   56.8860 C.3   118  VAL118      0.0289
     13  CG1       24.6660   78.3050   55.7730 C.3   118  VAL118      0.0023
     14  CG2       24.4760   76.0010   56.7010 C.3   118  VAL118      0.0023
     15  N         27.6860   75.9130   55.3240 N.am  119  PRO119     -0.2727
     16  CA        28.4070   75.6520   54.0730 C.3   119  PRO119      0.1402
     17  C         27.5910   76.0710   52.8580 C.2   119  PRO119      0.2269
     18  O         26.5350   75.4870   52.6070 O.2   119  PRO119     -0.2865
     19  CB        28.5840   74.1240   54.0650 C.3   119  PRO119      0.0296
     20  CG        28.2910   73.6710   55.4190 C.3   119  PRO119      0.0237
     21  CD        27.4410   74.6810   56.0970 C.3   119  PRO119      0.0939
     22  N         34.2170   75.6730   56.0690 N.3   274  SER274     -0.1217
     23  CA        33.1600   74.6600   56.1310 C.3   274  SER274      0.1889
     24  C         32.7920   74.0040   54.7960 C.2   274  SER274      0.2288
     25  O         31.9250   73.1320   54.7700 O.2   274  SER274     -0.2866
     26  CB        31.9030   75.1900   56.8080 C.3   274  SER274      0.2089
     27  OG        31.2880   76.1930   56.0220 O.3   274  SER274     -0.2183
     28  N         31.2240   84.5210   53.7820 N.3   328  ARG328     -0.1245
     29  CA        32.6420   84.4060   54.1280 C.3   328  ARG328      0.1563
     30  C         33.4350   83.9580   52.9130 C.2   328  ARG328      0.2260
     31  O         33.2670   82.8420   52.4430 O.2   328  ARG328     -0.2867
     32  CB        32.8850   83.4620   55.3200 C.3   328  ARG328      0.0307
     33  CG        34.3580   83.3050   55.6510 C.3   328  ARG328      0.0489
     34  CD        34.6130   82.7400   57.0550 C.3   328  ARG328      0.2205
     35  NE        34.4400   81.2870   57.1420 N.pl3 328  ARG328     -0.0865
     36  CZ        34.7690   80.5500   58.2040 C.cat 328  ARG328      0.5346
     37  NH1       35.3160   81.1110   59.2750 N.pl3 328  ARG328      0.1354
     38  NH2       34.5740   79.2440   58.1910 N.pl3 328  ARG328      0.1354
     39  N         37.6960   82.9660   67.8960 N.3   447  GLY447     -0.1210
     40  CA        37.3910   81.5510   67.8540 C.3   447  GLY447      0.1956
     41  C         38.3730   80.7750   68.7060 C.2   447  GLY447      0.2612
     42  O         39.0250   81.3230   69.5900 O.2   447  GLY447     -0.2717
     43  N         38.4780   79.4860   68.4370 N.am  448  PHE448     -0.1962
     44  CA        39.4240   78.6520   69.1420 C.3   448  PHE448      0.1771
     45  C         40.3910   78.0230   68.1510 C.2   448  PHE448      0.2619
     46  O         41.6160   78.1420   68.2940 O.2   448  PHE448     -0.2715
     47  CB        38.7020   77.5620   69.9530 C.3   448  PHE448      0.0574
     48  CG        39.6330   76.5180   70.5300 C.ar  448  PHE448     -0.0200
     49  CD1       40.6770   76.8890   71.3750 C.ar  448  PHE448     -0.0042
     50  CD2       39.4740   75.1680   70.2240 C.ar  448  PHE448     -0.0042
     51  CE1       41.5490   75.9420   71.8950 C.ar  448  PHE448     -0.0003
     52  CE2       40.3370   74.2160   70.7510 C.ar  448  PHE448     -0.0003
     53  CZ        41.3780   74.6030   71.5830 C.ar  448  PHE448     -0.0000
     54  N         39.8360   77.3750   67.1330 N.am  449  LEU449     -0.1977
     55  CA        40.6290   76.4530   66.3260 C.3   449  LEU449      0.1596
     56  C         41.7700   77.1110   65.5290 C.2   449  LEU449      0.2287
     57  O         42.9400   76.7980   65.7650 O.2   449  LEU449     -0.2864
     58  CB        39.7210   75.5740   65.4550 C.3   449  LEU449      0.0297
     59  CG        38.7050   74.7020   66.2170 C.3   449  LEU449      0.0022
     60  CD1       37.6560   74.1530   65.2770 C.3   449  LEU449      0.0001
     61  CD2       39.3960   73.5470   66.9720 C.3   449  LEU449      0.0001
     62  N         32.0500   79.3140   67.9960 N.3   503  MET503     -0.1245
     63  CA        31.0780   78.2550   67.7790 C.3   503  MET503      0.1570
     64  C         30.9400   77.3010   68.9550 C.2   503  MET503      0.2261
     65  O         31.9280   76.9330   69.5760 O.2   503  MET503     -0.2867
     66  CB        31.4940   77.4310   66.5480 C.3   503  MET503      0.0387
     67  CG        30.5190   76.3380   66.1700 C.3   503  MET503      0.0595
     68  SD        28.9740   76.9780   65.4820 S.3   503  MET503     -0.1393
     69  CE        29.4770   77.4930   63.8460 C.3   503  MET503      0.0692
     70  N         30.3870   73.6340   69.2670 N.3   505  THR505     -0.1218
     71  CA        30.6110   72.5600   68.3170 C.3   505  THR505      0.1862
     72  C         29.7940   71.3120   68.6370 C.2   505  THR505      0.2287
     73  O         29.5420   70.4980   67.7530 O.2   505  THR505     -0.2866
     74  CB        32.0870   72.1760   68.2860 C.3   505  THR505      0.1770
     75  OG1       32.4800   71.7560   69.5950 O.3   505  THR505     -0.2211
     76  CG2       32.9440   73.3760   67.8550 C.3   505  THR505      0.0375
     77  N         28.5350   82.3540   67.3960 N.3   529  TRP529     -0.1241
     78  CA        28.2760   81.3810   66.3530 C.3   529  TRP529      0.1605
     79  C         27.5540   80.1480   66.8490 C.2   529  TRP529      0.2264
     80  O         27.8700   79.6150   67.9120 O.2   529  TRP529     -0.2867
     81  CB        29.5810   80.9790   65.6620 C.3   529  TRP529      0.0550
     82  CG        30.0590   82.0140   64.6960 C.ar  529  TRP529      0.0003
     83  CD1       29.5060   83.2350   64.4770 C.ar  529  TRP529      0.0946
     84  CD2       31.1870   81.9170   63.8120 C.ar  529  TRP529      0.0152
     85  NE1       30.2200   83.9100   63.5270 N.ar  529  TRP529     -0.2442
     86  CE2       31.2510   83.1160   63.0910 C.ar  529  TRP529      0.0810
     87  CE3       32.1450   80.9280   63.5630 C.ar  529  TRP529      0.0012
     88  CZ2       32.2290   83.3580   62.1350 C.ar  529  TRP529      0.0191
     89  CZ3       33.1120   81.1690   62.6070 C.ar  529  TRP529      0.0001
     90  CH2       33.1470   82.3710   61.9070 C.ar  529  TRP529      0.0015
     91  N         25.7320   76.2440   65.3870 N.3   531  PRO531     -0.2116
     92  CA        25.9040   75.2900   64.2890 C.3   531  PRO531      0.1372
     93  C         24.6110   74.9090   63.5690 C.2   531  PRO531      0.2244
     94  O         24.6790   74.3000   62.4940 O.2   531  PRO531     -0.2868
     95  CB        26.4830   74.0660   64.9990 C.3   531  PRO531      0.0268
     96  CG        25.8440   74.1060   66.3540 C.3   531  PRO531      0.0207
     97  CD        25.7510   75.5700   66.7030 C.3   531  PRO531      0.0892
     98  N         31.8650   70.1550   56.3710 N.3   607  ALA607     -0.1245
     99  CA        31.3040   70.2380   57.7170 C.3   607  ALA607      0.1562
    100  C         30.1650   69.2370   57.8700 C.2   607  ALA607      0.2260
    101  O         29.3810   69.0320   56.9500 O.2   607  ALA607     -0.2867
    102  CB        30.8100   71.6550   58.0270 C.3   607  ALA607      0.0290
    103  N         30.4860   69.5710   65.4400 N.3   619  MET619     -0.1230
    104  CA        30.3620   70.2240   64.1440 C.3   619  MET619      0.1702
    105  C         31.4280   71.3060   64.0310 C.2   619  MET619      0.2592
    106  O         31.1830   72.4780   64.3430 O.2   619  MET619     -0.2718
    107  CB        28.9670   70.8140   63.9500 C.3   619  MET619      0.0401
    108  CG        28.7270   71.4050   62.5700 C.3   619  MET619      0.0596
    109  SD        27.3270   70.6650   61.7120 S.3   619  MET619     -0.1393
    110  CE        26.0340   70.7100   62.9670 C.3   619  MET619      0.0692
    111  N         32.6170   70.8900   63.6080 N.am  620  GLU620     -0.1966
    112  CA        33.7520   71.7890   63.4960 C.3   620  GLU620      0.1733
    113  C         34.0360   71.9830   62.0230 C.2   620  GLU620      0.2616
    114  O         33.5780   71.2100   61.1860 O.2   620  GLU620     -0.2715
    115  CB        34.9970   71.1860   64.1670 C.3   620  GLU620      0.0429
    116  CG        34.7820   70.6600   65.5750 C.3   620  GLU620      0.1163
    117  CD        35.9910   69.9110   66.1100 C.2   620  GLU620      0.3649
    118  OE1       36.3790   68.8840   65.5070 O.co2 620  GLU620     -0.2457
    119  OE2       36.5520   70.3510   67.1410 O.co2 620  GLU620     -0.2457
    120  N         34.8100   73.0100   61.7060 N.am  621  ASP621     -0.1971
    121  CA        35.2040   73.2320   60.3290 C.3   621  ASP621      0.1709
    122  C         36.6680   72.8310   60.1360 C.2   621  ASP621      0.2293
    123  O         37.2650   72.2080   61.0300 O.2   621  ASP621     -0.2864
    124  CB        34.8780   74.6630   59.8800 C.3   621  ASP621      0.1436
    125  CG        35.7540   75.7200   60.5350 C.2   621  ASP621      0.3671
    126  OD1       36.5900   75.4040   61.4030 O.co2 621  ASP621     -0.2456
    127  OD2       35.5940   76.9040   60.1720 O.co2 621  ASP621     -0.2456
@<TRIPOS>BOND
     1    31    30    2
     2    18    17    2
     3    17    16    1
     4    30    29    1
     5    28    29    1
     6    19    16    1
     7    19    20    1
     8    16    15    1
     9    29    32    1
    10    25    24    2
    11    24    23    1
    12    11    10    2
    13    32    33    1
    14    15    10   am
    15    15    21    1
    16    20    21    1
    17    33    34    1
    18    10     9    1
    19    13    12    1
    20    27    26    1
    21    22    23    1
    22    23    26    1
    23    98    99    1
    24    14    12    1
    25    12     9    1
    26   101   100    2
    27     9     8    1
    28    34    35    1
    29    35    36    2
    30    99   100    1
    31    99   102    1
    32     8     3   am
    33    38    36    1
    34    36    37    1
    35     3     4    2
    36     3     2    1
    37     6     5    1
    38     2     5    1
    39     2     1    1
    40   124   121    1
    41   124   125    1
    42   122   121    1
    43   122   123    2
    44   127   125   ar
    45   121   120    1
    46     5     7    1
    47   125   126   ar
    48   114   113    2
    49   120   113   am
    50   109   108    1
    51   109   110    1
    52    90    88   ar
    53    90    89   ar
    54   113   112    1
    55    88    86   ar
    56    94    93    2
    57   108   107    1
    58    89    87   ar
    59    86    85   ar
    60    86    84   ar
    61   112   111    1
    62   112   115    1
    63    85    83   ar
    64    87    84   ar
    65    93    92    1
    66   111   105   am
    67    84    82   ar
    68    69    68    1
    69   107   104    1
    70   105   104    1
    71   105   106    2
    72   104   103    1
    73   115   116    1
    74    92    95    1
    75    92    91    1
    76    83    82   ar
    77    82    81    1
    78    95    96    1
    79    60    59    1
    80    91    97    1
    81    58    59    1
    82    58    55    1
    83    68    67    1
    84   118   117   ar
    85    56    57    2
    86    56    55    1
    87   116   117    1
    88    81    78    1
    89   117   119   ar
    90    67    66    1
    91    59    61    1
    92    55    54    1
    93    78    79    1
    94    78    77    1
    95    96    97    1
    96    66    63    1
    97    79    80    2
    98    54    45   am
    99    73    72    2
   100    63    62    1
   101    63    64    1
   102    40    39    1
   103    40    41    1
   104    76    74    1
   105    45    46    2
   106    45    44    1
   107    74    71    1
   108    74    75    1
   109    71    72    1
   110    71    70    1
   111    43    41   am
   112    43    44    1
   113    41    42    2
   114    64    65    2
   115    44    47    1
   116    47    48    1
   117    50    48   ar
   118    50    52   ar
   119    48    49   ar
   120    52    53   ar
   121    49    51   ar
   122    53    51   ar
