@<TRIPOS>MOLECULE
tmp/5cc5A00.pdb
 148 138 0 0 0
SMALL
GASTEIGER

@<TRIPOS>ATOM
      1  N         27.0620   82.0090   60.7460 N.3   114  VAL114     -0.1231
      2  CA        27.9740   81.7720   59.6380 C.3   114  VAL114      0.1692
      3  C         27.6160   80.4540   58.9750 C.2   114  VAL114      0.2592
      4  O         27.4220   79.4450   59.6520 O.2   114  VAL114     -0.2718
      5  CB        29.4280   81.7170   60.1090 C.3   114  VAL114      0.0266
      6  CG1       30.3680   81.7320   58.9210 C.3   114  VAL114      0.0020
      7  CG2       29.7190   82.8780   61.0290 C.3   114  VAL114      0.0020
      8  N         27.5410   80.4620   57.6480 N.am  115  VAL115     -0.1966
      9  CA        27.0640   79.3000   56.9070 C.3   115  VAL115      0.1712
     10  C         27.8670   79.1160   55.6180 C.2   115  VAL115      0.2458
     11  O         28.2850   80.0980   55.0120 O.2   115  VAL115     -0.2730
     12  CB        25.5480   79.4500   56.6000 C.3   115  VAL115      0.0289
     13  CG1       25.3080   80.5690   55.6110 C.3   115  VAL115      0.0023
     14  CG2       24.9550   78.1620   56.0980 C.3   115  VAL115      0.0023
     15  N         28.1100   77.8530   55.2120 N.am  116  PRO116     -0.2727
     16  CA        28.8430   77.5890   53.9690 C.3   116  PRO116      0.1402
     17  C         28.0170   78.0380   52.7810 C.2   116  PRO116      0.2269
     18  O         26.9050   77.5490   52.5810 O.2   116  PRO116     -0.2865
     19  CB        28.9730   76.0570   53.9390 C.3   116  PRO116      0.0296
     20  CG        28.6180   75.5900   55.3110 C.3   116  PRO116      0.0237
     21  CD        27.7040   76.6120   55.8910 C.3   116  PRO116      0.0939
     22  N         29.7360   82.2190   53.8210 N.3   267  ASP267     -0.1239
     23  CA        31.1600   81.9390   53.9230 C.3   267  ASP267      0.1674
     24  C         31.7530   81.3300   52.6580 C.2   267  ASP267      0.2266
     25  O         31.3300   80.2630   52.2220 O.2   267  ASP267     -0.2867
     26  CB        31.4120   80.9950   55.1020 C.3   267  ASP267      0.1410
     27  CG        32.8740   80.9190   55.4840 C.2   267  ASP267      0.3668
     28  OD1       33.6610   81.7880   55.0390 O.co2 267  ASP267     -0.2456
     29  OD2       33.2410   79.9920   56.2300 O.co2 267  ASP267     -0.2456
     30  N         36.6110   79.3640   55.4230 N.3   270  ASP270     -0.1225
     31  CA        37.0190   78.1470   56.1350 C.3   270  ASP270      0.1805
     32  C         36.0090   77.0010   56.1980 C.2   270  ASP270      0.2598
     33  O         36.3930   75.8520   56.4330 O.2   270  ASP270     -0.2718
     34  CB        37.5490   78.4740   57.5350 C.3   270  ASP270      0.1424
     35  CG        39.0590   78.6390   57.5590 C.2   270  ASP270      0.3668
     36  OD1       39.6460   78.5970   58.6610 O.co2 270  ASP270     -0.2456
     37  OD2       39.6610   78.7980   56.4740 O.co2 270  ASP270     -0.2456
     38  N         34.7300   77.2960   55.9810 N.am  271  SER271     -0.1952
     39  CA        33.7150   76.2500   56.0600 C.3   271  SER271      0.1924
     40  C         33.3350   75.6660   54.6980 C.2   271  SER271      0.2314
     41  O         32.4270   74.8380   54.6110 O.2   271  SER271     -0.2863
     42  CB        32.4630   76.7390   56.8040 C.3   271  SER271      0.2116
     43  OG        31.8220   77.7950   56.1090 O.3   271  SER271     -0.2180
     44  N         31.8280   86.4140   53.4440 N.3   325  ARG325     -0.1245
     45  CA        33.2390   86.2930   53.7840 C.3   325  ARG325      0.1563
     46  C         34.0930   85.8160   52.6200 C.2   325  ARG325      0.2260
     47  O         33.9520   84.6790   52.1560 O.2   325  ARG325     -0.2867
     48  CB        33.4790   85.4000   54.9990 C.3   325  ARG325      0.0307
     49  CG        34.9690   85.2190   55.2570 C.3   325  ARG325      0.0489
     50  CD        35.2590   84.7710   56.6720 C.3   325  ARG325      0.2205
     51  NE        34.9280   83.3660   56.8560 N.pl3 325  ARG325     -0.0865
     52  CZ        35.1620   82.6910   57.9740 C.cat 325  ARG325      0.5346
     53  NH1       35.7300   83.3000   59.0020 N.pl3 325  ARG325      0.1354
     54  NH2       34.8310   81.4120   58.0590 N.pl3 325  ARG325      0.1354
     55  N         42.3770   87.2860   64.0450 N.3   418  GLU418     -0.1245
     56  CA        42.6000   85.8540   64.1930 C.3   418  GLU418      0.1567
     57  C         44.0150   85.4410   63.8180 C.2   418  GLU418      0.2260
     58  O         44.2840   84.2550   63.6010 O.2   418  GLU418     -0.2867
     59  CB        41.5910   85.0690   63.3640 C.3   418  GLU418      0.0388
     60  CG        41.7290   85.2640   61.8620 C.3   418  GLU418      0.1160
     61  CD        40.6010   84.6040   61.1160 C.2   418  GLU418      0.3649
     62  OE1       40.3700   84.9310   59.9340 O.co2 418  GLU418     -0.2457
     63  OE2       39.9240   83.7590   61.7300 O.co2 418  GLU418     -0.2457
     64  N         39.9430   80.4160   66.8140 N.3   445  LEU445     -0.1231
     65  CA        40.3930   79.1400   66.2910 C.3   445  LEU445      0.1693
     66  C         41.6530   79.3470   65.4660 C.2   445  LEU445      0.2592
     67  O         42.6990   78.7620   65.7580 O.2   445  LEU445     -0.2718
     68  CB        39.2860   78.4650   65.4800 C.3   445  LEU445      0.0284
     69  CG        38.1250   77.9650   66.3450 C.3   445  LEU445      0.0019
     70  CD1       36.9730   77.4740   65.4850 C.3   445  LEU445      0.0001
     71  CD2       38.5980   76.8590   67.2820 C.3   445  LEU445      0.0001
     72  N         41.5600   80.1860   64.4380 N.am  446  ASP446     -0.1974
     73  CA        42.7440   80.5250   63.6570 C.3   446  ASP446      0.1709
     74  C         43.8090   81.1410   64.5470 C.2   446  ASP446      0.2293
     75  O         44.9960   80.8390   64.4090 O.2   446  ASP446     -0.2864
     76  CB        42.3950   81.4740   62.5170 C.3   446  ASP446      0.1436
     77  CG        42.1660   80.7420   61.2180 C.2   446  ASP446      0.3671
     78  OD1       41.1750   81.0420   60.5450 O.co2 446  ASP446     -0.2456
     79  OD2       42.9770   79.8550   60.8720 O.co2 446  ASP446     -0.2456
     80  N         33.1230   81.1810   67.4490 N.3   499  MET499     -0.1245
     81  CA        32.1410   80.1620   67.1090 C.3   499  MET499      0.1570
     82  C         31.9630   79.1030   68.1930 C.2   499  MET499      0.2261
     83  O         32.9220   78.6990   68.8540 O.2   499  MET499     -0.2867
     84  CB        32.5480   79.4950   65.7920 C.3   499  MET499      0.0387
     85  CG        31.6290   78.3760   65.3300 C.3   499  MET499      0.0595
     86  SD        29.9750   78.9560   64.9100 S.3   499  MET499     -0.1393
     87  CE        30.2530   79.6420   63.2750 C.3   499  MET499      0.0692
     88  N         31.2700   75.3390   68.6090 N.3   501  THR501     -0.1218
     89  CA        31.4800   74.2150   67.6920 C.3   501  THR501      0.1862
     90  C         30.7750   72.9090   68.0860 C.2   501  THR501      0.2287
     91  O         30.7210   71.9690   67.2960 O.2   501  THR501     -0.2866
     92  CB        32.9790   73.9160   67.5430 C.3   501  THR501      0.1770
     93  OG1       33.5070   73.5370   68.8150 O.3   501  THR501     -0.2211
     94  CG2       33.7170   75.1500   67.0560 C.3   501  THR501      0.0375
     95  N         29.3900   84.2580   67.1600 N.3   525  TRP525     -0.1241
     96  CA        29.0940   83.3510   66.0590 C.3   525  TRP525      0.1605
     97  C         28.3890   82.0790   66.4900 C.2   525  TRP525      0.2264
     98  O         28.7080   81.4970   67.5240 O.2   525  TRP525     -0.2867
     99  CB        30.3810   83.0100   65.3100 C.3   525  TRP525      0.0550
    100  CG        30.8340   84.1060   64.4030 C.ar  525  TRP525      0.0003
    101  CD1       30.3370   85.3800   64.3420 C.ar  525  TRP525      0.0946
    102  CD2       31.8840   84.0370   63.4340 C.ar  525  TRP525      0.0152
    103  NE1       31.0050   86.0990   63.3850 N.ar  525  TRP525     -0.2442
    104  CE2       31.9630   85.3000   62.8160 C.ar  525  TRP525      0.0810
    105  CE3       32.7640   83.0260   63.0260 C.ar  525  TRP525      0.0012
    106  CZ2       32.8910   85.5830   61.8110 C.ar  525  TRP525      0.0191
    107  CZ3       33.6800   83.3070   62.0280 C.ar  525  TRP525      0.0001
    108  CH2       33.7350   84.5770   61.4300 C.ar  525  TRP525      0.0015
    109  N         26.6200   78.2830   64.7290 N.3   527  PRO527     -0.2116
    110  CA        26.7250   77.3540   63.6020 C.3   527  PRO527      0.1372
    111  C         25.3980   77.0580   62.9120 C.2   527  PRO527      0.2244
    112  O         25.4220   76.4870   61.8290 O.2   527  PRO527     -0.2868
    113  CB        27.2250   76.0600   64.2580 C.3   527  PRO527      0.0268
    114  CG        27.1290   76.2660   65.7300 C.3   527  PRO527      0.0207
    115  CD        26.4590   77.5700   66.0030 C.3   527  PRO527      0.0892
    116  N         33.0350   71.6920   56.0050 N.3   603  ALA603     -0.1245
    117  CA        32.6420   71.6920   57.4090 C.3   603  ALA603      0.1562
    118  C         31.8530   70.4330   57.7350 C.2   603  ALA603      0.2260
    119  O         30.8360   70.1450   57.1050 O.2   603  ALA603     -0.2867
    120  CB        31.8360   72.9390   57.7460 C.3   603  ALA603      0.0290
    121  N         31.8770   70.3460   65.2400 N.3   615  MET615     -0.1245
    122  CA        31.8850   70.8990   63.9000 C.3   615  MET615      0.1570
    123  C         33.2960   71.3430   63.5490 C.2   615  MET615      0.2261
    124  O         33.8230   72.2880   64.1340 O.2   615  MET615     -0.2867
    125  CB        30.8840   72.0460   63.7770 C.3   615  MET615      0.0387
    126  CG        29.5700   71.6120   63.1410 C.3   615  MET615      0.0595
    127  SD        29.7370   71.3470   61.3570 S.3   615  MET615     -0.1393
    128  CE        30.1950   73.0020   60.8690 C.3   615  MET615      0.0692
    129  N         36.3380   72.6320   60.8920 N.3   617  ASP617     -0.1239
    130  CA        36.6700   73.3220   59.6550 C.3   617  ASP617      0.1674
    131  C         38.1820   73.5250   59.5480 C.2   617  ASP617      0.2266
    132  O         38.9530   72.9110   60.2790 O.2   617  ASP617     -0.2867
    133  CB        35.8970   74.6400   59.5090 C.3   617  ASP617      0.1410
    134  CG        36.4670   75.7610   60.3540 C.2   617  ASP617      0.3668
    135  OD1       37.2610   75.4920   61.2750 O.co2 617  ASP617     -0.2456
    136  OD2       36.1110   76.9280   60.0980 O.co2 617  ASP617     -0.2456
    137  N         40.1280   75.9520   60.3460 N.3   619  ALA619     -0.1231
    138  CA        40.7440   76.5230   61.5400 C.3   619  ALA619      0.1694
    139  C         40.9780   75.4740   62.6310 C.2   619  ALA619      0.2592
    140  O         42.0440   75.4470   63.2410 O.2   619  ALA619     -0.2718
    141  CB        39.9110   77.6860   62.0780 C.3   619  ALA619      0.0304
    142  N         39.9870   74.6170   62.8790 N.am  620  THR620     -0.1953
    143  CA        40.1350   73.5670   63.8850 C.3   620  THR620      0.1897
    144  C         41.1900   72.5650   63.4350 C.2   620  THR620      0.2313
    145  O         41.9170   72.0010   64.2550 O.2   620  THR620     -0.2863
    146  CB        38.8030   72.8290   64.1780 C.3   620  THR620      0.1794
    147  OG1       38.3060   72.2360   62.9770 O.3   620  THR620     -0.2208
    148  CG2       37.7520   73.7950   64.7310 C.3   620  THR620      0.0378
@<TRIPOS>BOND
     1    47    46    2
     2    25    24    2
     3    18    17    2
     4    46    45    1
     5    24    23    1
     6    17    16    1
     7    44    45    1
     8    45    48    1
     9    22    23    1
    10    23    26    1
    11    19    16    1
    12    19    20    1
    13    16    15    1
    14    41    40    2
    15    40    39    1
    16    48    49    1
    17    11    10    2
    18    28    27   ar
    19    26    27    1
    20    15    10   am
    21    15    21    1
    22    49    50    1
    23    20    21    1
    24    30    31    1
    25    27    29   ar
    26    13    12    1
    27    10     9    1
    28    38    39    1
    29    38    32   am
    30   116   117    1
    31    39    42    1
    32    14    12    1
    33    43    42    1
    34    31    32    1
    35    31    34    1
    36    32    33    2
    37    37    35   ar
    38    12     9    1
    39    50    51    1
    40    51    52    2
    41     9     8    1
    42   119   118    2
    43   117   118    1
    44   117   120    1
    45    34    35    1
    46    35    36   ar
    47     8     3   am
    48    52    54    1
    49    52    53    1
    50     6     5    1
    51     3     2    1
    52     3     4    2
    53   133   130    1
    54   133   134    1
    55   131   130    1
    56   131   132    2
    57     2     5    1
    58     2     1    1
    59   130   129    1
    60    62    61   ar
    61   136   134   ar
    62     5     7    1
    63   137   138    1
    64   134   135   ar
    65    78    77   ar
    66   128   127    1
    67    79    77   ar
    68    61    63   ar
    69    61    60    1
    70    77    76    1
    71   127   126    1
    72   108   106   ar
    73   108   107   ar
    74   138   141    1
    75   138   139    1
    76   106   104   ar
    77   112   111    2
    78    60    59    1
    79   107   105   ar
    80    76    73    1
    81   139   142   am
    82   139   140    2
    83   104   103   ar
    84   104   102   ar
    85   142   143    1
    86   111   110    1
    87   147   146    1
    88   105   102   ar
    89   126   125    1
    90    87    86    1
    91    59    56    1
    92   103   101   ar
    93   102   100   ar
    94   144   143    1
    95   144   145    2
    96   123   122    1
    97   123   124    2
    98    58    57    2
    99   110   113    1
   100   110   109    1
   101    73    72    1
   102    73    74    1
   103   125   122    1
   104    57    56    1
   105   143   146    1
   106   122   121    1
   107    55    56    1
   108   146   148    1
   109   113   114    1
   110   101   100   ar
   111   100    99    1
   112    75    74    2
   113    72    66   am
   114   109   115    1
   115    86    85    1
   116    99    96    1
   117    85    84    1
   118    66    67    2
   119    66    65    1
   120    68    65    1
   121    68    69    1
   122    70    69    1
   123   114   115    1
   124    84    81    1
   125    96    97    1
   126    96    95    1
   127    65    64    1
   128    69    71    1
   129    97    98    2
   130    94    92    1
   131    81    80    1
   132    81    82    1
   133    91    90    2
   134    92    89    1
   135    92    93    1
   136    89    90    1
   137    89    88    1
   138    82    83    2
