@<TRIPOS>MOLECULE
tmp/5cc6A00.pdb
 148 140 0 0 0
SMALL
GASTEIGER

@<TRIPOS>ATOM
      1  N         26.0630   78.6240   59.8330 N.3   111  VAL111     -0.1231
      2  CA        27.0230   78.4690   58.7680 C.3   111  VAL111      0.1692
      3  C         26.7120   77.1320   58.1270 C.2   111  VAL111      0.2592
      4  O         26.5460   76.1360   58.8230 O.2   111  VAL111     -0.2718
      5  CB        28.4750   78.4800   59.2790 C.3   111  VAL111      0.0266
      6  CG1       29.4300   78.2630   58.1270 C.3   111  VAL111      0.0020
      7  CG2       28.7870   79.7970   59.9890 C.3   111  VAL111      0.0020
      8  N         26.6250   77.1120   56.8020 N.am  112  VAL112     -0.1966
      9  CA        26.1690   75.9240   56.0960 C.3   112  VAL112      0.1712
     10  C         26.9210   75.8110   54.7750 C.2   112  VAL112      0.2462
     11  O         27.2320   76.8290   54.1690 O.2   112  VAL112     -0.2730
     12  CB        24.6490   76.0250   55.8350 C.3   112  VAL112      0.0289
     13  CG1       24.3600   77.1240   54.8350 C.3   112  VAL112      0.0023
     14  CG2       24.0840   74.7050   55.3580 C.3   112  VAL112      0.0023
     15  N         27.2240   74.5700   54.3350 N.am  113  PRO113     -0.2651
     16  CA        27.9490   74.3800   53.0750 C.3   113  PRO113      0.1628
     17  C         27.0610   74.8330   51.9400 C.2   113  PRO113      0.2315
     18  O         25.9340   74.3480   51.8000 O.2   113  PRO113     -0.2861
     19  CB        28.1490   72.8610   52.9720 C.2   113  PRO113     -0.0016
     20  CG        27.4600   72.2510   54.1190 C.2   113  PRO113     -0.0072
     21  CD        26.7780   73.3020   54.9340 C.3   113  PRO113      0.1203
     22  N         35.5450   76.3000   54.5370 N.3   267  ASP267     -0.1225
     23  CA        35.8530   75.0850   55.3030 C.3   267  ASP267      0.1805
     24  C         34.7690   74.0160   55.4040 C.2   267  ASP267      0.2598
     25  O         35.0730   72.8710   55.7380 O.2   267  ASP267     -0.2718
     26  CB        36.3670   75.4280   56.6980 C.3   267  ASP267      0.1424
     27  CG        37.8430   75.7030   56.7080 C.2   267  ASP267      0.3668
     28  OD1       38.4240   75.7910   57.8070 O.co2 267  ASP267     -0.2456
     29  OD2       38.4290   75.8190   55.6110 O.co2 267  ASP267     -0.2456
     30  N         33.5170   74.3660   55.1380 N.am  268  SER268     -0.1952
     31  CA        32.4790   73.3510   55.2390 C.3   268  SER268      0.1924
     32  C         32.1840   72.6530   53.9080 C.2   268  SER268      0.2314
     33  O         31.3860   71.7320   53.8690 O.2   268  SER268     -0.2863
     34  CB        31.1960   73.9110   55.8650 C.3   268  SER268      0.2116
     35  OG        30.5550   74.8290   54.9990 O.3   268  SER268     -0.2180
     36  N         30.6550   82.9660   52.6500 N.3   322  ARG322     -0.1245
     37  CA        32.0500   82.9120   53.0330 C.3   322  ARG322      0.1563
     38  C         32.8670   82.5010   51.8380 C.2   322  ARG322      0.2260
     39  O         32.6880   81.4100   51.2980 O.2   322  ARG322     -0.2867
     40  CB        32.3020   81.9780   54.2090 C.3   322  ARG322      0.0307
     41  CG        33.7690   81.9100   54.5480 C.3   322  ARG322      0.0489
     42  CD        33.9720   81.4900   56.0030 C.3   322  ARG322      0.2205
     43  NE        33.6930   80.0740   56.1870 N.pl3 322  ARG322     -0.0865
     44  CZ        33.9570   79.4050   57.3020 C.cat 322  ARG322      0.5346
     45  NH1       34.5070   80.0300   58.3350 N.pl3 322  ARG322      0.1354
     46  NH2       33.6770   78.1140   57.3780 N.pl3 322  ARG322      0.1354
     47  N         40.9500   84.2210   63.0850 N.3   412  GLU412     -0.1245
     48  CA        41.1640   82.8020   63.2490 C.3   412  GLU412      0.1567
     49  C         42.5940   82.4460   62.8670 C.2   412  GLU412      0.2260
     50  O         42.9200   81.2810   62.6690 O.2   412  GLU412     -0.2867
     51  CB        40.1650   82.0370   62.4030 C.3   412  GLU412      0.0388
     52  CG        40.3510   82.2360   60.9150 C.3   412  GLU412      0.1160
     53  CD        39.3070   81.4860   60.1310 C.2   412  GLU412      0.3649
     54  OE1       39.1580   81.7290   58.9150 O.co2 412  GLU412     -0.2457
     55  OE2       38.6190   80.6610   60.7560 O.co2 412  GLU412     -0.2457
     56  N         37.1150   82.5020   64.8570 N.3   437  GLY437     -0.1210
     57  CA        37.1200   81.1580   64.2990 C.3   437  GLY437      0.1956
     58  C         38.1160   80.3470   65.1090 C.2   437  GLY437      0.2612
     59  O         39.2130   80.0350   64.6380 O.2   437  GLY437     -0.2717
     60  N         37.7210   80.0040   66.3330 N.am  438  PHE438     -0.1962
     61  CA        38.6350   79.4140   67.3080 C.3   438  PHE438      0.1771
     62  C         39.2880   78.0970   66.8560 C.2   438  PHE438      0.2619
     63  O         40.3740   77.7440   67.3130 O.2   438  PHE438     -0.2715
     64  CB        37.9170   79.2210   68.6440 C.3   438  PHE438      0.0574
     65  CG        36.9740   78.0660   68.6530 C.ar  438  PHE438     -0.0200
     66  CD1       37.3210   76.8770   69.2810 C.ar  438  PHE438     -0.0042
     67  CD2       35.7470   78.1550   68.0090 C.ar  438  PHE438     -0.0042
     68  CE1       36.4550   75.8130   69.2860 C.ar  438  PHE438     -0.0003
     69  CE2       34.8760   77.0970   68.0040 C.ar  438  PHE438     -0.0003
     70  CZ        35.2280   75.9190   68.6430 C.ar  438  PHE438     -0.0000
     71  N         38.6490   77.3720   65.9480 N.am  439  LEU439     -0.1963
     72  CA        39.2330   76.1180   65.4890 C.3   439  LEU439      0.1728
     73  C         40.4490   76.3450   64.5890 C.2   439  LEU439      0.2616
     74  O         41.5250   75.8200   64.8430 O.2   439  LEU439     -0.2715
     75  CB        38.1870   75.2670   64.7880 C.3   439  LEU439      0.0311
     76  CG        37.0460   74.8810   65.7260 C.3   439  LEU439      0.0022
     77  CD1       35.9700   74.1020   64.9870 C.3   439  LEU439      0.0001
     78  CD2       37.5940   74.0730   66.8990 C.3   439  LEU439      0.0001
     79  N         40.2760   77.1220   63.5270 N.am  440  ASP440     -0.1971
     80  CA        41.4070   77.4700   62.6810 C.3   440  ASP440      0.1709
     81  C         42.4680   78.1420   63.5130 C.2   440  ASP440      0.2293
     82  O         43.6690   77.9240   63.3220 O.2   440  ASP440     -0.2864
     83  CB        40.9760   78.4300   61.5810 C.3   440  ASP440      0.1436
     84  CG        40.7270   77.7280   60.2850 C.2   440  ASP440      0.3671
     85  OD1       39.6740   77.9720   59.6900 O.co2 440  ASP440     -0.2456
     86  OD2       41.5860   76.9310   59.8620 O.co2 440  ASP440     -0.2456
     87  N         31.8010   78.0730   66.4390 N.3   493  MET493     -0.1245
     88  CA        30.7720   77.1110   66.1560 C.3   493  MET493      0.1570
     89  C         30.6250   76.1410   67.3030 C.2   493  MET493      0.2261
     90  O         31.6130   75.7100   67.8920 O.2   493  MET493     -0.2867
     91  CB        31.1650   76.3420   64.8960 C.3   493  MET493      0.0387
     92  CG        30.2180   75.2270   64.5500 C.3   493  MET493      0.0595
     93  SD        28.6330   75.8700   64.0100 S.3   493  MET493     -0.1393
     94  CE        29.0720   76.5440   62.4180 C.3   493  MET493      0.0692
     95  N         29.9940   72.4890   67.7810 N.3   495  THR495     -0.1218
     96  CA        30.1710   71.3870   66.8460 C.3   495  THR495      0.1862
     97  C         29.5100   70.0900   67.2890 C.2   495  THR495      0.2287
     98  O         29.4420   69.1410   66.5190 O.2   495  THR495     -0.2866
     99  CB        31.6450   71.1090   66.6370 C.3   495  THR495      0.1770
    100  OG1       32.2190   70.7330   67.8900 O.3   495  THR495     -0.2211
    101  CG2       32.3320   72.3690   66.1390 C.3   495  THR495      0.0375
    102  N         28.1900   80.9920   66.1270 N.3   519  TRP519     -0.1241
    103  CA        27.8620   80.0610   65.0620 C.3   519  TRP519      0.1605
    104  C         27.2190   78.7810   65.5540 C.2   519  TRP519      0.2264
    105  O         27.6610   78.1650   66.5150 O.2   519  TRP519     -0.2867
    106  CB        29.1120   79.7250   64.2680 C.3   519  TRP519      0.0550
    107  CG        29.5720   80.8420   63.4030 C.ar  519  TRP519      0.0003
    108  CD1       29.0520   82.0960   63.3380 C.ar  519  TRP519      0.0946
    109  CD2       30.6800   80.8160   62.5040 C.ar  519  TRP519      0.0152
    110  NE1       29.7610   82.8530   62.4460 N.ar  519  TRP519     -0.2442
    111  CE2       30.7680   82.0870   61.9150 C.ar  519  TRP519      0.0810
    112  CE3       31.6070   79.8390   62.1410 C.ar  519  TRP519      0.0012
    113  CZ2       31.7420   82.4080   60.9750 C.ar  519  TRP519      0.0191
    114  CZ3       32.5740   80.1560   61.2070 C.ar  519  TRP519      0.0001
    115  CH2       32.6330   81.4270   60.6310 C.ar  519  TRP519      0.0015
    116  N         25.4990   75.0660   63.7830 N.3   521  PRO521     -0.2116
    117  CA        25.7070   74.2200   62.6170 C.3   521  PRO521      0.1372
    118  C         24.3890   73.8630   61.9590 C.2   521  PRO521      0.2244
    119  O         24.3920   73.2710   60.8860 O.2   521  PRO521     -0.2868
    120  CB        26.3000   72.9420   63.2270 C.3   521  PRO521      0.0268
    121  CG        26.0590   73.0310   64.6960 C.3   521  PRO521      0.0207
    122  CD        25.2520   74.2520   64.9790 C.3   521  PRO521      0.0892
    123  N         31.6890   69.0150   55.3490 N.3   597  ALA597     -0.1245
    124  CA        31.3070   69.0750   56.7470 C.3   597  ALA597      0.1562
    125  C         30.3720   67.9250   57.0060 C.2   597  ALA597      0.2260
    126  O         29.3920   67.7440   56.2920 O.2   597  ALA597     -0.2867
    127  CB        30.6360   70.3950   57.0780 C.3   597  ALA597      0.0290
    128  N         30.3430   67.8950   64.2770 N.3   609  MET609     -0.1245
    129  CA        30.3090   68.4180   62.9250 C.3   609  MET609      0.1570
    130  C         31.6830   68.9420   62.5470 C.2   609  MET609      0.2261
    131  O         32.0110   70.0980   62.7860 O.2   609  MET609     -0.2867
    132  CB        29.2300   69.4790   62.7720 C.3   609  MET609      0.0387
    133  CG        27.9360   68.8960   62.2450 C.3   609  MET609      0.0595
    134  SD        27.8310   68.9090   60.4390 S.3   609  MET609     -0.1393
    135  CE        26.7210   70.3020   60.1700 C.3   609  MET609      0.0692
    136  N         34.4480   70.3910   60.2960 N.3   611  ASP611     -0.1239
    137  CA        34.8550   71.0790   59.0750 C.3   611  ASP611      0.1674
    138  C         36.3750   71.0220   58.9510 C.2   611  ASP611      0.2266
    139  O         37.0450   70.3390   59.7250 O.2   611  ASP611     -0.2867
    140  CB        34.2870   72.5060   58.9840 C.3   611  ASP611      0.1410
    141  CG        35.1660   73.5420   59.6400 C.2   611  ASP611      0.3668
    142  OD1       36.0830   73.1800   60.4070 O.co2 611  ASP611     -0.2456
    143  OD2       34.9360   74.7440   59.3860 O.co2 611  ASP611     -0.2456
    144  N         38.7580   73.0130   59.5810 N.3   613  ALA613     -0.1245
    145  CA        39.5610   73.5340   60.6690 C.3   613  ALA613      0.1562
    146  C         39.8430   72.4590   61.7210 C.2   613  ALA613      0.2260
    147  O         40.9360   72.4010   62.2850 O.2   613  ALA613     -0.2867
    148  CB        38.8890   74.7370   61.2810 C.3   613  ALA613      0.0290
@<TRIPOS>BOND
     1    39    38    2
     2    18    17    2
     3    38    37    1
     4    17    16    1
     5    36    37    1
     6    19    16    1
     7    19    20    2
     8    37    40    1
     9    16    15    1
    10    33    32    2
    11    32    31    1
    12    20    21    1
    13    11    10    2
    14    40    41    1
    15    15    10   am
    16    15    21    1
    17    22    23    1
    18    41    42    1
    19    10     9    1
    20    13    12    1
    21    35    34    1
    22    30    31    1
    23    30    24   am
    24    31    34    1
    25    23    24    1
    26    23    26    1
    27   123   124    1
    28    14    12    1
    29    24    25    2
    30    29    27   ar
    31    12     9    1
    32    42    43    1
    33     9     8    1
    34    43    44    2
    35   126   125    2
    36    26    27    1
    37    27    28   ar
    38   124   125    1
    39   124   127    1
    40     8     3   am
    41    44    46    1
    42    44    45    1
    43     6     5    1
    44     3     2    1
    45     3     4    2
    46     2     5    1
    47     2     1    1
    48    54    53   ar
    49   138   137    1
    50   138   139    2
    51   140   137    1
    52   140   141    1
    53   137   136    1
    54     5     7    1
    55   143   141   ar
    56   144   145    1
    57   141   142   ar
    58    85    84   ar
    59    86    84   ar
    60    53    55   ar
    61    53    52    1
    62   135   134    1
    63    84    83    1
    64   134   133    1
    65   115   113   ar
    66   115   114   ar
    67   145   148    1
    68   145   146    1
    69   119   118    2
    70    52    51    1
    71   113   111   ar
    72   114   112   ar
    73    83    80    1
    74   146   147    2
    75   111   110   ar
    76   111   109   ar
    77   118   117    1
    78   112   109   ar
    79   133   132    1
    80    51    48    1
    81    94    93    1
    82   110   108   ar
    83   109   107   ar
    84   130   131    2
    85   130   129    1
    86   117   120    1
    87   117   116    1
    88    50    49    2
    89    80    81    1
    90    80    79    1
    91   132   129    1
    92    49    48    1
    93   129   128    1
    94    47    48    1
    95   120   121    1
    96    82    81    2
    97   108   107   ar
    98   107   106    1
    99    79    73   am
   100   116   122    1
   101    93    92    1
   102   106   103    1
   103    57    56    1
   104    57    58    1
   105    92    91    1
   106    73    74    2
   107    73    72    1
   108    59    58    2
   109   121   122    1
   110    75    72    1
   111    75    76    1
   112    91    88    1
   113    77    76    1
   114   103   104    1
   115   103   102    1
   116    58    60   am
   117    72    71    1
   118   104   105    2
   119    76    78    1
   120    71    62   am
   121   101    99    1
   122    88    87    1
   123    88    89    1
   124    60    61    1
   125    98    97    2
   126    99    96    1
   127    99   100    1
   128    96    97    1
   129    96    95    1
   130    62    61    1
   131    62    63    2
   132    89    90    2
   133    61    64    1
   134    69    67   ar
   135    69    70   ar
   136    67    65   ar
   137    70    68   ar
   138    64    65    1
   139    65    66   ar
   140    66    68   ar
