@<TRIPOS>MOLECULE
tmp/5cc7A00.pdb
 126 118 0 0 0
SMALL
GASTEIGER

@<TRIPOS>ATOM
      1  N         26.9360   81.7520   61.3940 N.3   114  VAL114     -0.1245
      2  CA        27.8640   81.5010   60.2870 C.3   114  VAL114      0.1561
      3  C         27.5520   80.1730   59.5970 C.2   114  VAL114      0.2260
      4  O         27.4490   79.1380   60.2540 O.2   114  VAL114     -0.2867
      5  CB        29.3370   81.4760   60.7630 C.3   114  VAL114      0.0252
      6  CG1       30.2780   81.4620   59.5650 C.3   114  VAL114      0.0019
      7  CG2       29.6330   82.6710   61.6640 C.3   114  VAL114      0.0019
      8  N         28.1760   77.6680   55.7630 N.2   116  PRO116     -0.2584
      9  CA        28.8970   77.4220   54.5020 C.3   116  PRO116      0.1895
     10  C         28.0540   77.8370   53.3000 C.2   116  PRO116      0.2359
     11  O         26.9700   77.2890   53.0560 O.2   116  PRO116     -0.2858
     12  CB        29.0950   75.8970   54.4600 C.2   116  PRO116      0.0071
     13  CG        28.4240   75.3350   55.6480 C.2   116  PRO116      0.0180
     14  CD        27.8090   76.4260   56.4700 C.2   116  PRO116      0.0937
     15  N         36.6300   79.0930   55.9090 N.3   270  ASP270     -0.1225
     16  CA        36.9370   77.8570   56.6510 C.3   270  ASP270      0.1805
     17  C         35.8570   76.7730   56.7850 C.2   270  ASP270      0.2598
     18  O         36.1760   75.6340   57.1170 O.2   270  ASP270     -0.2718
     19  CB        37.5110   78.1780   58.0390 C.3   270  ASP270      0.1424
     20  CG        39.0140   78.4110   58.0110 C.2   270  ASP270      0.3668
     21  OD1       39.6150   78.5440   59.1020 O.co2 270  ASP270     -0.2456
     22  OD2       39.5940   78.4650   56.8980 O.co2 270  ASP270     -0.2456
     23  N         34.5960   77.1080   56.5410 N.am  271  SER271     -0.1952
     24  CA        33.5540   76.0920   56.6110 C.3   271  SER271      0.1924
     25  C         33.2310   75.4500   55.2550 C.2   271  SER271      0.2314
     26  O         32.3870   74.5550   55.1840 O.2   271  SER271     -0.2863
     27  CB        32.2790   76.6420   57.2690 C.3   271  SER271      0.2116
     28  OG        31.6510   77.6310   56.4730 O.3   271  SER271     -0.2180
     29  N         31.7520   86.1880   54.0670 N.3   325  ARG325     -0.1245
     30  CA        33.1620   86.0270   54.4130 C.3   325  ARG325      0.1563
     31  C         33.9940   85.5890   53.2020 C.2   325  ARG325      0.2260
     32  O         33.8150   84.4920   52.6620 O.2   325  ARG325     -0.2867
     33  CB        33.3820   85.0790   55.6020 C.3   325  ARG325      0.0307
     34  CG        34.8550   84.9400   55.9660 C.3   325  ARG325      0.0489
     35  CD        35.0900   84.5030   57.4240 C.3   325  ARG325      0.2205
     36  NE        34.7760   83.0950   57.6370 N.pl3 325  ARG325     -0.0865
     37  CZ        35.1360   82.3980   58.7140 C.cat 325  ARG325      0.5346
     38  NH1       35.8430   82.9680   59.6700 N.pl3 325  ARG325      0.1354
     39  NH2       34.8080   81.1220   58.8220 N.pl3 325  ARG325      0.1354
     40  N         39.9560   80.1610   67.6940 N.3   442  LEU442     -0.1231
     41  CA        40.5320   78.8900   67.2440 C.3   442  LEU442      0.1693
     42  C         41.7210   79.0680   66.2810 C.2   442  LEU442      0.2592
     43  O         42.7480   78.3960   66.4120 O.2   442  LEU442     -0.2718
     44  CB        39.4460   78.0340   66.6010 C.3   442  LEU442      0.0284
     45  CG        38.2710   77.7630   67.5470 C.3   442  LEU442      0.0019
     46  CD1       36.9990   77.3930   66.7940 C.3   442  LEU442      0.0001
     47  CD2       38.6430   76.6860   68.5560 C.3   442  LEU442      0.0001
     48  N         41.5750   79.9510   65.2980 N.am  443  ASP443     -0.1974
     49  CA        42.6910   80.2560   64.4000 C.3   443  ASP443      0.1709
     50  C         43.7760   80.9150   65.2230 C.2   443  ASP443      0.2293
     51  O         44.9720   80.6770   65.0070 O.2   443  ASP443     -0.2864
     52  CB        42.2680   81.1980   63.2770 C.3   443  ASP443      0.1436
     53  CG        42.0870   80.4810   61.9420 C.2   443  ASP443      0.3671
     54  OD1       41.0460   80.6920   61.3080 O.co2 443  ASP443     -0.2456
     55  OD2       42.9790   79.7110   61.5300 O.co2 443  ASP443     -0.2456
     56  N         32.8120   81.0120   68.1340 N.3   496  MET496     -0.1245
     57  CA        31.7950   80.0020   67.8310 C.3   496  MET496      0.1570
     58  C         31.6200   78.9590   68.9340 C.2   496  MET496      0.2261
     59  O         32.5960   78.5050   69.5330 O.2   496  MET496     -0.2867
     60  CB        32.1700   79.2840   66.5330 C.3   496  MET496      0.0387
     61  CG        31.2200   78.1530   66.1250 C.3   496  MET496      0.0595
     62  SD        29.5970   78.7570   65.5810 S.3   496  MET496     -0.1393
     63  CE        29.9870   79.3150   63.9180 C.3   496  MET496      0.0692
     64  N         30.9650   75.2580   69.3860 N.3   498  THR498     -0.1218
     65  CA        31.1280   74.1300   68.4540 C.3   498  THR498      0.1862
     66  C         30.4210   72.8330   68.8540 C.2   498  THR498      0.2287
     67  O         30.3430   71.9080   68.0580 O.2   498  THR498     -0.2866
     68  CB        32.6100   73.7920   68.2510 C.3   498  THR498      0.1770
     69  OG1       33.1810   73.4000   69.5050 O.3   498  THR498     -0.2211
     70  CG2       33.3630   74.9990   67.7150 C.3   498  THR498      0.0375
     71  N         29.1690   83.9930   67.8420 N.3   522  TRP522     -0.1241
     72  CA        28.8860   83.0510   66.7670 C.3   522  TRP522      0.1605
     73  C         28.1840   81.7840   67.2260 C.2   522  TRP522      0.2264
     74  O         28.5260   81.1840   68.2450 O.2   522  TRP522     -0.2867
     75  CB        30.1750   82.7080   66.0090 C.3   522  TRP522      0.0550
     76  CG        30.6240   83.8050   65.0970 C.ar  522  TRP522      0.0003
     77  CD1       30.0950   85.0560   65.0080 C.ar  522  TRP522      0.0946
     78  CD2       31.7000   83.7560   64.1480 C.ar  522  TRP522      0.0152
     79  NE1       30.7680   85.7880   64.0680 N.ar  522  TRP522     -0.2442
     80  CE2       31.7580   85.0150   63.5230 C.ar  522  TRP522      0.0810
     81  CE3       32.6240   82.7740   63.7740 C.ar  522  TRP522      0.0012
     82  CZ2       32.7040   85.3210   62.5410 C.ar  522  TRP522      0.0191
     83  CZ3       33.5620   83.0800   62.8010 C.ar  522  TRP522      0.0001
     84  CH2       33.5900   84.3380   62.1890 C.ar  522  TRP522      0.0015
     85  N         26.3070   78.0480   65.4650 N.3   524  PRO524     -0.2116
     86  CA        26.4460   77.1300   64.3350 C.3   524  PRO524      0.1372
     87  C         25.1650   76.9230   63.5230 C.2   524  PRO524      0.2244
     88  O         25.2500   76.5330   62.3570 O.2   524  PRO524     -0.2868
     89  CB        26.8160   75.7990   65.0120 C.3   524  PRO524      0.0268
     90  CG        26.9020   76.0690   66.4660 C.3   524  PRO524      0.0207
     91  CD        26.1480   77.3190   66.7300 C.3   524  PRO524      0.0892
     92  N         32.8130   71.5210   56.6580 N.3   600  ALA600     -0.1245
     93  CA        32.3430   71.6060   58.0350 C.3   600  ALA600      0.1562
     94  C         31.3100   70.5230   58.2940 C.2   600  ALA600      0.2260
     95  O         30.3600   70.3690   57.5350 O.2   600  ALA600     -0.2867
     96  CB        31.7500   72.9760   58.3190 C.3   600  ALA600      0.0290
     97  N         31.2800   70.4880   65.7790 N.3   612  MET612     -0.1230
     98  CA        31.2770   71.0450   64.4330 C.3   612  MET612      0.1702
     99  C         32.7040   71.3600   64.0020 C.2   612  MET612      0.2592
    100  O         33.4250   70.5030   63.4740 O.2   612  MET612     -0.2718
    101  CB        30.4410   72.3160   64.3710 C.3   612  MET612      0.0401
    102  CG        28.9940   72.0820   63.9680 C.3   612  MET612      0.0596
    103  SD        28.7470   71.5740   62.2440 S.3   612  MET612     -0.1393
    104  CE        30.1930   72.2780   61.4710 C.3   612  MET612      0.0692
    105  N         33.1080   72.5990   64.2410 N.am  613  GLU613     -0.1966
    106  CA        34.4580   73.0270   63.9150 C.3   613  GLU613      0.1733
    107  C         34.6860   73.1110   62.4000 C.2   613  GLU613      0.2616
    108  O         33.8850   72.6180   61.5950 O.2   613  GLU613     -0.2715
    109  CB        35.4760   72.0650   64.5360 C.3   613  GLU613      0.0429
    110  CG        35.2700   71.7960   66.0180 C.3   613  GLU613      0.1163
    111  CD        36.3860   70.9640   66.6180 C.2   613  GLU613      0.3649
    112  OE1       36.7940   71.2650   67.7640 O.co2 613  GLU613     -0.2457
    113  OE2       36.8590   70.0150   65.9440 O.co2 613  GLU613     -0.2457
    114  N         35.8070   73.7150   62.0230 N.am  614  ASP614     -0.1971
    115  CA        36.1420   73.9140   60.6230 C.3   614  ASP614      0.1709
    116  C         37.6480   73.8100   60.4620 C.2   614  ASP614      0.2293
    117  O         38.3230   73.2190   61.2980 O.2   614  ASP614     -0.2864
    118  CB        35.6820   75.2970   60.2040 C.3   614  ASP614      0.1436
    119  CG        36.2610   76.3750   61.0810 C.2   614  ASP614      0.3671
    120  OD1       37.0450   76.0410   61.9910 O.co2 614  ASP614     -0.2456
    121  OD2       35.9410   77.5570   60.8640 O.co2 614  ASP614     -0.2456
    122  N         40.0500   75.7460   61.0490 N.3   616  ALA616     -0.1245
    123  CA        40.8340   76.2690   62.1500 C.3   616  ALA616      0.1562
    124  C         41.1220   75.2170   63.2250 C.2   616  ALA616      0.2260
    125  O         42.1680   75.2580   63.8810 O.2   616  ALA616     -0.2867
    126  CB        40.1430   77.4740   62.7560 C.3   616  ALA616      0.0290
@<TRIPOS>BOND
     1    32    31    2
     2    11    10    2
     3    31    30    1
     4    10     9    1
     5    29    30    1
     6    30    33    1
     7    12     9    1
     8    12    13    2
     9     9     8    1
    10    26    25    2
    11    25    24    1
    12    33    34    1
    13    13    14    1
    14     8    14    2
    15    15    16    1
    16    34    35    1
    17    28    27    1
    18    23    24    1
    19    23    17   am
    20    24    27    1
    21    16    17    1
    22    16    19    1
    23    92    93    1
    24    17    18    2
    25    22    20   ar
    26    35    36    1
    27    95    94    2
    28    36    37    2
    29    20    19    1
    30    20    21   ar
    31    93    94    1
    32    93    96    1
    33    37    39    1
    34    37    38    1
    35     6     5    1
    36     3     4    2
    37     3     2    1
    38   118   115    1
    39   118   119    1
    40     2     5    1
    41     2     1    1
    42   116   115    1
    43   116   117    2
    44   115   114    1
    45     5     7    1
    46   121   119   ar
    47   122   123    1
    48   119   120   ar
    49    54    53   ar
    50   104   103    1
    51    55    53   ar
    52   108   107    2
    53    53    52    1
    54   114   107   am
    55   123   126    1
    56   123   124    1
    57    84    82   ar
    58    84    83   ar
    59   103   102    1
    60    88    87    2
    61   107   106    1
    62    82    80   ar
    63    83    81   ar
    64   124   125    2
    65    52    49    1
    66   100    99    2
    67    80    79   ar
    68    80    78   ar
    69    87    86    1
    70    81    78   ar
    71   106   105    1
    72   106   109    1
    73    63    62    1
    74   102   101    1
    75    99   105   am
    76    99    98    1
    77    79    77   ar
    78    78    76   ar
    79    86    89    1
    80    86    85    1
    81   101    98    1
    82    49    50    1
    83    49    48    1
    84    98    97    1
    85   109   110    1
    86    51    50    2
    87    77    76   ar
    88    89    90    1
    89    76    75    1
    90    48    42   am
    91    85    91    1
    92    62    61    1
    93   113   111   ar
    94    75    72    1
    95   110   111    1
    96    61    60    1
    97    42    43    2
    98    42    41    1
    99    90    91    1
   100    60    57    1
   101    44    41    1
   102    44    45    1
   103   111   112   ar
   104    72    73    1
   105    72    71    1
   106    46    45    1
   107    73    74    2
   108    41    40    1
   109    45    47    1
   110    70    68    1
   111    57    56    1
   112    57    58    1
   113    67    66    2
   114    68    65    1
   115    68    69    1
   116    65    66    1
   117    65    64    1
   118    58    59    2
