@<TRIPOS>MOLECULE
tmp/5ccdA00.pdb
 149 141 0 0 0
SMALL
GASTEIGER

@<TRIPOS>ATOM
      1  N         22.7990  -30.1960    9.0440 N.3     9  ALA9       -0.1231
      2  CA        23.5980  -30.4760   10.2440 C.3     9  ALA9        0.1694
      3  C         24.9210  -29.7340   10.1540 C.2     9  ALA9        0.2591
      4  O         25.4830  -29.2970   11.1590 O.2     9  ALA9       -0.2718
      5  CB        23.8330  -31.9700   10.4100 C.3     9  ALA9        0.0304
      6  N         25.4040  -29.6020    8.9230 N.am   10  MET10      -0.1979
      7  CA        26.6670  -28.9340    8.6360 C.3    10  MET10       0.1605
      8  C         26.4780  -27.7460    7.7010 C.2    10  MET10       0.2287
      9  O         25.5030  -27.6820    6.9470 O.2    10  MET10      -0.2864
     10  CB        27.6510  -29.9290    8.0080 C.3    10  MET10       0.0413
     11  CG        27.7830  -31.2080    8.8260 C.3    10  MET10       0.0598
     12  SD        28.6960  -32.5670    8.1000 S.3    10  MET10      -0.1393
     13  CE        27.5310  -33.1030    6.7920 C.3    10  MET10       0.0692
     14  N         26.0320  -28.5110    4.1920 N.3    13  GLU13      -0.1245
     15  CA        24.7010  -28.9180    3.7320 C.3    13  GLU13       0.1567
     16  C         23.7180  -27.7850    3.4710 C.2    13  GLU13       0.2260
     17  O         22.7460  -27.9770    2.7400 O.2    13  GLU13      -0.2867
     18  CB        24.0850  -29.9260    4.7000 C.3    13  GLU13       0.0388
     19  CG        25.0080  -31.0840    4.9730 C.3    13  GLU13       0.1160
     20  CD        24.5210  -31.9790    6.0800 C.2    13  GLU13       0.3649
     21  OE1       24.3350  -31.4960    7.2210 O.co2  13  GLU13      -0.2457
     22  OE2       24.3610  -33.1810    5.8040 O.co2  13  GLU13      -0.2457
     23  N         26.5910  -30.8430   14.5380 N.3    52  ILE52      -0.1245
     24  CA        26.4090  -32.2640   14.6800 C.3    52  ILE52       0.1561
     25  C         25.8410  -32.7950   15.9860 C.2    52  ILE52       0.2260
     26  O         26.2250  -32.3710   17.0710 O.2    52  ILE52      -0.2867
     27  CB        27.7400  -32.9740   14.3600 C.3    52  ILE52       0.0252
     28  CG1       28.2140  -32.5470   12.9700 C.3    52  ILE52       0.0019
     29  CG2       27.5810  -34.4860   14.4500 C.3    52  ILE52       0.0019
     30  CD1       29.5730  -33.0910   12.5550 C.3    52  ILE52       0.0001
     31  N         23.1000  -35.3840    4.6900 N.3    78  VAL78      -0.1231
     32  CA        23.5870  -36.6330    4.1200 C.3    78  VAL78       0.1692
     33  C         23.4730  -37.7570    5.1540 C.2    78  VAL78       0.2592
     34  O         23.3660  -37.4950    6.3480 O.2    78  VAL78      -0.2718
     35  CB        25.0410  -36.4980    3.6290 C.3    78  VAL78       0.0266
     36  CG1       25.1600  -35.3900    2.5880 C.3    78  VAL78       0.0020
     37  CG2       25.9860  -36.2260    4.7960 C.3    78  VAL78       0.0020
     38  N         23.4750  -39.0040    4.6950 N.am   79  ALA79      -0.1966
     39  CA        23.3420  -40.1400    5.6020 C.3    79  ALA79       0.1728
     40  C         24.1550  -41.3470    5.1410 C.2    79  ALA79       0.2616
     41  O         24.8590  -41.2790    4.1400 O.2    79  ALA79      -0.2715
     42  CB        21.8630  -40.5040    5.7900 C.3    79  ALA79       0.0334
     43  N         24.0590  -42.4450    5.8800 N.am   80  GLY80      -0.1955
     44  CA        24.7990  -43.6480    5.5420 C.3    80  GLY80       0.1869
     45  C         23.8500  -44.8010    5.2950 C.2    80  GLY80       0.2309
     46  O         22.9900  -45.0820    6.1210 O.2    80  GLY80      -0.2863
     47  N         26.8290  -41.3670   17.2320 N.3   152  GLN152     -0.1231
     48  CA        28.0640  -42.0770   16.8320 C.3   152  GLN152      0.1698
     49  C         28.0940  -42.2400   15.3230 C.2   152  GLN152      0.2592
     50  O         27.1050  -42.6540   14.7130 O.2   152  GLN152     -0.2718
     51  CB        28.1710  -43.4940   17.4080 C.3   152  GLN152      0.0381
     52  CG        28.0170  -43.6200   18.8880 C.3   152  GLN152      0.0905
     53  CD        26.5840  -43.4680   19.2810 C.2   152  GLN152      0.2608
     54  OE1       25.7000  -44.1150   18.7230 O.2   152  GLN152     -0.2717
     55  NE2       26.3370  -42.6000   20.2210 N.am  152  GLN152     -0.0878
     56  N         29.2420  -41.9630   14.7210 N.am  153  PHE153     -0.1962
     57  CA        29.3330  -42.1420   13.2970 C.3   153  PHE153      0.1771
     58  C         29.4220  -43.6390   13.0780 C.2   153  PHE153      0.2619
     59  O         30.3240  -44.2900   13.6130 O.2   153  PHE153     -0.2715
     60  CB        30.5130  -41.3830   12.6870 C.3   153  PHE153      0.0574
     61  CG        30.5570  -41.4750   11.1930 C.ar  153  PHE153     -0.0200
     62  CD1       31.1900  -42.5400   10.5680 C.ar  153  PHE153     -0.0042
     63  CD2       29.9140  -40.5260   10.4050 C.ar  153  PHE153     -0.0042
     64  CE1       31.1870  -42.6500    9.1800 C.ar  153  PHE153     -0.0003
     65  CE2       29.9140  -40.6270    9.0250 C.ar  153  PHE153     -0.0003
     66  CZ        30.5530  -41.6930    8.4100 C.ar  153  PHE153     -0.0000
     67  N         28.4650  -44.1960   12.3380 N.am  154  VAL154     -0.1977
     68  CA        28.4600  -45.6500   12.0980 C.3   154  VAL154      0.1596
     69  C         29.4650  -46.0820   11.0260 C.2   154  VAL154      0.2287
     70  O         29.3440  -45.7070    9.8580 O.2   154  VAL154     -0.2864
     71  CB        27.0570  -46.1800   11.7380 C.3   154  VAL154      0.0276
     72  CG1       27.1050  -47.6800   11.3880 C.3   154  VAL154      0.0022
     73  CG2       26.1050  -45.9350   12.8950 C.3   154  VAL154      0.0022
     74  N         21.3680  -44.5310    8.3560 N.3   172  VAL172     -0.1231
     75  CA        21.7520  -44.0740    9.6690 C.3   172  VAL172      0.1692
     76  C         22.2990  -42.6570    9.5480 C.2   172  VAL172      0.2592
     77  O         22.9380  -42.3180    8.5510 O.2   172  VAL172     -0.2718
     78  CB        22.8130  -45.0100   10.2730 C.3   172  VAL172      0.0266
     79  CG1       24.0830  -45.0380    9.4120 C.3   172  VAL172      0.0020
     80  CG2       23.1080  -44.6110   11.6910 C.3   172  VAL172      0.0020
     81  N         22.0390  -41.8290   10.5520 N.am  173  GLU173     -0.1966
     82  CA        22.4960  -40.4440   10.5490 C.3   173  GLU173      0.1733
     83  C         22.6040  -40.0270   12.0020 C.2   173  GLU173      0.2616
     84  O         22.6030  -40.8730   12.8840 O.2   173  GLU173     -0.2715
     85  CB        21.4740  -39.5640    9.8610 C.3   173  GLU173      0.0429
     86  CG        20.2250  -39.4300   10.7120 C.3   173  GLU173      0.1163
     87  CD        19.1260  -38.8470    9.9300 C.2   173  GLU173      0.3649
     88  OE1       18.8660  -39.3460    8.8230 O.co2 173  GLU173     -0.2457
     89  OE2       18.5390  -37.8680   10.3820 O.co2 173  GLU173     -0.2457
     90  N         22.6890  -38.7280   12.2550 N.am  174  MET174     -0.1963
     91  CA        22.8340  -38.2400   13.6360 C.3   174  MET174      0.1736
     92  C         21.8890  -37.1350   14.1360 C.2   174  MET174      0.2616
     93  O         22.0320  -36.6930   15.2770 O.2   174  MET174     -0.2715
     94  CB        24.2790  -37.7500   13.8660 C.3   174  MET174      0.0427
     95  CG        25.3430  -38.8410   13.7210 C.3   174  MET174      0.0599
     96  SD        27.0930  -38.2810   13.7460 S.3   174  MET174     -0.1393
     97  CE        27.3390  -38.0850   15.4780 C.3   174  MET174      0.0692
     98  N         20.9780  -36.6470   13.2990 N.am  175  GLU175     -0.1977
     99  CA        20.1120  -35.5530   13.7190 C.3   175  GLU175      0.1602
    100  C         18.6590  -35.7500   13.3590 C.2   175  GLU175      0.2287
    101  O         17.8260  -34.9150   13.6910 O.2   175  GLU175     -0.2864
    102  CB        20.5550  -34.2360   13.0710 C.3   175  GLU175      0.0415
    103  CG        21.9660  -33.7890   13.3940 C.3   175  GLU175      0.1163
    104  CD        23.0170  -34.4170   12.4940 C.2   175  GLU175      0.3649
    105  OE1       22.6700  -34.7830   11.3490 O.co2 175  GLU175     -0.2457
    106  OE2       24.1920  -34.4980   12.9090 O.co2 175  GLU175     -0.2457
    107  N         17.4870  -36.9300    3.1070 N.3   194  ARG194     -0.1245
    108  CA        18.8680  -37.3090    3.2540 C.3   194  ARG194      0.1563
    109  C         19.4130  -37.9240    1.9550 C.2   194  ARG194      0.2260
    110  O         18.7530  -38.7600    1.3470 O.2   194  ARG194     -0.2867
    111  CB        18.9510  -38.3500    4.3640 C.3   194  ARG194      0.0307
    112  CG        18.6390  -37.8510    5.7960 C.3   194  ARG194      0.0489
    113  CD        19.7720  -36.9690    6.2950 C.3   194  ARG194      0.2205
    114  NE        19.7200  -36.7060    7.7230 N.pl3 194  ARG194     -0.0865
    115  CZ        20.6260  -35.9760    8.3730 C.cat 194  ARG194      0.5346
    116  NH1       21.5750  -35.3950    7.7090 N.pl3 194  ARG194      0.1354
    117  NH2       20.6090  -35.8210    9.6790 N.pl3 194  ARG194      0.1354
    118  N         27.6130  -42.4710    1.8260 N.3   198  ASN198     -0.1240
    119  CA        28.5100  -43.5540    2.2250 C.3   198  ASN198      0.1653
    120  C         27.7240  -44.8090    2.5760 C.2   198  ASN198      0.2266
    121  O         26.4910  -44.8200    2.4500 O.2   198  ASN198     -0.2867
    122  CB        29.4110  -43.1080    3.3830 C.3   198  ASN198      0.1155
    123  CG        28.6450  -42.8790    4.6730 C.2   198  ASN198      0.2627
    124  OD1       28.3810  -43.8190    5.4220 O.2   198  ASN198     -0.2716
    125  ND2       28.2900  -41.6240    4.9420 N.am  198  ASN198     -0.0877
    126  N         28.2960  -46.6240    5.6320 N.3   200  ALA200     -0.1245
    127  CA        28.3830  -46.8980    7.0680 C.3   200  ALA200      0.1562
    128  C         29.3090  -48.0680    7.4040 C.2   200  ALA200      0.2260
    129  O         29.2480  -48.6300    8.5020 O.2   200  ALA200     -0.2867
    130  CB        26.9930  -47.1600    7.6280 C.3   200  ALA200      0.0290
    131  N         32.5600  -40.8100    3.0330 N.3   208  PHE208     -0.1227
    132  CA        31.8770  -39.6000    3.4730 C.3   208  PHE208      0.1736
    133  C         32.5060  -38.3160    2.9160 C.2   208  PHE208      0.2595
    134  O         31.8060  -37.4830    2.3410 O.2   208  PHE208     -0.2718
    135  CB        31.8220  -39.5520    5.0060 C.3   208  PHE208      0.0547
    136  CG        31.2460  -38.2760    5.5580 C.ar  208  PHE208     -0.0202
    137  CD1       32.0080  -37.1240    5.6320 C.ar  208  PHE208     -0.0042
    138  CD2       29.9360  -38.2290    5.9890 C.ar  208  PHE208     -0.0042
    139  CE1       31.4760  -35.9580    6.1210 C.ar  208  PHE208     -0.0003
    140  CE2       29.4010  -37.0630    6.4800 C.ar  208  PHE208     -0.0003
    141  CZ        30.1690  -35.9260    6.5460 C.ar  208  PHE208     -0.0000
    142  N         33.8100  -38.1340    3.1140 N.am  209  ASP209     -0.1974
    143  CA        34.4810  -36.9160    2.6480 C.3   209  ASP209      0.1709
    144  C         34.3750  -36.6720    1.1410 C.2   209  ASP209      0.2293
    145  O         34.2270  -35.5330    0.6860 O.2   209  ASP209     -0.2864
    146  CB        35.9530  -36.9110    3.0710 C.3   209  ASP209      0.1436
    147  CG        36.1270  -36.8480    4.5770 C.2   209  ASP209      0.3671
    148  OD1       35.6810  -35.8480    5.1910 O.co2 209  ASP209     -0.2456
    149  OD2       36.7070  -37.7970    5.1440 O.co2 209  ASP209     -0.2456
@<TRIPOS>BOND
     1   145   144    2
     2   144   143    1
     3   110   109    2
     4   118   119    1
     5   109   108    1
     6   119   120    1
     7   119   122    1
     8   134   133    2
     9   121   120    2
    10    36    35    1
    11   143   146    1
    12   143   142    1
    13    17    16    2
    14   133   142   am
    15   133   132    1
    16   131   132    1
    17   146   147    1
    18   107   108    1
    19   108   111    1
    20   122   123    1
    21    16    15    1
    22   132   135    1
    23    35    32    1
    24    35    37    1
    25    15    14    1
    26    15    18    1
    27    32    31    1
    28    32    33    1
    29    41    40    2
    30   111   112    1
    31   147   149   ar
    32   147   148   ar
    33   123   125   am
    34   123   124    2
    35    38    33   am
    36    38    39    1
    37    18    19    1
    38    19    20    1
    39   135   136    1
    40    40    39    1
    41    40    43   am
    42    33    34    2
    43    45    44    1
    44    45    46    2
    45    44    43    1
    46   136   137   ar
    47   136   138   ar
    48    39    42    1
    49   137   139   ar
    50   126   127    1
    51   112   113    1
    52    22    20   ar
    53   138   140   ar
    54    20    21   ar
    55   139   141   ar
    56   113   114    1
    57   140   141   ar
    58    13    12    1
    59     9     8    2
    60   127   128    1
    61   127   130    1
    62   128   129    2
    63     8     7    1
    64   116   115    1
    65   114   115    2
    66    10     7    1
    67    10    11    1
    68    12    11    1
    69    74    75    1
    70   115   117    1
    71    66    65   ar
    72    66    64   ar
    73    77    76    2
    74     7     6    1
    75    88    87   ar
    76     6     3   am
    77    65    63   ar
    78     1     2    1
    79    64    62   ar
    80    79    78    1
    81    76    75    1
    82    76    81   am
    83    75    78    1
    84    70    69    2
    85    85    82    1
    86    85    86    1
    87    87    89   ar
    88    87    86    1
    89     3     2    1
    90     3     4    2
    91     2     5    1
    92    78    80    1
    93    63    61   ar
    94    82    81    1
    95    82    83    1
    96    62    61   ar
    97    69    68    1
    98    61    60    1
    99   105   104   ar
   100    72    71    1
   101    71    68    1
   102    71    73    1
   103    83    90   am
   104    83    84    2
   105    68    67    1
   106    90    91    1
   107    67    58   am
   108   104   106   ar
   109   104   103    1
   110    30    28    1
   111    60    57    1
   112    28    27    1
   113   102   103    1
   114   102    99    1
   115    58    57    1
   116    58    59    2
   117    57    56    1
   118    98    99    1
   119    98    92   am
   120   100   101    2
   121   100    99    1
   122    91    94    1
   123    91    92    1
   124    95    96    1
   125    95    94    1
   126    96    97    1
   127    92    93    2
   128    27    29    1
   129    27    24    1
   130    23    24    1
   131    24    25    1
   132    50    49    2
   133    56    49   am
   134    49    48    1
   135    25    26    2
   136    48    47    1
   137    48    51    1
   138    51    52    1
   139    54    53    2
   140    52    53    1
   141    53    55   am
