@<TRIPOS>MOLECULE
tmp/5cceA00.pdb
 109 103 0 0 0
SMALL
GASTEIGER

@<TRIPOS>ATOM
      1  N         22.5660  -29.8230    9.0540 N.3     9  ALA9       -0.1231
      2  CA        23.3940  -30.0640   10.2410 C.3     9  ALA9        0.1694
      3  C         24.7470  -29.3430   10.1370 C.2     9  ALA9        0.2591
      4  O         25.2720  -28.8350   11.1360 O.2     9  ALA9       -0.2718
      5  CB        23.6070  -31.5560   10.4530 C.3     9  ALA9        0.0304
      6  N         25.3090  -29.3190    8.9260 N.am   10  MET10      -0.1979
      7  CA        26.6160  -28.6890    8.6810 C.3    10  MET10       0.1605
      8  C         26.4930  -27.5210    7.7200 C.2    10  MET10       0.2287
      9  O         25.5750  -27.4840    6.8930 O.2    10  MET10      -0.2864
     10  CB        27.6050  -29.7080    8.1060 C.3    10  MET10       0.0413
     11  CG        27.8710  -30.8840    9.0130 C.3    10  MET10       0.0598
     12  SD        28.6330  -32.2460    8.1350 S.3    10  MET10      -0.1393
     13  CE        30.2360  -31.5340    7.7740 C.3    10  MET10       0.0692
     14  N         25.9170  -28.3480    4.2690 N.3    13  GLU13      -0.1245
     15  CA        24.6050  -28.8240    3.8740 C.3    13  GLU13       0.1567
     16  C         23.6430  -27.6840    3.5830 C.2    13  GLU13       0.2260
     17  O         22.6540  -27.8850    2.8790 O.2    13  GLU13      -0.2867
     18  CB        24.0400  -29.7840    4.9240 C.3    13  GLU13       0.0388
     19  CG        24.8980  -31.0330    5.0730 C.3    13  GLU13       0.1160
     20  CD        24.4760  -31.9320    6.2260 C.2    13  GLU13       0.3649
     21  OE1       24.0680  -31.4070    7.2860 O.co2  13  GLU13      -0.2457
     22  OE2       24.6090  -33.1690    6.0830 O.co2  13  GLU13      -0.2457
     23  N         26.3670  -30.6020   14.4490 N.3    52  ILE52      -0.1245
     24  CA        26.1780  -32.0250   14.5570 C.3    52  ILE52       0.1561
     25  C         25.6350  -32.6230   15.8530 C.2    52  ILE52       0.2260
     26  O         26.0320  -32.2340   16.9400 O.2    52  ILE52      -0.2867
     27  CB        27.5280  -32.7110   14.2530 C.3    52  ILE52       0.0252
     28  CG1       27.9900  -32.3630   12.8300 C.3    52  ILE52       0.0019
     29  CG2       27.4280  -34.2250   14.4250 C.3    52  ILE52       0.0019
     30  CD1       29.4770  -32.6490   12.5710 C.3    52  ILE52       0.0001
     31  N         22.8630  -35.3750    4.5230 N.3    78  VAL78      -0.1231
     32  CA        23.3230  -36.6340    3.9830 C.3    78  VAL78       0.1692
     33  C         23.1430  -37.6970    5.0510 C.2    78  VAL78       0.2591
     34  O         22.8860  -37.3670    6.2120 O.2    78  VAL78      -0.2718
     35  CB        24.8010  -36.5480    3.5670 C.3    78  VAL78       0.0266
     36  CG1       24.9850  -35.4630    2.5350 C.3    78  VAL78       0.0020
     37  CG2       25.6950  -36.2920    4.7760 C.3    78  VAL78       0.0020
     38  N         23.2760  -38.9640    4.6680 N.am   79  ALA79      -0.1980
     39  CA        23.1240  -40.0760    5.6010 C.3    79  ALA79       0.1597
     40  C         23.8700  -41.2910    5.0790 C.2    79  ALA79       0.2287
     41  O         24.3130  -41.3070    3.9380 O.2    79  ALA79      -0.2864
     42  CB        21.6490  -40.4230    5.7950 C.3    79  ALA79       0.0319
     43  N         29.0060  -41.6260   14.6210 N.3   153  PHE153     -0.1241
     44  CA        29.1210  -41.7570   13.1770 C.3   153  PHE153      0.1605
     45  C         29.3570  -43.2560   12.9760 C.2   153  PHE153      0.2264
     46  O         30.3130  -43.8120   13.5150 O.2   153  PHE153     -0.2867
     47  CB        30.2950  -40.9550   12.6100 C.3   153  PHE153      0.0534
     48  CG        30.3340  -40.9520   11.1080 C.ar  153  PHE153     -0.0203
     49  CD1       29.5440  -40.0730   10.3830 C.ar  153  PHE153     -0.0042
     50  CD2       31.1400  -41.8510   10.4200 C.ar  153  PHE153     -0.0042
     51  CE1       29.5650  -40.0820    9.0000 C.ar  153  PHE153     -0.0003
     52  CE2       31.1640  -41.8670    9.0310 C.ar  153  PHE153     -0.0003
     53  CZ        30.3760  -40.9790    8.3250 C.ar  153  PHE153     -0.0000
     54  N         21.8590  -41.5010   10.5090 N.3   173  GLU173     -0.1231
     55  CA        22.3950  -40.1490   10.5480 C.3   173  GLU173      0.1699
     56  C         22.4300  -39.6780   11.9860 C.2   173  GLU173      0.2592
     57  O         22.3330  -40.4890   12.8920 O.2   173  GLU173     -0.2718
     58  CB        21.7120  -39.1820    9.5740 C.3   173  GLU173      0.0402
     59  CG        20.2380  -39.4150    9.3530 C.3   173  GLU173      0.1161
     60  CD        19.3990  -38.6400   10.3350 C.2   173  GLU173      0.3649
     61  OE1       19.6760  -38.7470   11.5490 O.co2 173  GLU173     -0.2457
     62  OE2       18.4840  -37.9130    9.8910 O.co2 173  GLU173     -0.2457
     63  N         22.6790  -38.3990   12.2020 N.am  174  MET174     -0.1965
     64  CA        22.8560  -37.9070   13.5570 C.3   174  MET174      0.1736
     65  C         21.9110  -36.8100   14.0700 C.2   174  MET174      0.2616
     66  O         22.1220  -36.2970   15.1730 O.2   174  MET174     -0.2715
     67  CB        24.3260  -37.4710   13.7240 C.3   174  MET174      0.0427
     68  CG        25.3320  -38.5950   13.4100 C.3   174  MET174      0.0599
     69  SD        27.0860  -38.1000   13.5040 S.3   174  MET174     -0.1393
     70  CE        27.3000  -37.9670   15.2600 C.3   174  MET174      0.0692
     71  N         20.8920  -36.4400   13.2960 N.am  175  GLU175     -0.1977
     72  CA        19.9750  -35.3880   13.7320 C.3   175  GLU175      0.1602
     73  C         18.5030  -35.6080   13.3950 C.2   175  GLU175      0.2287
     74  O         17.6430  -34.9250   13.9400 O.2   175  GLU175     -0.2864
     75  CB        20.3400  -34.0280   13.1280 C.3   175  GLU175      0.0415
     76  CG        21.7350  -33.4870   13.4100 C.3   175  GLU175      0.1163
     77  CD        22.7870  -34.0440   12.4640 C.2   175  GLU175      0.3649
     78  OE1       22.4290  -34.4080   11.3210 O.co2 175  GLU175     -0.2457
     79  OE2       23.9740  -34.0980   12.8590 O.co2 175  GLU175     -0.2457
     80  N         17.1810  -37.0110    3.0470 N.3   194  ARG194     -0.1245
     81  CA        18.6000  -37.3340    3.1280 C.3   194  ARG194      0.1563
     82  C         19.1090  -37.9520    1.8240 C.2   194  ARG194      0.2260
     83  O         18.4070  -38.7330    1.1870 O.2   194  ARG194     -0.2867
     84  CB        18.8790  -38.3120    4.2770 C.3   194  ARG194      0.0307
     85  CG        18.5630  -37.7890    5.6720 C.3   194  ARG194      0.0489
     86  CD        19.5650  -36.7390    6.1300 C.3   194  ARG194      0.2205
     87  NE        19.4190  -36.4330    7.5500 N.pl3 194  ARG194     -0.0865
     88  CZ        20.3830  -35.9040    8.3140 C.cat 194  ARG194      0.5346
     89  NH1       21.5840  -35.5870    7.8000 N.pl3 194  ARG194      0.1354
     90  NH2       20.1420  -35.6970    9.6080 N.pl3 194  ARG194      0.1354
     91  N         32.4120  -40.5120    2.8370 N.3   208  PHE208     -0.1227
     92  CA        31.7480  -39.2940    3.2950 C.3   208  PHE208      0.1736
     93  C         32.4590  -38.0280    2.8130 C.2   208  PHE208      0.2595
     94  O         31.8250  -37.1150    2.2750 O.2   208  PHE208     -0.2718
     95  CB        31.6760  -39.2730    4.8200 C.3   208  PHE208      0.0547
     96  CG        30.9980  -38.0590    5.3750 C.ar  208  PHE208     -0.0202
     97  CD1       31.7180  -36.8990    5.6190 C.ar  208  PHE208     -0.0042
     98  CD2       29.6400  -38.0690    5.6460 C.ar  208  PHE208     -0.0042
     99  CE1       31.0950  -35.7730    6.1260 C.ar  208  PHE208     -0.0003
    100  CE2       29.0120  -36.9440    6.1560 C.ar  208  PHE208     -0.0003
    101  CZ        29.7370  -35.7980    6.3950 C.ar  208  PHE208     -0.0000
    102  N         33.7710  -37.9640    3.0230 N.am  209  ASP209     -0.1974
    103  CA        34.5420  -36.7920    2.6090 C.3   209  ASP209      0.1709
    104  C         34.4840  -36.5940    1.0930 C.2   209  ASP209      0.2293
    105  O         34.4500  -35.4650    0.6060 O.2   209  ASP209     -0.2864
    106  CB        36.0030  -36.8870    3.0750 C.3   209  ASP209      0.1436
    107  CG        36.1690  -36.6150    4.5670 C.2   209  ASP209      0.3671
    108  OD1       35.5730  -35.6320    5.0610 O.co2 209  ASP209     -0.2456
    109  OD2       36.9200  -37.3620    5.2380 O.co2 209  ASP209     -0.2456
@<TRIPOS>BOND
     1   105   104    2
     2   104   103    1
     3    83    82    2
     4    82    81    1
     5    94    93    2
     6    36    35    1
     7   103   102    1
     8   103   106    1
     9    93   102   am
    10    93    92    1
    11    91    92    1
    12    17    16    2
    13    80    81    1
    14   106   107    1
    15    81    84    1
    16    92    95    1
    17    35    32    1
    18    35    37    1
    19    16    15    1
    20    15    14    1
    21    15    18    1
    22    41    40    2
    23    32    31    1
    24    32    33    1
    25    84    85    1
    26   107   108   ar
    27   107   109   ar
    28    38    33   am
    29    38    39    1
    30    95    96    1
    31    18    19    1
    32    33    34    2
    33    19    20    1
    34    40    39    1
    35    96    97   ar
    36    96    98   ar
    37    39    42    1
    38    97    99   ar
    39    98   100   ar
    40    85    86    1
    41    22    20   ar
    42    99   101   ar
    43    86    87    1
    44   100   101   ar
    45    20    21   ar
    46     9     8    2
    47    87    88    2
    48     8     7    1
    49    13    12    1
    50    89    88    1
    51    10     7    1
    52    10    11    1
    53    12    11    1
    54    88    90    1
    55    53    51   ar
    56    53    52   ar
    57     7     6    1
    58     6     3   am
    59    51    49   ar
    60    52    50   ar
    61     1     2    1
    62    59    58    1
    63    59    60    1
    64    58    55    1
    65    62    60   ar
    66     3     2    1
    67     3     4    2
    68     2     5    1
    69    60    61   ar
    70    49    48   ar
    71    50    48   ar
    72    54    55    1
    73    55    56    1
    74    48    47    1
    75    78    77   ar
    76    56    63   am
    77    56    57    2
    78    63    64    1
    79    77    79   ar
    80    77    76    1
    81    30    28    1
    82    47    44    1
    83    28    27    1
    84    45    44    1
    85    45    46    2
    86    75    76    1
    87    75    72    1
    88    44    43    1
    89    71    72    1
    90    71    65   am
    91    73    72    1
    92    73    74    2
    93    68    69    1
    94    68    67    1
    95    69    70    1
    96    64    67    1
    97    64    65    1
    98    65    66    2
    99    27    29    1
   100    27    24    1
   101    23    24    1
   102    24    25    1
   103    25    26    2
