@<TRIPOS>MOLECULE
tmp/5cceA01.pdb
 97 93 0 0 0
SMALL
GASTEIGER

@<TRIPOS>ATOM
      1  N         22.8630  -35.3750    4.5230 N.3    78  VAL78      -0.1231
      2  CA        23.3230  -36.6340    3.9830 C.3    78  VAL78       0.1692
      3  C         23.1430  -37.6970    5.0510 C.2    78  VAL78       0.2592
      4  O         22.8860  -37.3670    6.2120 O.2    78  VAL78      -0.2718
      5  CB        24.8010  -36.5480    3.5670 C.3    78  VAL78       0.0266
      6  CG1       24.9850  -35.4630    2.5350 C.3    78  VAL78       0.0020
      7  CG2       25.6950  -36.2920    4.7760 C.3    78  VAL78       0.0020
      8  N         23.2760  -38.9640    4.6680 N.am   79  ALA79      -0.1966
      9  CA        23.1240  -40.0760    5.6010 C.3    79  ALA79       0.1728
     10  C         23.8700  -41.2910    5.0790 C.2    79  ALA79       0.2616
     11  O         24.3130  -41.3070    3.9380 O.2    79  ALA79      -0.2715
     12  CB        21.6490  -40.4230    5.7950 C.3    79  ALA79       0.0334
     13  N         23.9940  -42.3040    5.9270 N.am   80  GLY80      -0.1955
     14  CA        24.6730  -43.5240    5.5450 C.3    80  GLY80       0.1869
     15  C         23.6730  -44.6420    5.2980 C.2    80  GLY80       0.2309
     16  O         22.7300  -44.8110    6.0690 O.2    80  GLY80      -0.2863
     17  N         26.6540  -41.1040   17.2110 N.3   152  GLN152     -0.1231
     18  CA        27.8600  -41.7860   16.7700 C.3   152  GLN152      0.1698
     19  C         27.8520  -41.8720   15.2380 C.2   152  GLN152      0.2592
     20  O         26.8330  -42.1890   14.6330 O.2   152  GLN152     -0.2718
     21  CB        27.9760  -43.2000   17.3630 C.3   152  GLN152      0.0381
     22  CG        27.7070  -43.3260   18.8740 C.3   152  GLN152      0.0905
     23  CD        26.2200  -43.3270   19.1990 C.2   152  GLN152      0.2608
     24  OE1       25.4420  -44.0400   18.5650 O.2   152  GLN152     -0.2717
     25  NE2       25.8170  -42.5180   20.1660 N.am  152  GLN152     -0.0878
     26  N         29.0060  -41.6260   14.6210 N.am  153  PHE153     -0.1962
     27  CA        29.1210  -41.7570   13.1770 C.3   153  PHE153      0.1771
     28  C         29.3570  -43.2560   12.9760 C.2   153  PHE153      0.2619
     29  O         30.3130  -43.8120   13.5150 O.2   153  PHE153     -0.2715
     30  CB        30.2950  -40.9550   12.6100 C.3   153  PHE153      0.0574
     31  CG        30.3340  -40.9520   11.1080 C.ar  153  PHE153     -0.0200
     32  CD1       29.5440  -40.0730   10.3830 C.ar  153  PHE153     -0.0042
     33  CD2       31.1400  -41.8510   10.4200 C.ar  153  PHE153     -0.0042
     34  CE1       29.5650  -40.0820    9.0000 C.ar  153  PHE153     -0.0003
     35  CE2       31.1640  -41.8670    9.0310 C.ar  153  PHE153     -0.0003
     36  CZ        30.3760  -40.9790    8.3250 C.ar  153  PHE153     -0.0000
     37  N         28.4450  -43.9140   12.2740 N.am  154  VAL154     -0.1977
     38  CA        28.5050  -45.3630   12.0720 C.3   154  VAL154      0.1596
     39  C         29.4700  -45.8320   10.9810 C.2   154  VAL154      0.2287
     40  O         29.3440  -45.4620    9.8130 O.2   154  VAL154     -0.2864
     41  CB        27.0890  -45.9460   11.8470 C.3   154  VAL154      0.0276
     42  CG1       27.1480  -47.4540   11.6130 C.3   154  VAL154      0.0022
     43  CG2       26.2140  -45.6430   13.0570 C.3   154  VAL154      0.0022
     44  N         21.1870  -44.2430    8.3520 N.3   172  VAL172     -0.1231
     45  CA        21.5890  -43.7500    9.6560 C.3   172  VAL172      0.1692
     46  C         22.1930  -42.3570    9.5520 C.2   172  VAL172      0.2592
     47  O         22.9620  -42.0650    8.6330 O.2   172  VAL172     -0.2718
     48  CB        22.6150  -44.7080   10.3120 C.3   172  VAL172      0.0266
     49  CG1       23.9020  -44.7740    9.4770 C.3   172  VAL172      0.0020
     50  CG2       22.9280  -44.2790   11.7380 C.3   172  VAL172      0.0020
     51  N         21.8590  -41.5010   10.5090 N.am  173  GLU173     -0.1966
     52  CA        22.3950  -40.1490   10.5480 C.3   173  GLU173      0.1733
     53  C         22.4300  -39.6780   11.9860 C.2   173  GLU173      0.2616
     54  O         22.3330  -40.4890   12.8920 O.2   173  GLU173     -0.2715
     55  CB        21.7120  -39.1820    9.5740 C.3   173  GLU173      0.0429
     56  CG        20.2380  -39.4150    9.3530 C.3   173  GLU173      0.1163
     57  CD        19.3990  -38.6400   10.3350 C.2   173  GLU173      0.3649
     58  OE1       19.6760  -38.7470   11.5490 O.co2 173  GLU173     -0.2457
     59  OE2       18.4840  -37.9130    9.8910 O.co2 173  GLU173     -0.2457
     60  N         22.6790  -38.3990   12.2020 N.am  174  MET174     -0.1977
     61  CA        22.8560  -37.9070   13.5570 C.3   174  MET174      0.1605
     62  C         21.9110  -36.8100   14.0700 C.2   174  MET174      0.2287
     63  O         22.1220  -36.2970   15.1730 O.2   174  MET174     -0.2864
     64  CB        24.3260  -37.4710   13.7240 C.3   174  MET174      0.0413
     65  CG        25.3320  -38.5950   13.4100 C.3   174  MET174      0.0598
     66  SD        27.0860  -38.1000   13.5040 S.3   174  MET174     -0.1393
     67  CE        27.3000  -37.9670   15.2600 C.3   174  MET174      0.0692
     68  N         25.6490  -40.6750    1.4100 N.3   197  SER197     -0.1202
     69  CA        27.0110  -40.1970    1.2330 C.3   197  SER197      0.2020
     70  C         28.0120  -41.3140    1.4590 C.2   197  SER197      0.2618
     71  O         29.1980  -41.1630    1.1630 O.2   197  SER197     -0.2717
     72  CB        27.3100  -39.0620    2.2150 C.3   197  SER197      0.2103
     73  OG        27.1020  -39.4730    3.5620 O.3   197  SER197     -0.2182
     74  N         27.5370  -42.4220    2.0180 N.am  198  ASP198     -0.1973
     75  CA        28.4080  -43.5450    2.3310 C.3   198  ASP198      0.1709
     76  C         27.5720  -44.7500    2.7010 C.2   198  ASP198      0.2293
     77  O         26.3470  -44.6800    2.6740 O.2   198  ASP198     -0.2864
     78  CB        29.3600  -43.1860    3.4810 C.3   198  ASP198      0.1436
     79  CG        28.6250  -42.8050    4.7680 C.2   198  ASP198      0.3671
     80  OD1       28.2540  -41.6180    4.9030 O.co2 198  ASP198     -0.2456
     81  OD2       28.4200  -43.6870    5.6330 O.co2 198  ASP198     -0.2456
     82  N         28.0190  -46.5620    5.7240 N.3   200  ALA200     -0.1245
     83  CA        28.1700  -46.8260    7.1510 C.3   200  ALA200      0.1562
     84  C         29.0630  -48.0120    7.4990 C.2   200  ALA200      0.2260
     85  O         28.8600  -48.6590    8.5270 O.2   200  ALA200     -0.2867
     86  CB        26.7830  -46.9960    7.7960 C.3   200  ALA200      0.0290
     87  N         32.4120  -40.5120    2.8370 N.3   208  PHE208     -0.1241
     88  CA        31.7480  -39.2940    3.2950 C.3   208  PHE208      0.1605
     89  C         32.4590  -38.0280    2.8130 C.2   208  PHE208      0.2264
     90  O         31.8250  -37.1150    2.2750 O.2   208  PHE208     -0.2867
     91  CB        31.6760  -39.2730    4.8200 C.3   208  PHE208      0.0534
     92  CG        30.9980  -38.0590    5.3750 C.ar  208  PHE208     -0.0203
     93  CD1       31.7180  -36.8990    5.6190 C.ar  208  PHE208     -0.0042
     94  CD2       29.6400  -38.0690    5.6460 C.ar  208  PHE208     -0.0042
     95  CE1       31.0950  -35.7730    6.1260 C.ar  208  PHE208     -0.0003
     96  CE2       29.0120  -36.9440    6.1560 C.ar  208  PHE208     -0.0003
     97  CZ        29.7370  -35.7980    6.3950 C.ar  208  PHE208     -0.0000
@<TRIPOS>BOND
     1    71    70    2
     2    69    68    1
     3    69    70    1
     4    69    72    1
     5    70    74   am
     6    74    75    1
     7    72    73    1
     8    90    89    2
     9    75    76    1
    10    75    78    1
    11     6     5    1
    12    77    76    2
    13    89    88    1
    14    87    88    1
    15    88    91    1
    16    78    79    1
    17     5     2    1
    18     5     7    1
    19    11    10    2
    20     2     1    1
    21     2     3    1
    22     8     3   am
    23     8     9    1
    24    79    80   ar
    25    79    81   ar
    26    91    92    1
    27     3     4    2
    28    10     9    1
    29    10    13   am
    30    15    14    1
    31    15    16    2
    32    92    93   ar
    33    92    94   ar
    34    14    13    1
    35     9    12    1
    36    93    95   ar
    37    94    96   ar
    38    82    83    1
    39    95    97   ar
    40    96    97   ar
    41    83    84    1
    42    83    86    1
    43    84    85    2
    44    36    34   ar
    45    36    35   ar
    46    44    45    1
    47    47    46    2
    48    34    32   ar
    49    35    33   ar
    50    56    55    1
    51    56    57    1
    52    49    48    1
    53    46    45    1
    54    46    51   am
    55    55    52    1
    56    45    48    1
    57    40    39    2
    58    59    57   ar
    59    48    50    1
    60    57    58   ar
    61    32    31   ar
    62    33    31   ar
    63    51    52    1
    64    52    53    1
    65    39    38    1
    66    31    30    1
    67    42    41    1
    68    41    38    1
    69    41    43    1
    70    53    60   am
    71    53    54    2
    72    38    37    1
    73    60    61    1
    74    37    28   am
    75    30    27    1
    76    28    27    1
    77    28    29    2
    78    27    26    1
    79    65    66    1
    80    65    64    1
    81    66    67    1
    82    61    64    1
    83    61    62    1
    84    62    63    2
    85    26    19   am
    86    20    19    2
    87    19    18    1
    88    18    17    1
    89    18    21    1
    90    21    22    1
    91    24    23    2
    92    22    23    1
    93    23    25   am
