@<TRIPOS>MOLECULE
tmp/5cclA01.pdb
 166 160 0 0 0
SMALL
GASTEIGER

@<TRIPOS>ATOM
      1  N         15.5760   14.5020   14.3310 N.3   178  CYS178     -0.1221
      2  CA        15.3040   13.8820   15.6000 C.3   178  CYS178      0.1808
      3  C         14.0760   13.0070   15.6170 C.2   178  CYS178      0.2601
      4  O         13.7010   12.5710   16.7200 O.2   178  CYS178     -0.2717
      5  CB        15.2590   14.8760   16.7490 C.3   178  CYS178      0.0970
      6  SG        14.0040   16.0980   16.4970 S.3   178  CYS178     -0.0800
      7  N         13.4450   12.7990   14.4370 N.am  179  ASN179     -0.1960
      8  CA        12.2740   11.9210   14.3710 C.3   179  ASN179      0.1819
      9  C         12.3300   10.8390   13.2890 C.2   179  ASN179      0.2622
     10  O         11.3630   10.1660   13.0650 O.2   179  ASN179     -0.2715
     11  CB        11.0250   12.7690   14.1720 C.3   179  ASN179      0.1195
     12  CG        10.7420   13.6740   15.3580 C.2   179  ASN179      0.2630
     13  OD1       10.2660   13.2350   16.4270 O.2   179  ASN179     -0.2716
     14  ND2       11.0440   14.9380   15.2020 N.am  179  ASN179     -0.0877
     15  N         13.4780   10.6570   12.6590 N.am  180  SER180     -0.1936
     16  CA        13.7190    9.6420   11.6430 C.3   180  SER180      0.2055
     17  C         14.0300    8.2850   12.2620 C.2   180  SER180      0.2643
     18  O         14.9770    8.1760   13.0230 O.2   180  SER180     -0.2714
     19  CB        14.9500   10.0180   10.7570 C.3   180  SER180      0.2130
     20  OG        14.6150   11.0000    9.8020 O.3   180  SER180     -0.2179
     21  N         13.2330    7.2870   11.9090 N.am  181  PHE181     -0.1959
     22  CA        13.4320    5.9110   12.3620 C.3   181  PHE181      0.1771
     23  C         14.2700    5.1420   11.3720 C.2   181  PHE181      0.2620
     24  O         13.9120    5.0860   10.1740 O.2   181  PHE181     -0.2715
     25  CB        12.1030    5.1910   12.5330 C.3   181  PHE181      0.0574
     26  CG        11.2970    5.6950   13.6910 C.ar  181  PHE181     -0.0200
     27  CD1       10.4880    6.8200   13.5770 C.ar  181  PHE181     -0.0042
     28  CD2       11.3260    5.0660   14.9130 C.ar  181  PHE181     -0.0042
     29  CE1        9.7390    7.2970   14.6330 C.ar  181  PHE181     -0.0003
     30  CE2       10.5670    5.5120   15.9640 C.ar  181  PHE181     -0.0003
     31  CZ         9.7770    6.6490   15.8450 C.ar  181  PHE181     -0.0000
     32  N         15.3030    4.4530   11.8570 N.am  182  THR182     -0.1951
     33  CA        15.9850    3.4970   11.0160 C.3   182  THR182      0.1897
     34  C         15.1650    2.2080   10.9600 C.2   182  THR182      0.2313
     35  O         14.8520    1.6300   11.9810 O.2   182  THR182     -0.2863
     36  CB        17.3980    3.2300   11.5360 C.3   182  THR182      0.1794
     37  OG1       18.1930    4.4380   11.4460 O.3   182  THR182     -0.2208
     38  CG2       18.0810    2.1660   10.7480 C.3   182  THR182      0.0378
     39  N         14.7670   -1.6360   10.1270 N.3   184  CYS184     -0.1235
     40  CA        15.5870   -2.8300   10.0670 C.3   184  CYS184      0.1677
     41  C         14.8030   -3.9820    9.4770 C.2   184  CYS184      0.2270
     42  O         13.5930   -4.1060    9.6890 O.2   184  CYS184     -0.2867
     43  CB        16.0730   -3.1930   11.4610 C.3   184  CYS184      0.0956
     44  SG        17.2340   -1.9680   12.1160 S.3   184  CYS184     -0.0801
     45  N         20.0570   -2.7750    8.9780 N.3   190  GLU190     -0.1245
     46  CA        19.4680   -1.4750    8.6590 C.3   190  GLU190      0.1567
     47  C         19.2580   -1.4060    7.1560 C.2   190  GLU190      0.2260
     48  O         20.1780   -1.6440    6.3890 O.2   190  GLU190     -0.2867
     49  CB        20.4120   -0.3460    9.1300 C.3   190  GLU190      0.0388
     50  CG        20.5420   -0.3070   10.6440 C.3   190  GLU190      0.1160
     51  CD        21.4190    0.8110   11.1990 C.2   190  GLU190      0.3649
     52  OE1       21.9220    1.6440   10.4080 O.co2 190  GLU190     -0.2457
     53  OE2       21.5600    0.8510   12.4420 O.co2 190  GLU190     -0.2457
     54  N          4.4850    7.3860   16.5660 N.3   199  ILE199     -0.1231
     55  CA         5.5230    6.6860   17.3600 C.3   199  ILE199      0.1692
     56  C          6.5900    7.6600   17.8750 C.2   199  ILE199      0.2592
     57  O          7.2280    7.3910   18.9030 O.2   199  ILE199     -0.2718
     58  CB         6.1510    5.5390   16.5570 C.3   199  ILE199      0.0266
     59  CG1        5.0950    4.6310   15.9250 C.3   199  ILE199      0.0019
     60  CG2        7.1380    4.7310   17.3900 C.3   199  ILE199      0.0020
     61  CD1        4.1310    3.9950   16.9220 C.3   199  ILE199      0.0001
     62  N          6.7520    8.7870   17.1800 N.am  200  SER200     -0.1952
     63  CA         7.6540    9.8200   17.6610 C.3   200  SER200      0.1924
     64  C          7.2080   10.4670   18.9440 C.2   200  SER200      0.2314
     65  O          8.0070   11.2230   19.5070 O.2   200  SER200     -0.2863
     66  CB         7.8920   10.8640   16.6050 C.3   200  SER200      0.2116
     67  OG         8.6460   10.3500   15.5140 O.3   200  SER200     -0.2180
     68  N          6.9660    8.8390   21.6570 N.3   202  LEU202     -0.1245
     69  CA         7.6620    8.1280   22.7250 C.3   202  LEU202      0.1561
     70  C          8.9900    8.7710   23.0590 C.2   202  LEU202      0.2260
     71  O          9.8650    8.8870   22.2010 O.2   202  LEU202     -0.2867
     72  CB         7.9170    6.6770   22.3070 C.3   202  LEU202      0.0270
     73  CG         6.6520    5.8330   22.1520 C.3   202  LEU202      0.0019
     74  CD1        6.8190    4.7930   21.0710 C.3   202  LEU202      0.0001
     75  CD2        6.3340    5.1670   23.4710 C.3   202  LEU202      0.0001
     76  N          9.9480   -1.1460   19.7240 N.3   212  ILE212     -0.1245
     77  CA         9.4560   -1.2440   18.3620 C.3   212  ILE212      0.1561
     78  C         10.1860   -2.2850   17.5630 C.2   212  ILE212      0.2260
     79  O         11.3600   -2.5700   17.7920 O.2   212  ILE212     -0.2867
     80  CB         9.4960    0.1260   17.6190 C.3   212  ILE212      0.0252
     81  CG1       10.9230    0.6020   17.4130 C.3   212  ILE212      0.0019
     82  CG2        8.5960    1.1240   18.3250 C.3   212  ILE212      0.0019
     83  CD1       11.0240    1.8550   16.5980 C.3   212  ILE212      0.0001
     84  N         10.1860   -3.8280   13.2720 N.3   214  PHE214     -0.1241
     85  CA         9.7330   -3.6660   11.9000 C.3   214  PHE214      0.1605
     86  C          9.4940   -4.9820   11.1940 C.2   214  PHE214      0.2264
     87  O         10.2540   -5.9170   11.3460 O.2   214  PHE214     -0.2867
     88  CB        10.7800   -2.8620   11.0950 C.3   214  PHE214      0.0534
     89  CG        10.9890   -1.4880   11.6440 C.ar  214  PHE214     -0.0203
     90  CD1       10.1890   -0.4440   11.1960 C.ar  214  PHE214     -0.0042
     91  CD2       11.9900   -1.2340   12.5760 C.ar  214  PHE214     -0.0042
     92  CE1       10.3490    0.8150   11.7120 C.ar  214  PHE214     -0.0003
     93  CE2       12.1300    0.0200   13.0980 C.ar  214  PHE214     -0.0003
     94  CZ        11.3280    1.0460   12.6650 C.ar  214  PHE214     -0.0000
     95  N         10.9410    4.0960   24.6700 N.3   235  ILE235     -0.1231
     96  CA        11.7330    3.1790   23.8700 C.3   235  ILE235      0.1692
     97  C         13.1700    3.6060   23.9100 C.2   235  ILE235      0.2592
     98  O         13.4580    4.7520   24.2590 O.2   235  ILE235     -0.2718
     99  CB        11.1850    3.1100   22.4110 C.3   235  ILE235      0.0266
    100  CG1       11.2180    4.4460   21.6770 C.3   235  ILE235      0.0019
    101  CG2        9.8060    2.4400   22.3890 C.3   235  ILE235      0.0020
    102  CD1       10.7710    4.3890   20.2170 C.3   235  ILE235      0.0001
    103  N         14.0800    2.7080   23.5410 N.am  236  CYS236     -0.1956
    104  CA        15.4910    3.1010   23.4950 C.3   236  CYS236      0.1843
    105  C         15.7960    3.5360   22.0970 C.2   236  CYS236      0.2625
    106  O         15.6380    2.7750   21.1390 O.2   236  CYS236     -0.2714
    107  CB        16.3590    1.9310   23.9140 C.3   236  CYS236      0.0997
    108  SG        18.1010    2.3840   24.0480 S.3   236  CYS236     -0.0797
    109  N         16.2570    4.7690   21.9470 N.am  237  TYR237     -0.1960
    110  CA        16.6040    5.3220   20.6260 C.3   237  TYR237      0.1771
    111  C         17.8620    4.7450   20.0340 C.2   237  TYR237      0.2619
    112  O         18.1610    4.9480   18.8710 O.2   237  TYR237     -0.2715
    113  CB        16.7170    6.8550   20.6680 C.3   237  TYR237      0.0574
    114  CG        15.4800    7.6580   21.0010 C.ar  237  TYR237     -0.0198
    115  CD1       14.2710    7.1050   21.2860 C.ar  237  TYR237     -0.0009
    116  CD2       15.5660    9.0180   21.0580 C.ar  237  TYR237     -0.0009
    117  CE1       13.1570    7.9020   21.5790 C.ar  237  TYR237      0.0417
    118  CE2       14.5110    9.8200   21.3700 C.ar  237  TYR237      0.0417
    119  CZ        13.2830    9.2650   21.6310 C.ar  237  TYR237      0.1957
    120  OH        12.2360   10.1000   21.9270 O.3   237  TYR237     -0.2866
    121  N         18.6330    4.0630   20.8740 N.am  238  LEU238     -0.1963
    122  CA        20.0210    3.7450   20.5940 C.3   238  LEU238      0.1728
    123  C         20.3550    2.2780   20.5690 C.2   238  LEU238      0.2616
    124  O         19.7060    1.5030   21.2480 O.2   238  LEU238     -0.2715
    125  CB        20.9150    4.3710   21.6680 C.3   238  LEU238      0.0311
    126  CG        20.7530    5.8450   21.9620 C.3   238  LEU238      0.0022
    127  CD1       21.6470    6.2540   23.1060 C.3   238  LEU238      0.0001
    128  CD2       21.0910    6.6170   20.7140 C.3   238  LEU238      0.0001
    129  N         21.4250    1.9220   19.8560 N.am  239  ASP239     -0.1971
    130  CA        22.0950    0.5930   19.9410 C.3   239  ASP239      0.1709
    131  C         22.4640    0.3180   21.3870 C.2   239  ASP239      0.2293
    132  O         22.8940    1.2200   22.1060 O.2   239  ASP239     -0.2864
    133  CB        23.3150    0.6440   18.9760 C.3   239  ASP239      0.1436
    134  CG        24.4250   -0.4710   19.1760 C.2   239  ASP239      0.3671
    135  OD1       24.2170   -1.6550   19.5810 O.co2 239  ASP239     -0.2456
    136  OD2       25.5870   -0.0760   18.8490 O.co2 239  ASP239     -0.2456
    137  N         25.5200   10.7640   21.2930 N.3   250  GLN250     -0.1245
    138  CA        24.5170   10.6400   20.2680 C.3   250  GLN250      0.1566
    139  C         23.2260   11.3400   20.6790 C.2   250  GLN250      0.2260
    140  O         22.5540   11.9760   19.8390 O.2   250  GLN250     -0.2867
    141  CB        24.2650    9.1620   19.8880 C.3   250  GLN250      0.0367
    142  CG        23.3460    9.0010   18.7080 C.3   250  GLN250      0.0905
    143  CD        23.1530    7.5870   18.2030 C.2   250  GLN250      0.2608
    144  OE1       23.8500    6.6270   18.6060 O.2   250  GLN250     -0.2717
    145  NE2       22.1660    7.4400   17.3110 N.am  250  GLN250     -0.0878
    146  N         22.1220   14.2540   18.1350 N.3   254  GLN254     -0.1231
    147  CA        20.9700   13.9650   17.3030 C.3   254  GLN254      0.1698
    148  C         19.6560   14.4380   17.9270 C.2   254  GLN254      0.2592
    149  O         18.7230   14.8360   17.2110 O.2   254  GLN254     -0.2718
    150  CB        20.9050   12.4440   16.9880 C.3   254  GLN254      0.0381
    151  CG        19.7880   11.9860   16.0900 C.3   254  GLN254      0.0905
    152  CD        19.9980   10.5420   15.6440 C.2   254  GLN254      0.2608
    153  OE1       21.0060    9.9070   16.0010 O.2   254  GLN254     -0.2717
    154  NE2       19.0680   10.0240   14.8850 N.am  254  GLN254     -0.0878
    155  N         19.5620   14.3660   19.2540 N.am  255  TYR255     -0.1976
    156  CA        18.2680   14.5690   19.9480 C.3   255  TYR255      0.1639
    157  C         18.2530   15.7440   20.9090 C.2   255  TYR255      0.2290
    158  O         17.2460   16.0420   21.4950 O.2   255  TYR255     -0.2864
    159  CB        17.8420   13.2920   20.6740 C.3   255  TYR255      0.0560
    160  CG        17.6290   12.1360   19.7440 C.ar  255  TYR255     -0.0198
    161  CD1       16.4630   12.0760   18.9950 C.ar  255  TYR255     -0.0009
    162  CD2       18.5810   11.1480   19.5570 C.ar  255  TYR255     -0.0009
    163  CE1       16.2340   11.0360   18.1580 C.ar  255  TYR255      0.0417
    164  CE2       18.3510   10.1070   18.6850 C.ar  255  TYR255      0.0417
    165  CZ        17.1700   10.0590   17.9970 C.ar  255  TYR255      0.1957
    166  OH        16.9120    9.0140   17.1110 O.3   255  TYR255     -0.2866
@<TRIPOS>BOND
     1    48    47    2
     2    47    46    1
     3    46    45    1
     4    46    49    1
     5    49    50    1
     6    41    42    2
     7    41    40    1
     8    20    19    1
     9    40    39    1
    10    40    43    1
    11    24    23    2
    12    52    51   ar
    13    50    51    1
    14    38    36    1
    15    19    16    1
    16    34    33    1
    17    34    35    2
    18    33    36    1
    19    33    32    1
    20    88    89    1
    21    88    85    1
    22    86    87    2
    23    86    85    1
    24    90    89   ar
    25    90    92   ar
    26    51    53   ar
    27    23    32   am
    28    23    22    1
    29    37    36    1
    30    43    44    1
    31    16    17    1
    32    16    15    1
    33    89    91   ar
    34    92    94   ar
    35    85    84    1
    36    21    17   am
    37    21    22    1
    38    17    18    2
    39    22    25    1
    40    25    26    1
    41    91    93   ar
    42    15     9   am
    43    94    93   ar
    44    10     9    2
    45     9     8    1
    46    27    26   ar
    47    27    29   ar
    48    26    28   ar
    49    11     8    1
    50    11    12    1
    51     1     2    1
    52     8     7    1
    53     7     3   am
    54    29    31   ar
    55   154   152   am
    56    28    30   ar
    57    14    12   am
    58    12    13    2
    59    67    66    1
    60     2     3    1
    61     2     5    1
    62     3     4    2
    63   152   153    2
    64   152   151    1
    65    31    30   ar
    66    59    58    1
    67    59    61    1
    68   151   150    1
    69     6     5    1
    70    58    55    1
    71    58    60    1
    72    54    55    1
    73    83    81    1
    74    66    63    1
    75   150   147    1
    76   166   165    1
    77    62    63    1
    78    62    56   am
    79   149   148    2
    80   147   148    1
    81   147   146    1
    82   145   143   am
    83    55    56    1
    84    81    80    1
    85    78    79    2
    86    78    77    1
    87    80    82    1
    88    80    77    1
    89    63    64    1
    90    56    57    2
    91   148   155   am
    92   165   163   ar
    93   165   164   ar
    94   163   161   ar
    95   143   144    2
    96   143   142    1
    97    77    76    1
    98   164   162   ar
    99   142   141    1
   100   136   134   ar
   101   112   111    2
   102    64    65    2
   103   133   134    1
   104   133   130    1
   105   161   160   ar
   106   134   135   ar
   107   155   156    1
   108   162   160   ar
   109   160   159    1
   110   140   139    2
   111   129   130    1
   112   129   123   am
   113   141   138    1
   114   130   131    1
   115   156   159    1
   116   156   157    1
   117   111   110    1
   118   111   121   am
   119   102   100    1
   120   138   139    1
   121   138   137    1
   122   123   122    1
   123   123   124    2
   124   122   121    1
   125   122   125    1
   126   110   113    1
   127   110   109    1
   128   113   114    1
   129   128   126    1
   130   157   158    2
   131   114   116   ar
   132   114   115   ar
   133   116   118   ar
   134    74    73    1
   135   106   105    2
   136   115   117   ar
   137   118   119   ar
   138   131   132    2
   139   117   119   ar
   140   119   120    1
   141    68    69    1
   142   125   126    1
   143   100    99    1
   144   109   105   am
   145   126   127    1
   146   105   104    1
   147    73    72    1
   148    73    75    1
   149    71    70    2
   150    72    69    1
   151   101    99    1
   152    99    96    1
   153    69    70    1
   154   104   103    1
   155   104   107    1
   156   103    97   am
   157    96    97    1
   158    96    95    1
   159    97    98    2
   160   107   108    1
