@<TRIPOS>MOLECULE
tmp/5ccoA00.pdb
 93 87 0 0 0
SMALL
GASTEIGER

@<TRIPOS>ATOM
      1  N         -7.7860   15.4410   11.6930 N.3    43  VAL43      -0.1245
      2  CA        -8.4430   14.5560   12.6290 C.3    43  VAL43       0.1561
      3  C         -7.3520   13.8410   13.3760 C.2    43  VAL43       0.2260
      4  O         -6.7130   12.9710   12.8140 O.2    43  VAL43      -0.2867
      5  CB        -9.3810   13.5490   11.9300 C.3    43  VAL43       0.0252
      6  CG1       -9.9430   12.5610   12.9370 C.3    43  VAL43       0.0019
      7  CG2      -10.5340   14.2910   11.2360 C.3    43  VAL43       0.0019
      8  N        -17.4590   14.5860   22.3400 N.3    60  LEU60      -0.1245
      9  CA       -16.0010   14.6550   22.3170 C.3    60  LEU60       0.1561
     10  C        -15.6210   16.1220   22.0290 C.2    60  LEU60       0.2260
     11  O        -15.7300   16.6220   20.9050 O.2    60  LEU60      -0.2867
     12  CB       -15.4250   13.6900   21.2860 C.3    60  LEU60       0.0270
     13  CG       -13.8830   13.6060   21.2220 C.3    60  LEU60       0.0019
     14  CD1      -13.2920   12.9380   22.4420 C.3    60  LEU60       0.0001
     15  CD2      -13.4720   12.8130   19.9970 C.3    60  LEU60       0.0001
     16  N        -14.0540   20.8290   17.1000 N.3    75  GLU75      -0.1245
     17  CA       -15.4870   20.6840   16.8690 C.3    75  GLU75       0.1567
     18  C        -15.9850   19.4780   17.6820 C.2    75  GLU75       0.2260
     19  O        -15.4630   18.3650   17.5250 O.2    75  GLU75      -0.2867
     20  CB       -15.7830   20.4970   15.3790 C.3    75  GLU75       0.0388
     21  CG       -17.2560   20.2260   15.0760 C.3    75  GLU75       0.1160
     22  CD       -18.1660   21.4330   15.2720 C.2    75  GLU75       0.3649
     23  OE1      -17.6380   22.5560   15.4420 O.co2  75  GLU75      -0.2457
     24  OE2      -19.4180   21.2590   15.2200 O.co2  75  GLU75      -0.2457
     25  N        -17.6030   16.3270   18.7260 N.3    77  GLY77      -0.1210
     26  CA       -17.9570   15.1320   18.0100 C.3    77  GLY77       0.1956
     27  C        -19.0750   14.4990   18.7710 C.2    77  GLY77       0.2612
     28  O        -19.0010   14.4040   20.0050 O.2    77  GLY77      -0.2717
     29  N        -20.1080   14.0830   18.0450 N.am   78  LYS78      -0.1965
     30  CA       -21.2250   13.3180   18.6030 C.3    78  LYS78       0.1728
     31  C        -20.8590   11.8610   18.3380 C.2    78  LYS78       0.2616
     32  O        -20.8340   11.4210   17.1970 O.2    78  LYS78      -0.2715
     33  CB       -22.5480   13.6880   17.9420 C.3    78  LYS78       0.0311
     34  CG       -23.1830   14.9610   18.4750 C.3    78  LYS78       0.0038
     35  CD       -22.3200   16.2090   18.2430 C.3    78  LYS78       0.0206
     36  CE       -22.1670   16.4920   16.7420 C.3    78  LYS78       0.1093
     37  NZ       -21.5670   17.8200   16.4160 N.3    78  LYS78      -0.1314
     38  N        -20.5340   11.1500   19.4120 N.am   79  ILE79      -0.1963
     39  CA       -20.0550    9.8010   19.3470 C.3    79  ILE79       0.1727
     40  C        -21.2490    8.8330   19.5480 C.2    79  ILE79       0.2616
     41  O        -21.8140    8.7190   20.6490 O.2    79  ILE79      -0.2715
     42  CB       -18.9560    9.5630   20.3970 C.3    79  ILE79       0.0290
     43  CG1      -17.9010   10.6830   20.3610 C.3    79  ILE79       0.0022
     44  CG2      -18.2990    8.1970   20.1690 C.3    79  ILE79       0.0023
     45  CD1      -17.1760   10.8650   19.0450 C.3    79  ILE79       0.0001
     46  N        -21.6160    8.1570   18.4630 N.am   80  ASP80      -0.1971
     47  CA       -22.8280    7.3300   18.4220 C.3    80  ASP80       0.1709
     48  C        -22.6750    6.0980   19.3090 C.2    80  ASP80       0.2293
     49  O        -21.5660    5.5630   19.4630 O.2    80  ASP80      -0.2864
     50  CB       -23.2060    6.9470   16.9490 C.3    80  ASP80       0.1436
     51  CG       -23.6900    8.1880   16.0990 C.2    80  ASP80       0.3671
     52  OD1      -24.8170    8.6690   16.3020 O.co2  80  ASP80      -0.2456
     53  OD2      -22.9560    8.7040   15.2300 O.co2  80  ASP80      -0.2456
     54  N        -20.6980    2.9160   17.8470 N.3    83  TYR83      -0.1241
     55  CA       -19.4070    3.2430   17.1800 C.3    83  TYR83       0.1605
     56  C        -18.1830    2.7040   17.9270 C.2    83  TYR83       0.2264
     57  O        -17.8850    3.1490   19.0590 O.2    83  TYR83      -0.2867
     58  CB       -19.1870    4.7450   17.0170 C.3    83  TYR83       0.0534
     59  CG       -17.8370    5.1190   16.3720 C.ar   83  TYR83      -0.0201
     60  CD1      -17.6190    4.9350   15.0050 C.ar   83  TYR83      -0.0009
     61  CD2      -16.7980    5.6740   17.1240 C.ar   83  TYR83      -0.0009
     62  CE1      -16.4220    5.3170   14.4100 C.ar   83  TYR83       0.0417
     63  CE2      -15.6020    6.0630   16.5360 C.ar   83  TYR83       0.0417
     64  CZ       -15.4210    5.8870   15.1830 C.ar   83  TYR83       0.1957
     65  OH       -14.2230    6.2350   14.5920 O.3    83  TYR83      -0.2866
     66  N        -11.7990    4.1700   16.0840 N.3    86  ASN86      -0.1225
     67  CA       -10.8400    5.0650   16.7140 C.3    86  ASN86       0.1785
     68  C        -11.4740    6.4540   16.8420 C.2    86  ASN86       0.2597
     69  O        -11.9400    7.0070   15.8410 O.2    86  ASN86      -0.2718
     70  CB        -9.5810    5.1330   15.8480 C.3    86  ASN86       0.1169
     71  CG        -8.4220    5.7990   16.5390 C.2    86  ASN86       0.2627
     72  OD1       -8.5880    6.6710   17.3900 O.2    86  ASN86      -0.2716
     73  ND2       -7.2200    5.4020   16.1420 N.am   86  ASN86      -0.0877
     74  N        -11.5280    6.9760   18.0620 N.am   87  LEU87      -0.1966
     75  CA       -12.0340    8.3260   18.3140 C.3    87  LEU87       0.1728
     76  C        -11.0930    9.3700   17.7080 C.2    87  LEU87       0.2616
     77  O         -9.8930    9.3730   17.9990 O.2    87  LEU87      -0.2715
     78  CB       -12.2070    8.5870   19.8110 C.3    87  LEU87       0.0311
     79  CG       -13.2460    7.7260   20.5200 C.3    87  LEU87       0.0022
     80  CD1      -13.1800    7.9980   22.0130 C.3    87  LEU87       0.0001
     81  CD2      -14.6200    8.0680   19.9750 C.3    87  LEU87       0.0001
     82  N        -11.6710   10.2160   16.8580 N.am   88  GLY88      -0.1955
     83  CA       -10.9570   11.2350   16.1200 C.3    88  GLY88       0.1869
     84  C        -11.2590   12.6130   16.6840 C.2    88  GLY88       0.2309
     85  O        -12.4270   12.9800   16.8400 O.2    88  GLY88      -0.2863
     86  N        -11.4150   16.2390   15.9140 N.3    90  ASN90      -0.1240
     87  CA       -11.6640   17.0530   14.7370 C.3    90  ASN90       0.1653
     88  C        -11.2890   18.5020   15.0790 C.2    90  ASN90       0.2266
     89  O        -12.0130   19.1920   15.8090 O.2    90  ASN90      -0.2867
     90  CB       -13.1390   16.8950   14.3820 C.3    90  ASN90       0.1155
     91  CG       -13.5580   17.6270   13.1300 C.2    90  ASN90       0.2627
     92  OD1      -12.7510   18.0300   12.2940 O.2    90  ASN90      -0.2716
     93  ND2      -14.8620   17.7920   12.9970 N.am   90  ASN90      -0.0877
@<TRIPOS>BOND
     1     7     5    1
     2     1     2    1
     3     5     2    1
     4     5     6    1
     5    92    91    2
     6     2     3    1
     7     4     3    2
     8    93    91   am
     9    91    90    1
    10    90    87    1
    11    62    60   ar
    12    62    64   ar
    13    65    64    1
    14    87    88    1
    15    87    86    1
    16    60    59   ar
    17    21    22    1
    18    21    20    1
    19    88    89    2
    20    64    63   ar
    21    24    22   ar
    22    53    51   ar
    23    22    23   ar
    24    20    17    1
    25    69    68    2
    26    70    71    1
    27    70    67    1
    28    66    67    1
    29    51    52   ar
    30    51    50    1
    31    83    84    1
    32    83    82    1
    33    73    71   am
    34    59    58    1
    35    59    61   ar
    36    37    36    1
    37    63    61   ar
    38    71    72    2
    39    84    85    2
    40    67    68    1
    41    36    35    1
    42    68    74   am
    43    82    76   am
    44    17    16    1
    45    17    18    1
    46    50    47    1
    47    58    55    1
    48    55    54    1
    49    55    56    1
    50    32    31    2
    51    19    18    2
    52    76    77    2
    53    76    75    1
    54    56    57    2
    55    33    34    1
    56    33    30    1
    57    26    25    1
    58    26    27    1
    59    29    30    1
    60    29    27   am
    61    74    75    1
    62    35    34    1
    63    75    78    1
    64    31    30    1
    65    31    38   am
    66    47    46    1
    67    47    48    1
    68    46    40   am
    69    27    28    2
    70    45    43    1
    71    48    49    2
    72    39    38    1
    73    39    40    1
    74    39    42    1
    75    40    41    2
    76    78    79    1
    77    81    79    1
    78    15    13    1
    79    44    42    1
    80    43    42    1
    81    79    80    1
    82    11    10    2
    83    13    12    1
    84    13    14    1
    85    12     9    1
    86    10     9    1
    87     9     8    1
