@<TRIPOS>MOLECULE
tmp/5ccqA02.pdb
 152 145 0 0 0
SMALL
GASTEIGER

@<TRIPOS>ATOM
      1  N          5.9780   -9.0250   -3.5280 N.3    53  HIS53      -0.1226
      2  CA         5.0310   -8.3500   -4.4300 C.3    53  HIS53       0.1752
      3  C          5.1660   -6.8290   -4.4070 C.2    53  HIS53       0.2595
      4  O          4.5690   -6.1820   -5.2790 O.2    53  HIS53      -0.2718
      5  CB         3.5840   -8.7430   -4.1200 C.3    53  HIS53       0.0759
      6  CG         3.1100   -8.2150   -2.7960 C.ar   53  HIS53       0.0818
      7  ND1        3.3440   -8.9030   -1.6160 N.ar   53  HIS53      -0.2268
      8  CD2        2.4990   -7.0580   -2.4440 C.ar   53  HIS53       0.1154
      9  CE1        2.8410   -8.2210   -0.6130 C.ar   53  HIS53       0.1986
     10  NE2        2.3710   -7.0740   -1.0760 N.ar   53  HIS53      -0.2212
     11  N          5.8010   -6.2140   -3.3870 N.am   54  ARG54      -0.1980
     12  CA         5.9070   -4.7980   -3.2770 C.3    54  ARG54       0.1597
     13  C          7.2470   -4.3990   -2.7590 C.2    54  ARG54       0.2287
     14  O          7.5500   -4.6630   -1.6030 O.2    54  ARG54      -0.2864
     15  CB         4.8230   -4.1970   -2.3820 C.3    54  ARG54       0.0334
     16  CG         4.8540   -2.7030   -2.3310 C.3    54  ARG54       0.0492
     17  CD         3.5690   -2.1040   -1.8710 C.3    54  ARG54       0.2205
     18  NE         3.6660   -1.9070   -0.5040 N.pl3  54  ARG54      -0.0865
     19  CZ         3.6560   -0.7950    0.2270 C.cat  54  ARG54       0.5346
     20  NH1        3.7590   -0.9340    1.5570 N.pl3  54  ARG54       0.1354
     21  NH2        3.5610    0.3960   -0.2170 N.pl3  54  ARG54       0.1354
     22  N         13.0700    2.1430    1.0160 N.3    59  PHE59      -0.1227
     23  CA        12.0170    2.0050    1.9850 C.3    59  PHE59       0.1736
     24  C         12.0000    0.5680    2.5390 C.2    59  PHE59       0.2595
     25  O         12.5140    0.3130    3.6360 O.2    59  PHE59      -0.2718
     26  CB        10.6470    2.3640    1.3170 C.3    59  PHE59       0.0547
     27  CG         9.4250    2.2190    2.2150 C.ar   59  PHE59      -0.0202
     28  CD1        9.5150    2.1380    3.6390 C.ar   59  PHE59      -0.0042
     29  CD2        8.1790    2.2400    1.6410 C.ar   59  PHE59      -0.0042
     30  CE1        8.3740    2.0580    4.4020 C.ar   59  PHE59      -0.0003
     31  CE2        7.0320    2.1340    2.4020 C.ar   59  PHE59      -0.0003
     32  CZ         7.1080    2.1150    3.7780 C.ar   59  PHE59      -0.0000
     33  N         11.4570   -0.3680    1.7490 N.am   60  MET60      -0.1979
     34  CA        11.2400   -1.7560    2.2400 C.3    60  MET60       0.1605
     35  C         10.9060   -2.7360    1.1340 C.2    60  MET60       0.2287
     36  O         10.5280   -2.3330    0.0220 O.2    60  MET60      -0.2864
     37  CB        10.2280   -1.8180    3.4200 C.3    60  MET60       0.0413
     38  CG         8.8310   -1.3520    3.0520 C.3    60  MET60       0.0598
     39  SD         7.8890   -2.6280    2.1980 S.3    60  MET60      -0.1393
     40  CE         7.2610   -1.7250    0.7480 C.3    60  MET60       0.0692
     41  N          8.4620   -6.0140    0.5790 N.3    62  GLN62      -0.1245
     42  CA         7.2660   -6.6220    1.2030 C.3    62  GLN62       0.1566
     43  C          6.8640   -7.9290    0.5070 C.2    62  GLN62       0.2260
     44  O          6.9090   -8.0860   -0.7240 O.2    62  GLN62      -0.2867
     45  CB         6.0750   -5.6440    1.2190 C.3    62  GLN62       0.0367
     46  CG         4.8480   -6.0860    2.0170 C.3    62  GLN62       0.0905
     47  CD         3.7980   -5.0030    2.0540 C.2    62  GLN62       0.2608
     48  OE1        4.1490   -3.8290    1.9860 O.2    62  GLN62      -0.2717
     49  NE2        2.5230   -5.3750    2.1950 N.am   62  GLN62      -0.0878
     50  N         -0.6980   -8.4820   -2.4290 N.3    71  GLY71      -0.1210
     51  CA        -0.8860   -7.5630   -1.3510 C.3    71  GLY71       0.1956
     52  C         -2.2500   -7.4370   -0.7490 C.2    71  GLY71       0.2613
     53  O         -2.4330   -6.7400    0.2620 O.2    71  GLY71      -0.2717
     54  N         -3.2230   -8.2060   -1.3110 N.am   72  THR72      -0.1938
     55  CA        -4.5270   -8.2650   -0.7120 C.3    72  THR72       0.2028
     56  C         -4.7380   -9.3330    0.2710 C.2    72  THR72       0.2643
     57  O         -5.7160   -9.2320    1.0280 O.2    72  THR72      -0.2714
     58  CB        -5.6370   -8.3520   -1.7700 C.3    72  THR72       0.1808
     59  OG1       -5.4660   -9.5100   -2.6030 O.3    72  THR72      -0.2208
     60  CG2       -5.4630   -7.1390   -2.6390 C.3    72  THR72       0.0379
     61  N         -3.9450  -10.4130    0.2190 N.am   73  GLY73      -0.1939
     62  CA        -4.2460  -11.5960    0.9970 C.3    73  GLY73       0.2014
     63  C         -3.1900  -12.0720    1.9900 C.2    73  GLY73       0.2639
     64  O         -2.5020  -11.2780    2.5900 O.2    73  GLY73      -0.2714
     65  N         -3.0950  -13.3810    2.1000 N.am   74  GLY74      -0.1954
     66  CA        -2.3670  -14.0680    3.2170 C.3    74  GLY74       0.1869
     67  C         -3.2690  -14.5040    4.3730 C.2    74  GLY74       0.2309
     68  O         -4.4920  -14.1690    4.4830 O.2    74  GLY74      -0.2863
     69  N         -6.5890  -13.4630   10.5720 N.3    81  ARG81      -0.1245
     70  CA        -5.9180  -12.3270   11.1500 C.3    81  ARG81       0.1563
     71  C         -5.7310  -12.5460   12.6240 C.2    81  ARG81       0.2260
     72  O         -6.4530  -13.3610   13.2360 O.2    81  ARG81      -0.2867
     73  CB        -6.7450  -11.0460   10.9300 C.3    81  ARG81       0.0307
     74  CG        -6.5170  -10.5310    9.5110 C.3    81  ARG81       0.0489
     75  CD        -7.6900   -9.9570    8.7100 C.3    81  ARG81       0.2205
     76  NE        -8.8140   -9.5840    9.5980 N.pl3  81  ARG81      -0.0865
     77  CZ        -9.5550   -8.4860    9.4610 C.cat  81  ARG81       0.5346
     78  NH1       -9.3300   -7.6840    8.4400 N.pl3  81  ARG81       0.1354
     79  NH2      -10.4980   -8.2100   10.3630 N.pl3  81  ARG81       0.1354
     80  N          3.3020   -6.4230    7.9610 N.3   100  ALA100     -0.1231
     81  CA         2.3890   -5.5660    7.1600 C.3   100  ALA100      0.1694
     82  C          0.9880   -5.6800    7.7330 C.2   100  ALA100      0.2592
     83  O          0.6420   -6.6780    8.3980 O.2   100  ALA100     -0.2718
     84  CB         2.3440   -6.0890    5.6940 C.3   100  ALA100      0.0304
     85  N          0.1540   -4.6600    7.5170 N.am  101  ASN101     -0.1960
     86  CA        -1.2160   -4.7730    7.9780 C.3   101  ASN101      0.1819
     87  C         -2.1290   -3.8310    7.1910 C.2   101  ASN101      0.2621
     88  O         -1.6630   -3.0940    6.3300 O.2   101  ASN101     -0.2715
     89  CB        -1.2980   -4.5830    9.4760 C.3   101  ASN101      0.1195
     90  CG        -0.9370   -3.1990    9.9170 C.2   101  ASN101      0.2630
     91  OD1       -1.4450   -2.2430    9.3470 O.2   101  ASN101     -0.2716
     92  ND2       -0.1040   -3.0800   10.9650 N.am  101  ASN101     -0.0877
     93  N         -3.4310   -4.0100    7.4560 N.am  102  ALA102     -0.1977
     94  CA        -4.5060   -3.1970    6.8480 C.3   102  ALA102      0.1597
     95  C         -5.2180   -2.4100    7.9670 C.2   102  ALA102      0.2287
     96  O         -6.4470   -2.2300    7.9730 O.2   102  ALA102     -0.2864
     97  CB        -5.4580   -4.0810    6.0650 C.3   102  ALA102      0.0319
     98  N         -4.8070   -6.5610   12.3290 N.3   106  THR106     -0.1218
     99  CA        -5.0120   -7.2160   11.0140 C.3   106  THR106      0.1862
    100  C         -3.7570   -7.9500   10.5100 C.2   106  THR106      0.2287
    101  O         -3.5940   -8.2260    9.2940 O.2   106  THR106     -0.2866
    102  CB        -5.4710   -6.2510    9.9160 C.3   106  THR106      0.1770
    103  OG1       -4.5640   -5.1990    9.7480 O.3   106  THR106     -0.2211
    104  CG2       -6.8310   -5.6460   10.2850 C.3   106  THR106      0.0375
    105  N         -1.5790  -10.9550    9.3860 N.3   108  GLY108     -0.1210
    106  CA        -1.8060  -12.1730    8.7270 C.3   108  GLY108      0.1956
    107  C         -0.4860  -12.9330    8.5060 C.2   108  GLY108      0.2613
    108  O          0.0700  -13.5430    9.4350 O.2   108  GLY108     -0.2717
    109  N         -0.0470  -12.8940    7.2610 N.am  109  SER109     -0.1938
    110  CA         1.2160  -13.4540    6.8070 C.3   109  SER109      0.2055
    111  C          2.0980  -12.4500    6.1410 C.2   109  SER109      0.2642
    112  O          3.3340  -12.6680    6.0510 O.2   109  SER109     -0.2714
    113  CB         1.0010  -14.6370    5.8910 C.3   109  SER109      0.2130
    114  OG         0.1960  -14.3140    4.7450 O.3   109  SER109     -0.2179
    115  N          1.5500  -11.3280    5.6550 N.am  110  GLN110     -0.1976
    116  CA         2.4010  -10.3710    4.9860 C.3   110  GLN110      0.1601
    117  C          3.3750   -9.7040    5.9670 C.2   110  GLN110      0.2287
    118  O          3.0200   -9.3480    7.1220 O.2   110  GLN110     -0.2864
    119  CB         1.6040   -9.3310    4.2070 C.3   110  GLN110      0.0394
    120  CG         0.9040   -9.8870    2.9860 C.3   110  GLN110      0.0908
    121  CD         0.2670   -8.7520    2.1920 C.2   110  GLN110      0.2608
    122  OE1        0.9120   -7.7330    1.9210 O.2   110  GLN110     -0.2717
    123  NE2       -1.0160   -8.8640    1.9730 N.am  110  GLN110     -0.0878
    124  N          7.4130   -7.3080    5.9960 N.3   112  PHE112     -0.1241
    125  CA         8.4020   -6.5010    5.2730 C.3   112  PHE112      0.1605
    126  C          9.7650   -6.4990    5.9650 C.2   112  PHE112      0.2264
    127  O          9.8370   -6.6630    7.1990 O.2   112  PHE112     -0.2867
    128  CB         7.8690   -5.0920    4.9240 C.3   112  PHE112      0.0534
    129  CG         7.5460   -4.2350    6.1050 C.ar  112  PHE112     -0.0203
    130  CD1        6.3320   -4.3430    6.7940 C.ar  112  PHE112     -0.0042
    131  CD2        8.4520   -3.2990    6.5540 C.ar  112  PHE112     -0.0042
    132  CE1        6.0360   -3.5150    7.8300 C.ar  112  PHE112     -0.0003
    133  CE2        8.1510   -2.4480    7.5920 C.ar  112  PHE112     -0.0003
    134  CZ         6.9620   -2.5940    8.2920 C.ar  112  PHE112     -0.0000
    135  N          6.5410    4.1530   11.3360 N.3   121  LEU121     -0.1245
    136  CA         5.7040    2.9460   11.5340 C.3   121  LEU121      0.1561
    137  C          5.6560    2.4250   12.9580 C.2   121  LEU121      0.2260
    138  O          4.9150    1.4880   13.2990 O.2   121  LEU121     -0.2867
    139  CB         6.1600    1.8410   10.5610 C.3   121  LEU121      0.0270
    140  CG         6.2100    2.2230    9.0640 C.3   121  LEU121      0.0019
    141  CD1        6.6450    0.9930    8.2770 C.3   121  LEU121      0.0001
    142  CD2        4.8410    2.7100    8.6050 C.3   121  LEU121      0.0001
    143  N          3.0120   -0.9190   13.1940 N.3   125  HIS125     -0.1241
    144  CA         3.3920   -2.2200   12.7220 C.3   125  HIS125      0.1621
    145  C          4.2230   -2.9450   13.7440 C.2   125  HIS125      0.2264
    146  O          5.0670   -2.3050   14.4340 O.2   125  HIS125     -0.2867
    147  CB         4.1800   -2.0820   11.4260 C.3   125  HIS125      0.0745
    148  CG         3.3540   -1.5140   10.3360 C.ar  125  HIS125      0.0817
    149  ND1        2.7200   -2.2950    9.3860 N.ar  125  HIS125     -0.2268
    150  CD2        3.0260   -0.2330   10.0660 C.ar  125  HIS125      0.1154
    151  CE1        2.0070   -1.5110    8.5860 C.ar  125  HIS125      0.1986
    152  NE2        2.1740   -0.2540    8.9660 N.ar  125  HIS125     -0.2212
@<TRIPOS>BOND
     1     4     3    2
     2     2     3    1
     3     2     5    1
     4     2     1    1
     5     3    11   am
     6     5     6    1
     7    11    12    1
     8    12    13    1
     9    12    15    1
    10     6     8   ar
    11     6     7   ar
    12    13    14    2
    13    60    58    1
    14    59    58    1
    15     8    10   ar
    16    50    51    1
    17    15    16    1
    18    16    17    1
    19    17    18    1
    20    58    55    1
    21     7     9   ar
    22    51    52    1
    23    54    52   am
    24    54    55    1
    25    10     9   ar
    26    52    53    2
    27    44    43    2
    28    55    56    1
    29    18    19    2
    30    21    19    1
    31    36    35    2
    32    61    56   am
    33    61    62    1
    34    19    20    1
    35    56    57    2
    36    43    42    1
    37    41    42    1
    38    40    39    1
    39    62    63    1
    40    22    23    1
    41    35    34    1
    42    42    45    1
    43    45    46    1
    44    26    23    1
    45    26    27    1
    46    29    27   ar
    47    29    31   ar
    48    33    34    1
    49    33    24   am
    50   122   121    2
    51   123   121   am
    52    23    24    1
    53    48    47    2
    54    63    65   am
    55    63    64    2
    56    46    47    1
    57    47    49   am
    58    65    66    1
    59   121   120    1
    60    39    38    1
    61    27    28   ar
    62    34    37    1
    63    31    32   ar
    64    24    25    2
    65   120   119    1
    66    38    37    1
    67    66    67    1
    68    28    30   ar
    69    32    30   ar
    70   119   116    1
    71    67    68    2
    72   114   113    1
    73   128   125    1
    74   128   129    1
    75   116   115    1
    76   116   117    1
    77   125   126    1
    78   125   124    1
    79   115   111   am
    80    84    81    1
    81   113   110    1
    82   126   127    2
    83   117   118    2
    84   112   111    2
    85    97    94    1
    86   129   131   ar
    87   129   130   ar
    88   111   110    1
    89    88    87    2
    90   131   133   ar
    91   130   132   ar
    92   110   109    1
    93    94    93    1
    94    94    95    1
    95    81    82    1
    96    81    80    1
    97    87    93   am
    98    87    86    1
    99   109   107   am
   100    85    82   am
   101    85    86    1
   102   133   134   ar
   103    82    83    2
   104   132   134   ar
   105    95    96    2
   106    86    89    1
   107   141   140    1
   108    78    77    1
   109   107   106    1
   110   107   108    2
   111   151   152   ar
   112   151   149   ar
   113   142   140    1
   114    75    74    1
   115    75    76    1
   116   106   105    1
   117   152   150   ar
   118   140   139    1
   119   101   100    2
   120    91    90    2
   121   149   148   ar
   122    77    76    2
   123    77    79    1
   124    89    90    1
   125    74    73    1
   126   103   102    1
   127   102   104    1
   128   102    99    1
   129    90    92   am
   130   150   148   ar
   131   148   147    1
   132   100    99    1
   133   139   136    1
   134    69    70    1
   135    73    70    1
   136    99    98    1
   137    70    71    1
   138   135   136    1
   139   147   144    1
   140   136   137    1
   141    71    72    2
   142   144   143    1
   143   144   145    1
   144   137   138    2
   145   145   146    2
