@<TRIPOS>MOLECULE
tmp/5ccrA02.pdb
 152 145 0 0 0
SMALL
GASTEIGER

@<TRIPOS>ATOM
      1  N          6.1100   -9.2180   -3.6840 N.3    53  HIS53      -0.1226
      2  CA         5.1690   -8.5890   -4.6370 C.3    53  HIS53       0.1752
      3  C          5.3020   -7.0690   -4.6770 C.2    53  HIS53       0.2595
      4  O          4.7870   -6.4760   -5.5940 O.2    53  HIS53      -0.2718
      5  CB         3.7060   -8.9400   -4.3260 C.3    53  HIS53       0.0759
      6  CG         3.2780   -8.4620   -3.0040 C.ar   53  HIS53       0.0818
      7  ND1        2.6430   -7.2460   -2.7890 N.ar   53  HIS53      -0.2268
      8  CD2        3.4340   -9.0200   -1.7900 C.ar   53  HIS53       0.1154
      9  CE1        2.4830   -7.0680   -1.4940 C.ar   53  HIS53       0.1986
     10  NE2        2.8960   -8.1440   -0.8840 N.ar   53  HIS53      -0.2212
     11  N          5.9370   -6.4320   -3.6710 N.am   54  ARG54      -0.1980
     12  CA         6.0270   -4.9930   -3.6340 C.3    54  ARG54       0.1597
     13  C          7.3690   -4.5710   -3.0820 C.2    54  ARG54       0.2287
     14  O          7.6500   -4.8020   -1.9000 O.2    54  ARG54      -0.2864
     15  CB         4.9580   -4.4220   -2.7610 C.3    54  ARG54       0.0334
     16  CG         4.8390   -2.9110   -2.9090 C.3    54  ARG54       0.0492
     17  CD         3.4850   -2.3950   -2.3660 C.3    54  ARG54       0.2205
     18  NE         3.5550   -2.2780   -0.9450 N.pl3  54  ARG54      -0.0865
     19  CZ         3.6500   -1.1800   -0.2040 C.cat  54  ARG54       0.5346
     20  NH1        3.7060   -1.2940    1.1160 N.pl3  54  ARG54       0.1354
     21  NH2        3.7370    0.0230   -0.7290 N.pl3  54  ARG54       0.1354
     22  N         13.1710    2.0120    0.7810 N.3    59  PHE59      -0.1227
     23  CA        12.0940    1.8880    1.7550 C.3    59  PHE59       0.1736
     24  C         12.0420    0.4600    2.2970 C.2    59  PHE59       0.2595
     25  O         12.5350    0.2170    3.3810 O.2    59  PHE59      -0.2718
     26  CB        10.7760    2.2770    1.0990 C.3    59  PHE59       0.0547
     27  CG         9.5510    2.1340    1.9650 C.ar   59  PHE59      -0.0202
     28  CD1        9.6040    2.0800    3.3750 C.ar   59  PHE59      -0.0042
     29  CD2        8.3090    2.1890    1.3560 C.ar   59  PHE59      -0.0042
     30  CE1        8.4640    2.0440    4.1150 C.ar   59  PHE59      -0.0003
     31  CE2        7.1440    2.0900    2.0980 C.ar   59  PHE59      -0.0003
     32  CZ         7.2290    2.0240    3.4810 C.ar   59  PHE59      -0.0000
     33  N         11.5230   -0.4690    1.4970 N.am   60  MET60      -0.1979
     34  CA        11.3460   -1.8540    1.9650 C.3    60  MET60       0.1605
     35  C         10.9810   -2.8280    0.8510 C.2    60  MET60       0.2287
     36  O         10.5790   -2.3830   -0.2470 O.2    60  MET60      -0.2864
     37  CB        10.3000   -1.9190    3.1340 C.3    60  MET60       0.0413
     38  CG         8.8850   -1.4610    2.7460 C.3    60  MET60       0.0598
     39  SD         7.9480   -2.7770    1.9230 S.3    60  MET60      -0.1393
     40  CE         7.2640   -1.8930    0.5000 C.3    60  MET60       0.0692
     41  N          8.5910   -6.1560    0.3760 N.3    62  GLN62      -0.1245
     42  CA         7.3860   -6.7280    0.9620 C.3    62  GLN62       0.1566
     43  C          7.0360   -8.0850    0.2830 C.2    62  GLN62       0.2260
     44  O          7.0820   -8.2010   -0.9500 O.2    62  GLN62      -0.2867
     45  CB         6.2380   -5.7620    0.8540 C.3    62  GLN62       0.0367
     46  CG         5.0170   -6.2250    1.6410 C.3    62  GLN62       0.0905
     47  CD         3.9410   -5.2340    1.7100 C.2    62  GLN62       0.2608
     48  OE1        4.1910   -4.0310    1.5510 O.2    62  GLN62      -0.2717
     49  NE2        2.6790   -5.7020    1.9560 N.am   62  GLN62      -0.0878
     50  N         -0.5700   -8.4600   -2.3370 N.3    71  GLY71      -0.1210
     51  CA        -0.7420   -7.6040   -1.2060 C.3    71  GLY71       0.1956
     52  C         -2.1130   -7.4950   -0.6410 C.2    71  GLY71       0.2613
     53  O         -2.3140   -6.7070    0.2850 O.2    71  GLY71      -0.2717
     54  N         -3.0640   -8.2840   -1.1440 N.am   72  THR72      -0.1938
     55  CA        -4.3840   -8.3500   -0.5550 C.3    72  THR72       0.2028
     56  C         -4.6270   -9.5830    0.2760 C.2    72  THR72       0.2642
     57  O         -5.5820   -9.5880    1.0060 O.2    72  THR72      -0.2714
     58  CB        -5.4870   -8.3060   -1.6140 C.3    72  THR72       0.1808
     59  OG1       -5.3690   -9.3950   -2.5450 O.3    72  THR72      -0.2208
     60  CG2       -5.3760   -7.0090   -2.3590 C.3    72  THR72       0.0379
     61  N         -3.7870  -10.6140    0.1880 N.am   73  GLY73      -0.1954
     62  CA        -4.0750  -11.8260    0.9370 C.3    73  GLY73       0.1869
     63  C         -3.0250  -12.3020    1.9120 C.2    73  GLY73       0.2309
     64  O         -2.3660  -11.5310    2.6100 O.2    73  GLY73      -0.2863
     65  N         -6.3850  -13.6370   10.3350 N.3    81  ARG81      -0.1245
     66  CA        -5.6990  -12.4660   10.8900 C.3    81  ARG81       0.1563
     67  C         -5.5450  -12.6620   12.4040 C.2    81  ARG81       0.2260
     68  O         -6.3200  -13.3800   13.0380 O.2    81  ARG81      -0.2867
     69  CB        -6.4730  -11.1610   10.5580 C.3    81  ARG81       0.0307
     70  CG        -6.8510  -10.9300    9.0590 C.3    81  ARG81       0.0489
     71  CD        -5.6780  -10.4530    8.1920 C.3    81  ARG81       0.2205
     72  NE        -5.9410  -10.2460    6.7540 N.pl3  81  ARG81      -0.0865
     73  CZ        -5.7140  -11.1600    5.8190 C.cat  81  ARG81       0.5346
     74  NH1       -5.2760  -12.3630    6.1350 N.pl3  81  ARG81       0.1354
     75  NH2       -5.9680  -10.8750    4.5750 N.pl3  81  ARG81       0.1354
     76  N          3.4060   -6.6170    7.7650 N.3   100  ALA100     -0.1231
     77  CA         2.5400   -5.7870    6.9180 C.3   100  ALA100      0.1694
     78  C          1.1400   -5.8410    7.5470 C.2   100  ALA100      0.2592
     79  O          0.8050   -6.8020    8.2820 O.2   100  ALA100     -0.2718
     80  CB         2.5180   -6.3350    5.4730 C.3   100  ALA100      0.0304
     81  N          0.2940   -4.8520    7.2810 N.am  101  ASN101     -0.1960
     82  CA        -1.0600   -4.8940    7.7660 C.3   101  ASN101      0.1819
     83  C         -1.9340   -3.9370    6.9860 C.2   101  ASN101      0.2621
     84  O         -1.4560   -3.1810    6.1030 O.2   101  ASN101     -0.2715
     85  CB        -1.1810   -4.6430    9.2630 C.3   101  ASN101      0.1195
     86  CG        -0.8010   -3.2360    9.6710 C.2   101  ASN101      0.2630
     87  OD1       -1.3000   -2.2360    9.1030 O.2   101  ASN101     -0.2716
     88  ND2        0.0080   -3.1340   10.7020 N.am  101  ASN101     -0.0877
     89  N         -3.2070   -4.0840    7.2590 N.am  102  ALA102     -0.1963
     90  CA        -4.2140   -3.1460    6.6920 C.3   102  ALA102      0.1728
     91  C         -4.9050   -2.3510    7.7760 C.2   102  ALA102      0.2616
     92  O         -6.1440   -2.1580    7.7430 O.2   102  ALA102     -0.2715
     93  CB        -5.2040   -3.9300    5.8780 C.3   102  ALA102      0.0334
     94  N         -4.1450   -1.9200    8.7620 N.am  103  GLY103     -0.1955
     95  CA        -4.7120   -1.2910    9.9410 C.3   103  GLY103      0.1869
     96  C         -4.4900   -2.1040   11.1760 C.2   103  GLY103      0.2309
     97  O         -3.9130   -3.2350   11.1090 O.2   103  GLY103     -0.2863
     98  N         -4.5960   -6.6130   12.0250 N.3   106  THR106     -0.1218
     99  CA        -4.7780   -7.2870   10.7570 C.3   106  THR106      0.1862
    100  C         -3.5490   -8.0530   10.2900 C.2   106  THR106      0.2287
    101  O         -3.3310   -8.2180    9.0970 O.2   106  THR106     -0.2866
    102  CB        -5.2690   -6.3410    9.6420 C.3   106  THR106      0.1770
    103  OG1       -4.3710   -5.2300    9.4530 O.3   106  THR106     -0.2211
    104  CG2       -6.6780   -5.7790   10.0050 C.3   106  THR106      0.0375
    105  N         -1.3910  -11.0650    9.1510 N.3   108  GLY108     -0.1210
    106  CA        -1.6170  -12.3250    8.5360 C.3   108  GLY108      0.1956
    107  C         -0.3020  -13.0850    8.3110 C.2   108  GLY108      0.2613
    108  O          0.2930  -13.6510    9.2530 O.2   108  GLY108     -0.2717
    109  N          0.1290  -13.0950    7.0670 N.am  109  SER109     -0.1938
    110  CA         1.4080  -13.6410    6.6360 C.3   109  SER109      0.2055
    111  C          2.3300  -12.6040    5.9800 C.2   109  SER109      0.2642
    112  O          3.5290  -12.8550    5.8450 O.2   109  SER109     -0.2714
    113  CB         1.1810  -14.8160    5.7290 C.3   109  SER109      0.2130
    114  OG         0.4080  -14.5090    4.5720 O.3   109  SER109     -0.2179
    115  N          1.7700  -11.5120    5.4560 N.am  110  GLN110     -0.1976
    116  CA         2.6160  -10.5620    4.7800 C.3   110  GLN110      0.1601
    117  C          3.5420   -9.8870    5.7340 C.2   110  GLN110      0.2287
    118  O          3.1620   -9.5100    6.8980 O.2   110  GLN110     -0.2864
    119  CB         1.7470   -9.5130    4.0630 C.3   110  GLN110      0.0394
    120  CG         1.0440  -10.0460    2.8340 C.3   110  GLN110      0.0908
    121  CD         0.2950   -8.9070    2.1520 C.2   110  GLN110      0.2608
    122  OE1        0.9030   -7.8640    1.8370 O.2   110  GLN110     -0.2717
    123  NE2       -1.0220   -9.0100    2.0930 N.am  110  GLN110     -0.0878
    124  N          7.5110   -7.3610    5.7740 N.3   112  PHE112     -0.1241
    125  CA         8.4800   -6.5960    5.0030 C.3   112  PHE112      0.1605
    126  C          9.8480   -6.5930    5.7150 C.2   112  PHE112      0.2264
    127  O          9.8870   -6.7770    6.9290 O.2   112  PHE112     -0.2867
    128  CB         7.9850   -5.1780    4.6790 C.3   112  PHE112      0.0534
    129  CG         7.6950   -4.3410    5.8510 C.ar  112  PHE112     -0.0203
    130  CD1        6.4590   -4.4160    6.5010 C.ar  112  PHE112     -0.0042
    131  CD2        8.5580   -3.3710    6.2360 C.ar  112  PHE112     -0.0042
    132  CE1        6.1650   -3.5940    7.5430 C.ar  112  PHE112     -0.0003
    133  CE2        8.2650   -2.5340    7.2970 C.ar  112  PHE112     -0.0003
    134  CZ         7.0980   -2.6740    7.9600 C.ar  112  PHE112     -0.0000
    135  N          6.6960    4.0500   11.0740 N.3   121  LEU121     -0.1245
    136  CA         5.8420    2.8790   11.2580 C.3   121  LEU121      0.1561
    137  C          5.8090    2.3500   12.6990 C.2   121  LEU121      0.2260
    138  O          5.0750    1.4350   13.0210 O.2   121  LEU121     -0.2867
    139  CB         6.3310    1.7840   10.2900 C.3   121  LEU121      0.0270
    140  CG         6.3160    2.1640    8.7810 C.3   121  LEU121      0.0019
    141  CD1        6.7820    1.0010    7.9740 C.3   121  LEU121      0.0001
    142  CD2        4.9180    2.5720    8.3560 C.3   121  LEU121      0.0001
    143  N          3.2020   -0.9810   12.9400 N.3   125  HIS125     -0.1241
    144  CA         3.5130   -2.2780   12.4650 C.3   125  HIS125      0.1621
    145  C          4.3250   -2.9940   13.4890 C.2   125  HIS125      0.2264
    146  O          5.1850   -2.3680   14.1320 O.2   125  HIS125     -0.2867
    147  CB         4.2980   -2.1850   11.1680 C.3   125  HIS125      0.0745
    148  CG         3.4910   -1.6580   10.0470 C.ar  125  HIS125      0.0817
    149  ND1        2.8960   -2.4870    9.1140 N.ar  125  HIS125     -0.2268
    150  CD2        3.1410   -0.3860    9.7120 C.ar  125  HIS125      0.1154
    151  CE1        2.2230   -1.7410    8.2420 C.ar  125  HIS125      0.1986
    152  NE2        2.3340   -0.4590    8.5950 N.ar  125  HIS125     -0.2212
@<TRIPOS>BOND
     1     4     3    2
     2     3     2    1
     3     3    11   am
     4     2     5    1
     5     2     1    1
     6     5     6    1
     7    11    12    1
     8    12    13    1
     9    12    15    1
    10    13    14    2
    11     6     7   ar
    12     6     8   ar
    13    16    15    1
    14    16    17    1
    15     7     9   ar
    16    59    58    1
    17    17    18    1
    18    60    58    1
    19    50    51    1
    20     8    10   ar
    21    58    55    1
    22     9    10   ar
    23    51    52    1
    24    54    52   am
    25    54    55    1
    26    44    43    2
    27    18    19    2
    28    21    19    1
    29    52    53    2
    30    55    56    1
    31    36    35    2
    32    19    20    1
    33    61    56   am
    34    61    62    1
    35    56    57    2
    36    43    42    1
    37    41    42    1
    38    40    39    1
    39    22    23    1
    40    35    34    1
    41    45    42    1
    42    45    46    1
    43    62    63    1
    44    26    23    1
    45    26    27    1
    46    29    27   ar
    47    29    31   ar
    48    33    34    1
    49    33    24   am
    50    48    47    2
    51    46    47    1
    52    47    49   am
    53    23    24    1
    54   122   121    2
    55    63    64    2
    56    39    38    1
    57    34    37    1
    58    27    28   ar
    59   123   121   am
    60    31    32   ar
    61   121   120    1
    62    24    25    2
    63    38    37    1
    64   120   119    1
    65    28    30   ar
    66    32    30   ar
    67   119   116    1
    68   114   113    1
    69    75    73    1
    70   128   125    1
    71   128   129    1
    72   116   115    1
    73   116   117    1
    74   125   126    1
    75   125   124    1
    76   115   111   am
    77    80    77    1
    78   126   127    2
    79   113   110    1
    80   117   118    2
    81    73    74    1
    82    73    72    2
    83   112   111    2
    84   129   131   ar
    85   129   130   ar
    86    93    90    1
    87   111   110    1
    88    84    83    2
    89   131   133   ar
    90   130   132   ar
    91   110   109    1
    92    90    89    1
    93    90    91    1
    94    72    71    1
    95    77    78    1
    96    77    76    1
    97    83    89   am
    98    83    82    1
    99   109   107   am
   100    81    78   am
   101    81    82    1
   102   133   134   ar
   103   132   134   ar
   104    78    79    2
   105    92    91    2
   106    82    85    1
   107    91    94   am
   108   141   140    1
   109    71    70    1
   110   151   152   ar
   111   151   149   ar
   112   107   106    1
   113   107   108    2
   114   142   140    1
   115   106   105    1
   116   152   150   ar
   117    94    95    1
   118   140   139    1
   119    70    69    1
   120   101   100    2
   121    87    86    2
   122   149   148   ar
   123    85    86    1
   124   103   102    1
   125   102   104    1
   126   102    99    1
   127    86    88   am
   128   150   148   ar
   129    95    96    1
   130   148   147    1
   131   139   136    1
   132   100    99    1
   133    65    66    1
   134    69    66    1
   135    99    98    1
   136    66    67    1
   137   135   136    1
   138    97    96    2
   139   147   144    1
   140   136   137    1
   141    67    68    2
   142   144   143    1
   143   144   145    1
   144   137   138    2
   145   145   146    2
