@<TRIPOS>MOLECULE
tmp/5ccsA00.pdb
 188 183 0 0 0
SMALL
GASTEIGER

@<TRIPOS>ATOM
      1  N        -28.1440    9.0650    3.4470 N.3    53  HIS53      -0.1226
      2  CA       -28.4660   10.0380    2.3900 C.3    53  HIS53       0.1752
      3  C        -27.3780   10.0650    1.3050 C.2    53  HIS53       0.2595
      4  O        -27.6570   10.5790    0.2220 O.2    53  HIS53      -0.2718
      5  CB       -28.6590   11.4580    2.9540 C.3    53  HIS53       0.0759
      6  CG       -27.4150   12.0490    3.5530 C.ar   53  HIS53       0.0818
      7  ND1      -27.0140   11.7960    4.8470 N.ar   53  HIS53      -0.2268
      8  CD2      -26.4560   12.8280    3.0150 C.ar   53  HIS53       0.1154
      9  CE1      -25.8770   12.4120    5.0900 C.ar   53  HIS53       0.1986
     10  NE2      -25.5160   13.0450    3.9870 N.ar   53  HIS53      -0.2212
     11  N        -26.1920    9.4930    1.5680 N.am   54  ARG54      -0.1980
     12  CA       -25.1300    9.4990    0.5970 C.3    54  ARG54       0.1597
     13  C        -24.2910    8.2280    0.6180 C.2    54  ARG54       0.2287
     14  O        -23.5580    7.9910    1.5780 O.2    54  ARG54      -0.2864
     15  CB       -24.2870   10.7330    0.8540 C.3    54  ARG54       0.0334
     16  CG       -23.7640   11.3750   -0.3790 C.3    54  ARG54       0.0492
     17  CD       -22.3380   10.9800   -0.5870 C.3    54  ARG54       0.2205
     18  NE       -21.4820   12.0760   -0.1490 N.pl3  54  ARG54      -0.0865
     19  CZ       -21.0490   13.0640   -0.9310 C.cat  54  ARG54       0.5346
     20  NH1      -21.3950   13.1400   -2.2430 N.pl3  54  ARG54       0.1354
     21  NH2      -20.2450   13.9800   -0.3850 N.pl3  54  ARG54       0.1354
     22  N        -21.8030    5.6880   -1.8230 N.3    56  ILE56      -0.1245
     23  CA       -21.0120    5.5460   -3.0330 C.3    56  ILE56       0.1561
     24  C        -20.2970    4.1820   -3.0030 C.2    56  ILE56       0.2260
     25  O        -19.3910    4.0070   -2.1870 O.2    56  ILE56      -0.2867
     26  CB       -19.9550    6.6700   -3.1510 C.3    56  ILE56       0.0252
     27  CG1      -20.6210    8.0760   -3.0340 C.3    56  ILE56       0.0019
     28  CG2      -19.1150    6.4590   -4.4190 C.3    56  ILE56       0.0019
     29  CD1      -19.6370    9.2520   -2.9640 C.3    56  ILE56       0.0001
     30  N        -16.5430    2.9980   -1.7090 N.3    59  PHE59      -0.1227
     31  CA       -16.0860    4.1160   -0.9070 C.3    59  PHE59       0.1736
     32  C        -16.7230    4.0260    0.4970 C.2    59  PHE59       0.2595
     33  O        -16.0410    3.6320    1.4520 O.2    59  PHE59      -0.2718
     34  CB       -16.3880    5.4150   -1.6540 C.3    59  PHE59       0.0547
     35  CG       -15.8890    6.6740   -1.0070 C.ar   59  PHE59      -0.0202
     36  CD1      -14.9520    6.6750    0.0440 C.ar   59  PHE59      -0.0042
     37  CD2      -16.3520    7.9000   -1.4920 C.ar   59  PHE59      -0.0042
     38  CE1      -14.5160    7.8700    0.5860 C.ar   59  PHE59      -0.0003
     39  CE2      -15.9310    9.0920   -0.9450 C.ar   59  PHE59      -0.0003
     40  CZ       -15.0080    9.0780    0.1040 C.ar   59  PHE59      -0.0000
     41  N        -18.0020    4.3720    0.6250 N.am   60  MET60      -0.1979
     42  CA       -18.6000    4.4540    1.9450 C.3    60  MET60       0.1605
     43  C        -20.0670    4.7000    1.9120 C.2    60  MET60       0.2287
     44  O        -20.6190    5.0970    0.8850 O.2    60  MET60      -0.2864
     45  CB       -17.9300    5.5580    2.7800 C.3    60  MET60       0.0413
     46  CG       -17.9570    6.9690    2.1680 C.3    60  MET60       0.0598
     47  SD       -19.4640    7.8750    2.5670 S.3    60  MET60      -0.1393
     48  CE       -19.9730    8.3850    0.9340 C.3    60  MET60       0.0692
     49  N        -22.8020    6.9670    4.0490 N.3    62  GLN62      -0.1245
     50  CA       -22.9950    8.1490    4.9400 C.3    62  GLN62       0.1566
     51  C        -24.4580    8.3650    5.4120 C.2    62  GLN62       0.2260
     52  O        -25.3990    8.3330    4.6380 O.2    62  GLN62      -0.2867
     53  CB       -22.4840    9.3730    4.2480 C.3    62  GLN62       0.0367
     54  CG       -22.3600   10.6180    5.1100 C.3    62  GLN62       0.0905
     55  CD       -21.7390   11.8130    4.3580 C.2    62  GLN62       0.2608
     56  OE1      -20.9980   11.6220    3.4050 O.2    62  GLN62      -0.2717
     57  NE2      -21.9650   13.0370    4.8490 N.am   62  GLN62      -0.0878
     58  N        -28.2900   16.0530    4.2540 N.3    71  GLY71      -0.1210
     59  CA       -26.8370   16.1380    4.2440 C.3    71  GLY71       0.1956
     60  C        -26.2020   17.4370    4.6690 C.2    71  GLY71       0.2613
     61  O        -24.9420   17.5590    4.7240 O.2    71  GLY71      -0.2717
     62  N        -27.0350   18.3930    5.0630 N.am   72  THR72      -0.1938
     63  CA       -26.5820   19.7060    5.5420 C.3    72  THR72       0.2028
     64  C        -26.6400   19.8030    7.0890 C.2    72  THR72       0.2643
     65  O        -25.9590   20.5740    7.6130 O.2    72  THR72      -0.2714
     66  CB       -27.4400   20.8870    5.0230 C.3    72  THR72       0.1808
     67  OG1      -28.7920   20.7020    5.4710 O.3    72  THR72      -0.2208
     68  CG2      -27.3870   21.0030    3.5220 C.3    72  THR72       0.0379
     69  N        -27.4760   19.0430    7.7760 N.am   73  GLY73      -0.1939
     70  CA       -27.6860   19.1780    9.2240 C.3    73  GLY73       0.2014
     71  C        -27.1300   18.0720   10.1200 C.2    73  GLY73       0.2639
     72  O        -26.1080   17.4480    9.8170 O.2    73  GLY73      -0.2714
     73  N        -27.8540   17.7710   11.1880 N.am   74  GLY74      -0.1954
     74  CA       -27.2770   17.0640   12.3100 C.3    74  GLY74       0.1869
     75  C        -26.7330   17.9800   13.3980 C.2    74  GLY74       0.2309
     76  O        -26.5030   19.1860   13.2030 O.2    74  GLY74      -0.2863
     77  N        -24.2450   22.1820   18.2460 N.3    80  SER80      -0.1202
     78  CA       -24.3910   21.7990   16.8560 C.3    80  SER80       0.2020
     79  C        -23.0760   21.2530   16.2560 C.2    80  SER80       0.2618
     80  O        -23.1380   20.3870   15.3970 O.2    80  SER80      -0.2717
     81  CB       -24.9640   22.9340   16.0100 C.3    80  SER80       0.2103
     82  OG       -23.9930   23.9210   15.8980 O.3    80  SER80      -0.2182
     83  N        -21.9120   21.7550   16.6990 N.am   81  ARG81      -0.1979
     84  CA       -20.6340   21.2880   16.1930 C.3    81  ARG81       0.1597
     85  C        -19.6050   21.2020   17.2810 C.2    81  ARG81       0.2287
     86  O        -19.6580   21.9610   18.2360 O.2    81  ARG81      -0.2864
     87  CB       -20.1000   22.2110   15.0980 C.3    81  ARG81       0.0334
     88  CG       -20.9220   22.2290   13.8030 C.3    81  ARG81       0.0492
     89  CD       -20.3390   23.3340   12.9440 C.3    81  ARG81       0.2205
     90  NE       -20.8490   23.3380   11.5740 N.pl3  81  ARG81      -0.0865
     91  CZ       -20.3420   24.0650   10.5730 C.cat  81  ARG81       0.5346
     92  NH1      -20.8920   23.9770    9.3510 N.pl3  81  ARG81       0.1354
     93  NH2      -19.2880   24.8720   10.7710 N.pl3  81  ARG81       0.1354
     94  N        -18.2210   12.3240    9.4860 N.3   100  ALA100     -0.1231
     95  CA       -18.3790   13.2430    8.3820 C.3   100  ALA100      0.1694
     96  C        -18.1720   14.6840    8.9210 C.2   100  ALA100      0.2592
     97  O        -18.2990   14.9320   10.1530 O.2   100  ALA100     -0.2718
     98  CB       -19.7460   13.0710    7.7660 C.3   100  ALA100      0.0304
     99  N        -17.7700   15.6070    8.0410 N.am  101  ASN101     -0.1960
    100  CA       -17.5620   16.9910    8.4490 C.3   101  ASN101      0.1819
    101  C        -17.5920   17.9410    7.3060 C.2   101  ASN101      0.2621
    102  O        -17.5060   17.5460    6.1550 O.2   101  ASN101     -0.2715
    103  CB       -16.2870   17.1500    9.2910 C.3   101  ASN101      0.1195
    104  CG       -15.0180   16.9660    8.5020 C.2   101  ASN101      0.2630
    105  OD1      -14.8880   17.4560    7.3780 O.2   101  ASN101     -0.2716
    106  ND2      -14.0770   16.2600    9.0720 N.am  101  ASN101     -0.0877
    107  N        -17.6220   19.2270    7.6300 N.am  102  ALA102     -0.1977
    108  CA       -17.7080   20.2840    6.6160 C.3   102  ALA102      0.1597
    109  C        -16.4530   21.0990    6.7140 C.2   102  ALA102      0.2287
    110  O        -16.5020   22.2280    6.4570 O.2   102  ALA102     -0.2864
    111  CB       -18.9670   21.1340    6.8550 C.3   102  ALA102      0.0319
    112  N        -15.7310   20.4530   12.7590 N.3   106  THR106     -0.1203
    113  CA       -17.1740   20.6420   12.4880 C.3   106  THR106      0.1994
    114  C        -17.9430   19.3360   12.5970 C.2   106  THR106      0.2618
    115  O        -18.8350   19.0930   11.8230 O.2   106  THR106     -0.2717
    116  CB       -17.3910   21.2500   11.0610 C.3   106  THR106      0.1784
    117  OG1      -16.8790   20.3620   10.0790 O.3   106  THR106     -0.2211
    118  CG2      -16.7010   22.6320   10.9110 C.3   106  THR106      0.0376
    119  N        -17.5580   18.4790   13.5250 N.am  107  ASN107     -0.1960
    120  CA       -18.3050   17.2600   13.8010 C.3   107  ASN107      0.1819
    121  C        -19.6680   17.6320   14.4210 C.2   107  ASN107      0.2622
    122  O        -19.7210   18.4270   15.3460 O.2   107  ASN107     -0.2715
    123  CB       -17.5340   16.3400   14.7620 C.3   107  ASN107      0.1195
    124  CG       -16.1550   16.0120   14.2450 C.2   107  ASN107      0.2630
    125  OD1      -16.0190   15.2430   13.2930 O.2   107  ASN107     -0.2716
    126  ND2      -15.1400   16.7000   14.7600 N.am  107  ASN107     -0.0877
    127  N        -20.7110   17.0020   13.9000 N.am  108  GLY108     -0.1940
    128  CA       -22.0470   17.0620   14.4060 C.3   108  GLY108      0.2014
    129  C        -22.5110   15.6330   14.7300 C.2   108  GLY108      0.2640
    130  O        -22.0850   15.0560   15.7620 O.2   108  GLY108     -0.2714
    131  N        -23.4130   15.1200   13.8880 N.am  109  SER109     -0.1935
    132  CA       -23.9360   13.7430   13.9480 C.3   109  SER109      0.2055
    133  C        -23.6790   12.8460   12.7490 C.2   109  SER109      0.2642
    134  O        -23.7610   11.6130   12.8530 O.2   109  SER109     -0.2714
    135  CB       -25.4370   13.7410   14.2520 C.3   109  SER109      0.2130
    136  OG       -26.1980   14.5230   13.3770 O.3   109  SER109     -0.2179
    137  N        -23.4110   13.4510   11.6090 N.am  110  GLN110     -0.1976
    138  CA       -23.1740   12.6900   10.4060 C.3   110  GLN110      0.1601
    139  C        -21.9180   11.8330   10.5150 C.2   110  GLN110      0.2287
    140  O        -20.8690   12.2430   11.0860 O.2   110  GLN110     -0.2864
    141  CB       -23.1340   13.6010    9.1750 C.3   110  GLN110      0.0394
    142  CG       -24.4840   14.1430    8.7240 C.3   110  GLN110      0.0908
    143  CD       -24.3560   14.9610    7.4470 C.2   110  GLN110      0.2608
    144  OE1      -23.9080   14.4630    6.3990 O.2   110  GLN110     -0.2717
    145  NE2      -24.7240   16.2320    7.5320 N.am  110  GLN110     -0.0878
    146  N        -19.9000    8.0160    8.6520 N.3   112  PHE112     -0.1241
    147  CA       -19.8610    7.0670    7.5660 C.3   112  PHE112      0.1605
    148  C        -19.1580    5.7610    7.9260 C.2   112  PHE112      0.2264
    149  O        -18.3520    5.7310    8.8420 O.2   112  PHE112     -0.2867
    150  CB       -19.2500    7.7080    6.3180 C.3   112  PHE112      0.0534
    151  CG       -17.8290    8.1500    6.4730 C.ar  112  PHE112     -0.0203
    152  CD1      -17.5450    9.3850    7.0470 C.ar  112  PHE112     -0.0042
    153  CD2      -16.7470    7.3400    5.9700 C.ar  112  PHE112     -0.0042
    154  CE1      -16.2540    9.8480    7.1350 C.ar  112  PHE112     -0.0003
    155  CE2      -15.4290    7.7940    6.1040 C.ar  112  PHE112     -0.0003
    156  CZ       -15.1940    9.0640    6.6730 C.ar  112  PHE112     -0.0000
    157  N         -6.7060    8.1010    2.2340 N.3   120  TRP120     -0.1227
    158  CA        -6.7060    9.5400    1.8750 C.3   120  TRP120      0.1737
    159  C         -7.4680   10.4200    2.8470 C.2   120  TRP120      0.2595
    160  O         -7.2000   11.5990    2.8850 O.2   120  TRP120     -0.2718
    161  CB        -7.2090    9.7960    0.4220 C.3   120  TRP120      0.0564
    162  CG        -8.6230    9.3780    0.1310 C.ar  120  TRP120      0.0003
    163  CD1       -9.7280   10.1820    0.1750 C.ar  120  TRP120      0.0946
    164  CD2       -9.0900    8.0770   -0.2350 C.ar  120  TRP120      0.0152
    165  NE1      -10.8440    9.4750   -0.1520 N.ar  120  TRP120     -0.2442
    166  CE2      -10.4950    8.1810   -0.4150 C.ar  120  TRP120      0.0810
    167  CE3       -8.4700    6.8470   -0.4440 C.ar  120  TRP120      0.0012
    168  CZ2      -11.2980    7.0910   -0.7940 C.ar  120  TRP120      0.0191
    169  CZ3       -9.2530    5.7550   -0.8100 C.ar  120  TRP120      0.0001
    170  CH2      -10.6560    5.8860   -0.9800 C.ar  120  TRP120      0.0015
    171  N         -8.3640    9.8550    3.6620 N.am  121  LEU121     -0.1980
    172  CA        -9.0840   10.6340    4.7040 C.3   121  LEU121      0.1596
    173  C         -8.3790   10.6970    6.0530 C.2   121  LEU121      0.2287
    174  O         -8.8680   11.3350    7.0110 O.2   121  LEU121     -0.2864
    175  CB       -10.5120   10.0810    4.8860 C.3   121  LEU121      0.0297
    176  CG       -11.3840   10.1460    3.6160 C.3   121  LEU121      0.0022
    177  CD1      -12.7130    9.4410    3.8390 C.3   121  LEU121      0.0001
    178  CD2      -11.6170   11.5710    3.1420 C.3   121  LEU121      0.0001
    179  N        -10.7380   13.1080    8.8680 N.3   125  HIS125     -0.1241
    180  CA       -11.9920   12.6530    9.4660 C.3   125  HIS125      0.1621
    181  C        -11.5860   11.8130   10.6970 C.2   125  HIS125      0.2264
    182  O        -10.5780   11.0320   10.6230 O.2   125  HIS125     -0.2867
    183  CB       -12.8600   11.8620    8.4350 C.3   125  HIS125      0.0745
    184  CG       -13.3790   12.7440    7.3500 C.ar  125  HIS125      0.0817
    185  ND1      -14.5990   13.3910    7.4170 N.ar  125  HIS125     -0.2268
    186  CD2      -12.7730   13.2150    6.2300 C.ar  125  HIS125      0.1154
    187  CE1      -14.7370   14.1780    6.3700 C.ar  125  HIS125      0.1986
    188  NE2      -13.6520   14.0850    5.6330 N.ar  125  HIS125     -0.2212
@<TRIPOS>BOND
     1    28    26    1
     2    26    27    1
     3    26    23    1
     4    27    29    1
     5    23    24    1
     6    23    22    1
     7    24    25    2
     8    20    19    1
     9    30    31    1
    10    34    35    1
    11    34    31    1
    12    37    35   ar
    13    37    39   ar
    14    35    36   ar
    15   170   169   ar
    16   170   168   ar
    17    39    40   ar
    18    19    21    1
    19    19    18    2
    20    31    32    1
    21   169   167   ar
    22   168   166   ar
    23    17    16    1
    24    17    18    1
    25   167   164   ar
    26   166   164   ar
    27   166   165   ar
    28    16    15    1
    29   164   162   ar
    30   165   163   ar
    31    36    38   ar
    32    40    38   ar
    33   162   163   ar
    34   162   161    1
    35     4     3    2
    36   161   158    1
    37    32    41   am
    38    32    33    2
    39    12    13    1
    40    12    15    1
    41    12    11    1
    42    13    14    2
    43    41    42    1
    44    44    43    2
    45    48    47    1
    46     3    11   am
    47     3     2    1
    48   158   157    1
    49   158   159    1
    50    43    42    1
    51    42    45    1
    52    46    47    1
    53    46    45    1
    54     2     5    1
    55     2     1    1
    56   159   160    2
    57   159   171   am
    58     5     6    1
    59     8     6   ar
    60     8    10   ar
    61   178   176    1
    62    56    55    2
    63    68    66    1
    64     6     7   ar
    65   176   177    1
    66   176   175    1
    67   171   172    1
    68    10     9   ar
    69    49    50    1
    70    59    58    1
    71    59    60    1
    72    53    50    1
    73    53    54    1
    74    55    57   am
    75    55    54    1
    76    52    51    2
    77    60    61    2
    78    60    62   am
    79   172   175    1
    80   172   173    1
    81     7     9   ar
    82    50    51    1
    83    66    67    1
    84    66    63    1
    85    62    63    1
    86    63    64    1
    87   188   186   ar
    88   188   187   ar
    89   153   155   ar
    90   153   151   ar
    91   173   174    2
    92   155   156   ar
    93   102   101    2
    94   186   184   ar
    95   150   151    1
    96   150   147    1
    97   187   185   ar
    98   144   143    2
    99   110   109    2
   100   151   152   ar
   101   108   109    1
   102   108   111    1
   103   108   107    1
   104   156   154   ar
   105   152   154   ar
   106    64    65    2
   107    64    69   am
   108   101   107   am
   109   101   100    1
   110   184   185   ar
   111   184   183    1
   112   105   104    2
   113   143   145   am
   114   143   142    1
   115   147   148    1
   116   147   146    1
   117    98    95    1
   118    69    70    1
   119   148   149    2
   120    99   100    1
   121    99    96   am
   122    95    96    1
   123    95    94    1
   124   183   180    1
   125   100   103    1
   126   104   106   am
   127   104   103    1
   128   142   141    1
   129   179   180    1
   130    96    97    2
   131   141   138    1
   132    70    71    1
   133    92    91    1
   134   180   181    1
   135    72    71    2
   136   117   116    1
   137    71    73   am
   138   138   139    1
   139   138   137    1
   140   139   140    2
   141    91    93    1
   142    91    90    2
   143   182   181    2
   144   118   116    1
   145   116   113    1
   146    73    74    1
   147    90    89    1
   148   137   133   am
   149   115   114    2
   150    74    75    1
   151   113   114    1
   152   113   112    1
   153   114   119   am
   154   133   134    2
   155   133   132    1
   156    89    88    1
   157    76    75    2
   158   125   124    2
   159   136   135    1
   160   119   120    1
   161   120   121    1
   162   120   123    1
   163    88    87    1
   164   131   132    1
   165   131   129   am
   166   127   128    1
   167   127   121   am
   168   132   135    1
   169   124   126   am
   170   124   123    1
   171   128   129    1
   172   121   122    2
   173   129   130    2
   174    87    84    1
   175    80    79    2
   176    82    81    1
   177    81    78    1
   178    84    83    1
   179    84    85    1
   180    79    83   am
   181    79    78    1
   182    78    77    1
   183    85    86    2
