@<TRIPOS>MOLECULE
tmp/5ccvC00.pdb
 164 159 0 0 0
SMALL
GASTEIGER

@<TRIPOS>ATOM
      1  N       -120.4420   99.3810   16.9650 N.3    50  SER50      -0.1217
      2  CA      -121.4010   99.3110   15.8670 C.3    50  SER50       0.1889
      3  C       -120.7360   98.9320   14.5480 C.2    50  SER50       0.2288
      4  O       -119.5310   98.6940   14.4930 O.2    50  SER50      -0.2866
      5  CB      -122.1320  100.6470   15.7150 C.3    50  SER50       0.2089
      6  OG      -121.2210  101.6990   15.4470 O.3    50  SER50      -0.2183
      7  N       -120.6650  100.9490   12.1020 N.3    52  GLY52      -0.1225
      8  CA      -120.1720  102.2050   11.5700 C.3    52  GLY52       0.1811
      9  C       -118.6600  102.2990   11.6100 C.2    52  GLY52       0.2280
     10  O       -118.0510  102.9750   10.7810 O.2    52  GLY52      -0.2866
     11  N       -117.5070  114.3190   15.6400 N.3    73  ASP73      -0.1239
     12  CA      -118.4200  113.3100   15.1200 C.3    73  ASP73       0.1674
     13  C       -119.8660  113.6490   15.4610 C.2    73  ASP73       0.2266
     14  O       -120.3940  113.2040   16.4800 O.2    73  ASP73      -0.2867
     15  CB      -118.0590  111.9270   15.6660 C.3    73  ASP73       0.1410
     16  CG      -118.9180  110.8240   15.0770 C.2    73  ASP73       0.3668
     17  OD1     -119.4750  111.0250   13.9780 O.co2  73  ASP73      -0.2456
     18  OD2     -119.0310  109.7540   15.7110 O.co2  73  ASP73      -0.2456
     19  N       -123.6700  113.3630   15.5950 N.3    75  GLY75      -0.1210
     20  CA      -124.5290  112.1940   15.5870 C.3    75  GLY75       0.1956
     21  C       -123.7130  110.9350   15.7950 C.2    75  GLY75       0.2612
     22  O       -123.8200  109.9770   15.0290 O.2    75  GLY75      -0.2717
     23  N       -122.8890  110.9450   16.8370 N.am   76  CYS76      -0.1956
     24  CA      -122.0020  109.8280   17.1380 C.3    76  CYS76       0.1843
     25  C       -122.7800  108.5770   17.5290 C.2    76  CYS76       0.2626
     26  O       -122.3390  107.4580   17.2690 O.2    76  CYS76      -0.2714
     27  CB      -121.0340  110.2110   18.2560 C.3    76  CYS76       0.0997
     28  SG      -121.8470  110.7530   19.7700 S.3    76  CYS76      -0.0797
     29  N       -123.9360  108.7760   18.1540 N.am   77  GLY77      -0.1940
     30  CA      -124.7800  107.6730   18.5750 C.3    77  GLY77       0.2014
     31  C       -124.0770  106.7430   19.5430 C.2    77  GLY77       0.2639
     32  O       -123.8080  107.1100   20.6860 O.2    77  GLY77      -0.2714
     33  N       -123.7750  105.5350   19.0820 N.am   78  ARG78      -0.1963
     34  CA      -123.0600  104.5660   19.9010 C.3    78  ARG78       0.1729
     35  C       -121.5760  104.9100   19.9640 C.2    78  ARG78       0.2617
     36  O       -120.8650  104.4740   20.8680 O.2    78  ARG78      -0.2715
     37  CB      -123.2570  103.1520   19.3550 C.3    78  ARG78       0.0348
     38  CG      -124.7060  102.6910   19.3450 C.3    78  ARG78       0.0492
     39  CD      -124.8570  101.3460   18.6540 C.3    78  ARG78       0.2205
     40  NE      -124.1210  100.2880   19.3390 N.pl3  78  ARG78      -0.0865
     41  CZ      -124.6430   99.4980   20.2700 C.cat  78  ARG78       0.5346
     42  NH1     -125.9100   99.6450   20.6320 N.pl3  78  ARG78       0.1354
     43  NH2     -123.9000   98.5590   20.8400 N.pl3  78  ARG78       0.1354
     44  N       -121.1190  105.6990   18.9970 N.am   79  GLY79      -0.1940
     45  CA      -119.7330  106.1300   18.9470 C.3    79  GLY79       0.2014
     46  C       -118.8690  105.2400   18.0750 C.2    79  GLY79       0.2639
     47  O       -117.6940  105.0240   18.3680 O.2    79  GLY79      -0.2714
     48  N       -119.4520  104.7250   16.9980 N.am   80  GLY80      -0.1939
     49  CA      -118.7430  103.8290   16.1020 C.3    80  GLY80       0.2014
     50  C       -117.6320  104.5190   15.3370 C.2    80  GLY80       0.2638
     51  O       -116.5480  103.9660   15.1580 O.2    80  GLY80      -0.2714
     52  N       -117.9050  105.7360   14.8820 N.am   81  TRP81      -0.1973
     53  CA      -116.9240  106.5010   14.1280 C.3    81  TRP81       0.1640
     54  C       -115.8630  107.0960   15.0430 C.2    81  TRP81       0.2290
     55  O       -114.6980  107.2130   14.6650 O.2    81  TRP81      -0.2864
     56  CB      -117.6090  107.6120   13.3310 C.3    81  TRP81       0.0576
     57  CG      -118.3680  107.1190   12.1400 C.ar   81  TRP81       0.0006
     58  CD1     -118.6880  105.8260   11.8470 C.ar   81  TRP81       0.0946
     59  CD2     -118.8930  107.9140   11.0710 C.ar   81  TRP81       0.0152
     60  NE1     -119.3850  105.7670   10.6660 N.ar   81  TRP81      -0.2442
     61  CE2     -119.5240  107.0350   10.1690 C.ar   81  TRP81       0.0810
     62  CE3     -118.8920  109.2830   10.7920 C.ar   81  TRP81       0.0012
     63  CZ2     -120.1480  107.4820    9.0070 C.ar   81  TRP81       0.0191
     64  CZ3     -119.5130  109.7250    9.6380 C.ar   81  TRP81       0.0001
     65  CH2     -120.1310  108.8270    8.7600 C.ar   81  TRP81       0.0015
     66  N       -124.3800  113.8020   20.3750 N.3    98  THR98      -0.1203
     67  CA      -125.6130  113.0870   20.0710 C.3    98  THR98       0.1994
     68  C       -126.7780  113.6370   20.8840 C.2    98  THR98       0.2617
     69  O       -126.5820  114.2580   21.9280 O.2    98  THR98      -0.2717
     70  CB      -125.4770  111.5780   20.3410 C.3    98  THR98       0.1784
     71  OG1     -126.7190  110.9260   20.0500 O.3    98  THR98      -0.2211
     72  CG2     -125.1070  111.3280   21.7920 C.3    98  THR98       0.0376
     73  N       -127.9930  113.4080   20.3970 N.am   99  LYS99      -0.1979
     74  CA      -129.1890  113.9080   21.0610 C.3    99  LYS99       0.1596
     75  C       -129.5250  113.0680   22.2880 C.2    99  LYS99       0.2287
     76  O       -129.8820  113.6020   23.3370 O.2    99  LYS99      -0.2864
     77  CB      -130.3720  113.9260   20.0900 C.3    99  LYS99       0.0298
     78  CG      -131.6340  114.5530   20.6610 C.3    99  LYS99       0.0038
     79  CD      -132.7490  114.5860   19.6280 C.3    99  LYS99       0.0206
     80  CE      -134.0030  115.2410   20.1860 C.3    99  LYS99       0.1093
     81  NZ      -133.7580  116.6510   20.6000 N.3    99  LYS99      -0.1314
     82  N       -133.4260  107.0910   21.0430 N.3   104  HIS104     -0.1226
     83  CA      -132.0910  107.4020   20.5450 C.3   104  HIS104      0.1752
     84  C       -131.0400  106.4630   21.1230 C.2   104  HIS104      0.2595
     85  O       -131.2390  105.8700   22.1830 O.2   104  HIS104     -0.2718
     86  CB      -131.7250  108.8520   20.8630 C.3   104  HIS104      0.0759
     87  CG      -132.0740  109.8140   19.7730 C.ar  104  HIS104      0.0818
     88  ND1     -131.2470  110.0440   18.6940 N.ar  104  HIS104     -0.2268
     89  CD2     -133.1600  110.6010   19.5890 C.ar  104  HIS104      0.1154
     90  CE1     -131.8080  110.9330   17.8940 C.ar  104  HIS104      0.1986
     91  NE2     -132.9690  111.2870   18.4150 N.ar  104  HIS104     -0.2212
     92  N       -129.9200  106.3330   20.4200 N.am  105  GLU105     -0.1979
     93  CA      -128.8240  105.4940   20.8860 C.3   105  GLU105      0.1602
     94  C       -127.8400  106.3040   21.7170 C.2   105  GLU105      0.2287
     95  O       -127.2710  107.2890   21.2470 O.2   105  GLU105     -0.2864
     96  CB      -128.1010  104.8320   19.7120 C.3   105  GLU105      0.0415
     97  CG      -128.8540  103.6610   19.0950 C.3   105  GLU105      0.1163
     98  CD      -130.1070  104.0940   18.3630 C.2   105  GLU105      0.3649
     99  OE1     -130.1060  105.2020   17.7860 O.co2 105  GLU105     -0.2457
    100  OE2     -131.0950  103.3310   18.3690 O.co2 105  GLU105     -0.2457
    101  N       -127.2940  116.4990   23.3400 N.3   124  LYS124     -0.1231
    102  CA      -126.8660  117.6200   22.5110 C.3   124  LYS124      0.1693
    103  C       -127.4740  117.5550   21.1140 C.2   124  LYS124      0.2592
    104  O       -127.1770  116.6440   20.3420 O.2   124  LYS124     -0.2718
    105  CB      -125.3390  117.6550   22.4130 C.3   124  LYS124      0.0285
    106  CG      -124.6390  118.1590   23.6660 C.3   124  LYS124      0.0035
    107  CD      -124.2350  119.6160   23.5140 C.3   124  LYS124      0.0206
    108  CE      -123.6840  120.1930   24.8090 C.3   124  LYS124      0.1093
    109  NZ      -123.2640  121.6150   24.6530 N.3   124  LYS124     -0.1314
    110  N       -128.3270  118.5240   20.7960 N.am  125  ASP125     -0.1960
    111  CA      -128.9060  118.6230   19.4610 C.3   125  ASP125      0.1840
    112  C       -127.9790  119.4380   18.5670 C.2   125  ASP125      0.2622
    113  O       -127.7310  120.6160   18.8240 O.2   125  ASP125     -0.2715
    114  CB      -130.2990  119.2570   19.5150 C.3   125  ASP125      0.1450
    115  CG      -131.1220  118.9730   18.2690 C.2   125  ASP125      0.3671
    116  OD1     -130.5280  118.7270   17.1970 O.co2 125  ASP125     -0.2456
    117  OD2     -132.3670  118.9950   18.3610 O.co2 125  ASP125     -0.2456
    118  N       -127.4740  118.8020   17.5160 N.am  126  VAL126     -0.1963
    119  CA      -126.4900  119.4220   16.6350 C.3   126  VAL126      0.1727
    120  C       -127.0450  120.6410   15.9010 C.2   126  VAL126      0.2616
    121  O       -126.2880  121.5000   15.4490 O.2   126  VAL126     -0.2715
    122  CB      -125.9670  118.4140   15.6010 C.3   126  VAL126      0.0290
    123  CG1     -125.2570  117.2660   16.3000 C.3   126  VAL126      0.0023
    124  CG2     -127.1090  117.8960   14.7460 C.3   126  VAL126      0.0023
    125  N       -128.3670  120.7130   15.7900 N.am  127  PHE127     -0.1974
    126  CA      -129.0220  121.8310   15.1250 C.3   127  PHE127      0.1639
    127  C       -128.9670  123.0870   15.9870 C.2   127  PHE127      0.2290
    128  O       -129.1760  124.1970   15.4990 O.2   127  PHE127     -0.2864
    129  CB      -130.4720  121.4760   14.7930 C.3   127  PHE127      0.0560
    130  CG      -130.6070  120.3350   13.8270 C.ar  127  PHE127     -0.0200
    131  CD1     -129.7070  120.1850   12.7860 C.ar  127  PHE127     -0.0042
    132  CD2     -131.6270  119.4090   13.9630 C.ar  127  PHE127     -0.0042
    133  CE1     -129.8260  119.1370   11.8960 C.ar  127  PHE127     -0.0003
    134  CE2     -131.7510  118.3580   13.0760 C.ar  127  PHE127     -0.0003
    135  CZ      -130.8490  118.2210   12.0410 C.ar  127  PHE127     -0.0000
    136  N       -123.0120  111.3800   10.5070 N.3   140  ASP140     -0.1225
    137  CA      -123.7220  110.2100   10.0080 C.3   140  ASP140      0.1805
    138  C       -125.2130  110.3220   10.3190 C.2   140  ASP140      0.2598
    139  O       -125.9050  109.3180   10.4830 O.2   140  ASP140     -0.2718
    140  CB      -123.1430  108.9320   10.6200 C.3   140  ASP140      0.1424
    141  CG      -123.5340  107.6870    9.8500 C.2   140  ASP140      0.3668
    142  OD1     -123.6490  107.7670    8.6100 O.co2 140  ASP140     -0.2456
    143  OD2     -123.7290  106.6310   10.4860 O.co2 140  ASP140     -0.2456
    144  N       -125.7000  111.5550   10.3940 N.am  141  ILE141     -0.1966
    145  CA      -127.0850  111.8150   10.7650 C.3   141  ILE141      0.1727
    146  C       -128.0410  111.6140    9.5940 C.2   141  ILE141      0.2616
    147  O       -127.8400  112.1670    8.5130 O.2   141  ILE141     -0.2715
    148  CB      -127.2500  113.2430   11.3110 C.3   141  ILE141      0.0290
    149  CG1     -126.2840  113.4750   12.4730 C.3   141  ILE141      0.0022
    150  CG2     -128.6860  113.4870   11.7460 C.3   141  ILE141      0.0023
    151  CD1     -126.2910  114.8860   12.9960 C.3   141  ILE141      0.0001
    152  N       -129.0810  110.8190    9.8190 N.am  142  GLY142     -0.1955
    153  CA      -130.0760  110.5510    8.7980 C.3   142  GLY142      0.1869
    154  C       -131.0580  109.4790    9.2280 C.2   142  GLY142      0.2309
    155  O       -130.6590  108.4150    9.7010 O.2   142  GLY142     -0.2863
    156  N       -122.9880  111.8220    5.6150 N.3   174  LYS174     -0.1245
    157  CA      -123.9480  110.9240    4.9840 C.3   174  LYS174      0.1561
    158  C       -125.1010  111.6950    4.3490 C.2   174  LYS174      0.2260
    159  O       -125.6510  112.6140    4.9530 O.2   174  LYS174     -0.2867
    160  CB      -124.4990  109.9210    5.9990 C.3   174  LYS174      0.0271
    161  CG      -125.4080  108.8640    5.3880 C.3   174  LYS174      0.0035
    162  CD      -126.0960  108.0240    6.4520 C.3   174  LYS174      0.0206
    163  CE      -127.0550  108.8620    7.2820 C.3   174  LYS174      0.1093
    164  NZ      -127.7880  108.0440    8.2880 N.3   174  LYS174     -0.1314
@<TRIPOS>BOND
     1   158   159    2
     2   158   157    1
     3   157   156    1
     4   157   160    1
     5   161   160    1
     6   161   162    1
     7   162   163    1
     8   163   164    1
     9   147   146    2
    10   142   141   ar
    11    65    63   ar
    12    65    64   ar
    13   153   154    1
    14   153   152    1
    15    63    61   ar
    16   154   155    2
    17   146   152   am
    18   146   145    1
    19    64    62   ar
    20   141   143   ar
    21   141   140    1
    22   137   138    1
    23   137   136    1
    24   137   140    1
    25    61    60   ar
    26    61    59   ar
    27   138   144   am
    28   138   139    2
    29   144   145    1
    30    60    58   ar
    31   145   148    1
    32    10     9    2
    33    62    59   ar
    34    59    57   ar
    35   148   150    1
    36   148   149    1
    37     8     9    1
    38     8     7    1
    39    58    57   ar
    40   133   135   ar
    41   133   131   ar
    42   135   134   ar
    43    57    56    1
    44   149   151    1
    45   131   130   ar
    46   134   132   ar
    47    56    53    1
    48   130   132   ar
    49   130   129    1
    50    17    16   ar
    51    53    52    1
    52    53    54    1
    53     4     3    2
    54     3     2    1
    55    55    54    2
    56   124   122    1
    57   129   126    1
    58    52    50   am
    59    22    21    2
    60    16    15    1
    61    16    18   ar
    62    12    13    1
    63    12    11    1
    64    12    15    1
    65   126   125    1
    66   126   127    1
    67    51    50    2
    68    50    49    1
    69     6     5    1
    70   121   120    2
    71    13    14    2
    72   128   127    2
    73    20    19    1
    74    20    21    1
    75   122   123    1
    76   122   119    1
    77     5     2    1
    78   125   120   am
    79    21    23   am
    80     2     1    1
    81   120   119    1
    82    49    48    1
    83   119   118    1
    84    23    24    1
    85    48    46   am
    86    24    25    1
    87    24    27    1
    88   116   115   ar
    89    26    25    2
    90   118   112   am
    91    25    29   am
    92    99    98   ar
    93    90    91   ar
    94    90    88   ar
    95    46    47    2
    96    46    45    1
    97    29    30    1
    98    27    28    1
    99   115   117   ar
   100   115   114    1
   101    98   100   ar
   102    98    97    1
   103    91    89   ar
   104   112   113    2
   105   112   111    1
   106    30    31    1
   107    39    40    1
   108    39    38    1
   109    88    87   ar
   110    45    44    1
   111    44    35   am
   112    33    31   am
   113    33    34    1
   114    97    96    1
   115    40    41    2
   116    38    37    1
   117    37    34    1
   118   111   114    1
   119   111   110    1
   120    31    32    2
   121    89    87   ar
   122    79    80    1
   123    79    78    1
   124    96    93    1
   125    87    86    1
   126    34    35    1
   127    35    36    2
   128    71    70    1
   129    67    70    1
   130    67    66    1
   131    67    68    1
   132    77    78    1
   133    77    74    1
   134    80    81    1
   135    41    42    1
   136    41    43    1
   137    70    72    1
   138   104   103    2
   139    73    68   am
   140    73    74    1
   141    92    93    1
   142    92    84   am
   143    83    86    1
   144    83    82    1
   145    83    84    1
   146   110   103   am
   147    68    69    2
   148    93    94    1
   149    74    75    1
   150   103   102    1
   151    84    85    2
   152    95    94    2
   153    75    76    2
   154   105   102    1
   155   105   106    1
   156   102   101    1
   157   107   106    1
   158   107   108    1
   159   109   108    1
