@<TRIPOS>MOLECULE
tmp/5ccvH00.pdb
 158 152 0 0 0
SMALL
GASTEIGER

@<TRIPOS>ATOM
      1  N       -174.3420   35.6120   81.3130 N.3    49  SER49      -0.1217
      2  CA      -173.1070   34.8540   81.1630 C.3    49  SER49       0.1889
      3  C       -173.3840   33.3860   80.8690 C.2    49  SER49       0.2288
      4  O       -174.5290   32.9890   80.6560 O.2    49  SER49      -0.2866
      5  CB      -172.2460   34.9820   82.4210 C.3    49  SER49       0.2089
      6  OG      -172.8840   34.3840   83.5090 O.3    49  SER49      -0.2183
      7  N       -172.8380   31.0890   83.0010 N.3    51  GLY51      -0.1225
      8  CA      -173.2840   30.5180   84.2590 C.3    51  GLY51       0.1811
      9  C       -174.7920   30.3700   84.3160 C.2    51  GLY51       0.2280
     10  O       -175.3200   29.5910   85.1090 O.2    51  GLY51      -0.2866
     11  N       -178.2750   34.7860   95.8220 N.3    72  ASP72      -0.1239
     12  CA      -177.1600   34.3830   94.9730 C.3    72  ASP72       0.1674
     13  C       -175.8560   35.0450   95.4040 C.2    72  ASP72       0.2266
     14  O       -175.5410   36.1540   94.9730 O.2    72  ASP72      -0.2867
     15  CB      -177.4540   34.7190   93.5090 C.3    72  ASP72       0.1410
     16  CG      -176.5640   34.0060   92.5180 C.2    72  ASP72       0.3668
     17  OD1     -175.7400   33.1760   92.8680 O.co2  72  ASP72      -0.2456
     18  OD2     -176.7730   34.1760   91.3140 O.co2  72  ASP72      -0.2456
     19  N       -172.1820   35.9900   95.2960 N.3    74  GLY74      -0.1210
     20  CA      -171.2900   36.1360   94.1630 C.3    74  GLY74       0.1956
     21  C       -172.0810   36.1350   92.8700 C.2    74  GLY74       0.2612
     22  O       -171.9200   35.2470   92.0330 O.2    74  GLY74      -0.2717
     23  N       -172.9450   37.1340   92.7150 N.am   75  CYS75      -0.1956
     24  CA      -173.8170   37.2290   91.5500 C.3    75  CYS75       0.1843
     25  C       -173.0200   37.3980   90.2630 C.2    75  CYS75       0.2626
     26  O       -173.3990   36.8740   89.2160 O.2    75  CYS75      -0.2714
     27  CB      -174.7990   38.3900   91.7130 C.3    75  CYS75       0.0997
     28  SG      -175.9210   38.6670   90.3550 S.3    75  CYS75      -0.0797
     29  N       -171.9130   38.1290   90.3500 N.am   76  GLY76      -0.1940
     30  CA      -171.0600   38.3630   89.2000 C.3    76  GLY76       0.2014
     31  C       -171.7770   39.1250   88.1040 C.2    76  GLY76       0.2638
     32  O       -172.2740   40.2270   88.3270 O.2    76  GLY76      -0.2714
     33  N       -171.8320   38.5330   86.9160 N.am   77  ARG77      -0.1977
     34  CA      -172.5320   39.1430   85.7930 C.3    77  ARG77       0.1597
     35  C       -174.0380   39.1390   86.0330 C.2    77  ARG77       0.2287
     36  O       -174.7540   40.0230   85.5650 O.2    77  ARG77      -0.2864
     37  CB      -172.1990   38.4130   84.4900 C.3    77  ARG77       0.0334
     38  CG      -170.7220   38.2320   84.2230 C.3    77  ARG77       0.0492
     39  CD      -170.0780   39.5230   83.8240 C.3    77  ARG77       0.2205
     40  NE      -170.7180   40.0720   82.6330 N.pl3  77  ARG77      -0.0865
     41  CZ      -170.1070   40.2520   81.4680 C.cat  77  ARG77       0.5346
     42  NH1     -168.9120   39.7150   81.2530 N.pl3  77  ARG77       0.1354
     43  NH2     -170.7400   40.8830   80.4830 N.pl3  77  ARG77       0.1354
     44  N       -175.8560   35.9600   85.8210 N.3    79  GLY79      -0.1210
     45  CA      -176.4040   34.8800   85.0220 C.3    79  GLY79       0.1956
     46  C       -177.2920   33.9530   85.8270 C.2    79  GLY79       0.2611
     47  O       -178.3780   33.5780   85.3850 O.2    79  GLY79      -0.2717
     48  N       -176.8290   33.5850   87.0160 N.am   80  TRP80      -0.1976
     49  CA      -177.5740   32.6780   87.8810 C.3    80  TRP80       0.1640
     50  C       -178.8230   33.3460   88.4490 C.2    80  TRP80       0.2290
     51  O       -179.8430   32.6930   88.6610 O.2    80  TRP80      -0.2864
     52  CB      -176.6850   32.1750   89.0190 C.3    80  TRP80       0.0576
     53  CG      -175.7230   31.0710   88.7470 C.ar   80  TRP80       0.0006
     54  CD1     -174.9160   30.9210   87.6410 C.ar   80  TRP80       0.0946
     55  CD2     -175.4400   29.9520   89.5880 C.ar   80  TRP80       0.0152
     56  NE1     -174.1510   29.7870   87.7580 N.ar   80  TRP80      -0.2442
     57  CE2     -174.4700   29.1580   88.9290 C.ar   80  TRP80       0.0810
     58  CE3     -175.9250   29.5490   90.8340 C.ar   80  TRP80       0.0012
     59  CZ2     -173.9470   28.0000   89.4790 C.ar   80  TRP80       0.0191
     60  CZ3     -175.4330   28.3670   91.3750 C.ar   80  TRP80       0.0001
     61  CH2     -174.4560   27.6200   90.7230 C.ar   80  TRP80       0.0015
     62  N       -172.4780   40.7500   95.1490 N.3    97  THR97      -0.1203
     63  CA      -171.1830   40.5860   94.5010 C.3    97  THR97       0.1994
     64  C       -170.1350   41.4980   95.1280 C.2    97  THR97       0.2617
     65  O       -170.4690   42.4800   95.7910 O.2    97  THR97      -0.2717
     66  CB      -171.2650   40.8740   92.9900 C.3    97  THR97       0.1784
     67  OG1     -170.0440   40.4630   92.3650 O.3    97  THR97      -0.2211
     68  CG2     -171.5130   42.3500   92.7060 C.3    97  THR97       0.0376
     69  N       -168.8660   41.1670   94.9150 N.am   98  LYS98      -0.1979
     70  CA      -167.7670   41.9480   95.4680 C.3    98  LYS98       0.1596
     71  C       -167.5730   43.2440   94.6920 C.2    98  LYS98       0.2287
     72  O       -167.5140   44.3250   95.2750 O.2    98  LYS98      -0.2864
     73  CB      -166.4720   41.1330   95.4640 C.3    98  LYS98       0.0298
     74  CG      -166.5240   39.8640   96.2850 C.3    98  LYS98       0.0038
     75  CD      -166.8210   40.1750   97.7380 C.3    98  LYS98       0.0206
     76  CE      -166.4970   38.9870   98.6280 C.3    98  LYS98       0.1093
     77  NZ      -167.1450   37.7600   98.0880 N.3    98  LYS98      -0.1314
     78  N       -162.9030   41.9740   90.0980 N.3   103  HIS103     -0.1226
     79  CA      -164.1800   41.3460   90.4140 C.3   103  HIS103      0.1752
     80  C       -165.2540   41.7530   89.4110 C.2   103  HIS103      0.2595
     81  O       -165.3270   42.9110   89.0000 O.2   103  HIS103     -0.2718
     82  CB      -164.6200   41.7060   91.8340 C.3   103  HIS103      0.0759
     83  CG      -163.7000   41.3270   92.9080 C.ar  103  HIS103      0.0818
     84  ND1     -163.4510   40.0270   93.2910 N.ar  103  HIS103     -0.2268
     85  CD2     -162.8360   42.1260   93.6170 C.ar  103  HIS103      0.1154
     86  CE1     -162.5160   40.0530   94.2320 C.ar  103  HIS103      0.1986
     87  NE2     -162.1750   41.2820   94.4770 N.ar  103  HIS103     -0.2212
     88  N       -166.0850   40.7920   89.0190 N.am  104  GLU104     -0.1979
     89  CA      -167.1400   41.0390   88.0430 C.3   104  GLU104      0.1602
     90  C       -168.2600   41.8870   88.6360 C.2   104  GLU104      0.2287
     91  O       -168.6800   41.6720   89.7720 O.2   104  GLU104     -0.2864
     92  CB      -167.7030   39.7170   87.5200 C.3   104  GLU104      0.0415
     93  CG      -166.6800   38.9810   86.6500 C.3   104  GLU104      0.1163
     94  CD      -166.9350   37.4950   86.5630 C.2   104  GLU104      0.3649
     95  OE1     -167.7180   36.8960   87.3270 O.co2 104  GLU104     -0.2457
     96  OE2     -166.2450   36.9400   85.6740 O.co2 104  GLU104     -0.2457
     97  N       -170.4800   44.3460   97.9950 N.3   123  LYS123     -0.1231
     98  CA      -170.8760   43.6400   99.2070 C.3   123  LYS123      0.1693
     99  C       -170.0350   42.3840   99.4230 C.2   123  LYS123      0.2592
    100  O       -169.9690   41.5140   98.5550 O.2   123  LYS123     -0.2718
    101  CB      -172.3600   43.2740   99.1520 C.3   123  LYS123      0.0285
    102  CG      -172.9180   42.8010  100.4660 C.3   123  LYS123      0.0035
    103  CD      -173.2400   44.0250  101.2760 C.3   123  LYS123      0.0206
    104  CE      -173.8440   43.7290  102.6170 C.3   123  LYS123      0.1093
    105  NZ      -174.2050   44.9930  103.2570 N.3   123  LYS123     -0.1314
    106  N       -169.3940   42.2990  100.5840 N.am  124  ASP124     -0.1960
    107  CA      -168.5670   41.1460  100.9270 C.3   124  ASP124      0.1840
    108  C       -169.3820   40.0800  101.6510 C.2   124  ASP124      0.2622
    109  O       -169.9350   40.3310  102.7210 O.2   124  ASP124     -0.2715
    110  CB      -167.3780   41.5760  101.7880 C.3   124  ASP124      0.1450
    111  CG      -166.5770   40.3990  102.3030 C.2   124  ASP124      0.3671
    112  OD1     -165.7260   39.8810  101.5490 O.co2 124  ASP124     -0.2456
    113  OD2     -166.7970   39.9920  103.4630 O.co2 124  ASP124     -0.2456
    114  N       -169.4440   38.8900  101.0650 N.am  125  VAL125     -0.1963
    115  CA      -170.2400   37.7990  101.6160 C.3   125  VAL125      0.1727
    116  C       -169.6140   37.2100  102.8770 C.2   125  VAL125      0.2616
    117  O       -170.3100   36.6350  103.7140 O.2   125  VAL125     -0.2715
    118  CB      -170.4330   36.6710  100.5850 C.3   125  VAL125      0.0290
    119  CG1     -171.2560   35.5190  101.1520 C.3   125  VAL125      0.0023
    120  CG2     -171.1760   37.2390   99.3730 C.3   125  VAL125      0.0023
    121  N       -168.2990   37.3550  103.0080 N.am  126  PHE126     -0.1974
    122  CA      -167.5820   36.8180  104.1580 C.3   126  PHE126      0.1639
    123  C       -167.9170   37.5840  105.4350 C.2   126  PHE126      0.2290
    124  O       -167.7510   37.0680  106.5400 O.2   126  PHE126     -0.2864
    125  CB      -166.0720   36.8480  103.9100 C.3   126  PHE126      0.0560
    126  CG      -165.5430   35.8310  102.9470 C.ar  126  PHE126     -0.0200
    127  CD1     -166.0920   34.5480  102.8380 C.ar  126  PHE126     -0.0042
    128  CD2     -164.4390   36.1710  102.1430 C.ar  126  PHE126     -0.0042
    129  CE1     -165.5380   33.6170  101.9800 C.ar  126  PHE126     -0.0003
    130  CE2     -163.8940   35.2420  101.2660 C.ar  126  PHE126     -0.0003
    131  CZ      -164.4480   33.9540  101.1970 C.ar  126  PHE126     -0.0000
    132  N       -171.6590   30.4470   93.7920 N.3   139  ASP139     -0.1225
    133  CA      -170.8080   29.9980   92.7000 C.3   139  ASP139      0.1805
    134  C       -169.3460   30.3280   92.9830 C.2   139  ASP139      0.2597
    135  O       -168.4830   30.1650   92.1210 O.2   139  ASP139     -0.2718
    136  CB      -171.2500   30.6370   91.3820 C.3   139  ASP139      0.1424
    137  CG      -170.9660   29.7550   90.1830 C.2   139  ASP139      0.3668
    138  OD1     -170.1050   28.8570   90.2910 O.co2 139  ASP139     -0.2456
    139  OD2     -171.6070   29.9600   89.1310 O.co2 139  ASP139     -0.2456
    140  N       -169.0750   30.7920   94.1990 N.am  140  ILE140     -0.1980
    141  CA      -167.7180   31.1510   94.5950 C.3   140  ILE140      0.1595
    142  C       -166.8620   29.9090   94.8210 C.2   140  ILE140      0.2287
    143  O       -167.0020   29.2230   95.8340 O.2   140  ILE140     -0.2864
    144  CB      -167.7120   32.0070   95.8740 C.3   140  ILE140      0.0276
    145  CG1     -168.2820   33.4000   95.5350 C.3   140  ILE140      0.0022
    146  CG2     -166.3310   32.0870   96.4770 C.3   140  ILE140      0.0022
    147  CD1     -168.5830   34.2460   96.7410 C.3   140  ILE140      0.0001
    148  N       -159.2750   28.1460  100.8690 N.3   150  ARG150     -0.1245
    149  CA      -160.2550   28.9780  100.1830 C.3   150  ARG150      0.1563
    150  C       -161.6080   28.2800  100.1480 C.2   150  ARG150      0.2260
    151  O       -162.6520   28.9210  100.2560 O.2   150  ARG150     -0.2867
    152  CB      -159.7910   29.3070   98.7640 C.3   150  ARG150      0.0307
    153  CG      -160.8460   30.1700   98.0120 C.3   150  ARG150      0.0489
    154  CD      -160.1230   30.6820   96.7450 C.3   150  ARG150      0.2205
    155  NE      -161.1350   31.3130   95.8610 N.pl3 150  ARG150     -0.0865
    156  CZ      -161.9970   30.7200   95.0310 C.cat 150  ARG150      0.5346
    157  NH1     -162.0200   29.4270   94.8440 N.pl3 150  ARG150      0.1354
    158  NH2     -162.8500   31.4630   94.3150 N.pl3 150  ARG150      0.1354
@<TRIPOS>BOND
     1    43    41    1
     2     4     3    2
     3     3     2    1
     4     2     1    1
     5     2     5    1
     6    42    41    1
     7    41    40    2
     8     5     6    1
     9    40    39    1
    10     7     8    1
    11    39    38    1
    12    38    37    1
    13     8     9    1
    14     9    10    2
    15    37    34    1
    16    45    44    1
    17    45    46    1
    18    47    46    2
    19    36    35    2
    20    96    94   ar
    21    34    35    1
    22    34    33    1
    23    46    48   am
    24    94    93    1
    25    94    95   ar
    26    93    92    1
    27    33    31   am
    28    48    49    1
    29    92    89    1
    30    54    56   ar
    31    54    53   ar
    32    56    57   ar
    33    49    50    1
    34    49    52    1
    35    89    90    1
    36    89    88    1
    37    31    32    2
    38    31    30    1
    39    50    51    2
    40    90    91    2
    41    53    52    1
    42    53    55   ar
    43    57    59   ar
    44    57    55   ar
    45    81    80    2
    46    88    80   am
    47   139   137   ar
    48    30    29    1
    49    26    25    2
    50    80    79    1
    51    59    61   ar
    52    55    58   ar
    53    78    79    1
    54   137   138   ar
    55   137   136    1
    56    25    29   am
    57    25    24    1
    58    28    27    1
    59    79    82    1
    60    61    60   ar
    61    58    60   ar
    62    18    16   ar
    63   136   133    1
    64    24    27    1
    65    24    23    1
    66    82    83    1
    67    22    21    2
    68   135   134    2
    69    67    66    1
    70    16    17   ar
    71    16    15    1
    72   133   134    1
    73   133   132    1
    74    68    66    1
    75    23    21   am
    76    21    20    1
    77    83    84   ar
    78    83    85   ar
    79   134   140   am
    80    66    63    1
    81    84    86   ar
    82    15    12    1
    83    85    87   ar
    84    20    19    1
    85   140   141    1
    86    86    87   ar
    87   158   156    1
    88    63    64    1
    89    63    62    1
    90   141   142    1
    91   141   144    1
    92    71    72    2
    93    71    70    1
    94   142   143    2
    95   157   156    1
    96    69    64   am
    97    69    70    1
    98    14    13    2
    99    12    13    1
   100    12    11    1
   101   156   155    2
   102    64    65    2
   103    73    70    1
   104    73    74    1
   105   145   144    1
   106   145   147    1
   107   155   154    1
   108   144   146    1
   109    74    75    1
   110   154   153    1
   111    75    76    1
   112    97    98    1
   113   153   152    1
   114    77    76    1
   115   100    99    2
   116   152   149    1
   117   101    98    1
   118   101   102    1
   119    98    99    1
   120   120   118    1
   121    99   106   am
   122   150   149    1
   123   150   151    2
   124   149   148    1
   125   102   103    1
   126   106   107    1
   127   118   119    1
   128   118   115    1
   129   107   108    1
   130   107   110    1
   131   114   115    1
   132   114   108   am
   133   131   130   ar
   134   131   129   ar
   135   130   128   ar
   136   103   104    1
   137   112   111   ar
   138   115   116    1
   139   108   109    2
   140   110   111    1
   141   129   127   ar
   142   128   126   ar
   143   111   113   ar
   144   104   105    1
   145   127   126   ar
   146   116   121   am
   147   116   117    2
   148   126   125    1
   149   121   122    1
   150   125   122    1
   151   122   123    1
   152   123   124    2
