@<TRIPOS>MOLECULE
tmp/5ccxA00.pdb
 187 183 0 0 0
SMALL
GASTEIGER

@<TRIPOS>ATOM
      1  N        -32.1020  -39.6510   24.8880 N.3    84  THR84      -0.1203
      2  CA       -32.6620  -39.8470   23.5660 C.3    84  THR84       0.1994
      3  C        -31.8210  -39.0300   22.6100 C.2    84  THR84       0.2618
      4  O        -30.9970  -38.2200   23.0340 O.2    84  THR84      -0.2717
      5  CB       -34.1130  -39.3280   23.4740 C.3    84  THR84       0.1784
      6  OG1      -34.1570  -37.9420   23.8380 O.3    84  THR84      -0.2211
      7  CG2      -35.0350  -40.1160   24.4010 C.3    84  THR84       0.0376
      8  N        -32.0250  -39.2360   21.3190 N.am   85  GLN85      -0.1965
      9  CA       -31.5470  -38.2740   20.3510 C.3    85  GLN85       0.1733
     10  C        -32.3610  -37.0160   20.5950 C.2    85  GLN85       0.2616
     11  O        -33.5330  -37.0970   20.9700 O.2    85  GLN85      -0.2715
     12  CB       -31.7650  -38.7770   18.9330 C.3    85  GLN85       0.0408
     13  CG       -31.5340  -37.7110   17.8830 C.3    85  GLN85       0.0908
     14  CD       -30.0890  -37.2510   17.8100 C.2    85  GLN85       0.2608
     15  OE1      -29.5930  -36.5570   18.7020 O.2    85  GLN85      -0.2717
     16  NE2      -29.4050  -37.6360   16.7420 N.am   85  GLN85      -0.0878
     17  N        -31.7470  -35.8550   20.4060 N.am   86  ILE86      -0.1963
     18  CA       -32.4290  -34.5960   20.6680 C.3    86  ILE86       0.1727
     19  C        -32.4430  -33.7030   19.4410 C.2    86  ILE86       0.2616
     20  O        -31.7180  -33.9390   18.4750 O.2    86  ILE86      -0.2715
     21  CB       -31.7560  -33.8290   21.8130 C.3    86  ILE86       0.0290
     22  CG1      -30.3260  -33.4420   21.4220 C.3    86  ILE86       0.0022
     23  CG2      -31.7620  -34.6720   23.0860 C.3    86  ILE86       0.0023
     24  CD1      -29.6270  -32.5710   22.4490 C.3    86  ILE86       0.0001
     25  N        -33.2810  -32.6760   19.4850 N.am   87  LEU87      -0.1977
     26  CA       -33.2650  -31.6500   18.4630 C.3    87  LEU87       0.1596
     27  C        -32.2660  -30.5850   18.8590 C.2    87  LEU87       0.2287
     28  O        -32.1110  -30.2620   20.0390 O.2    87  LEU87      -0.2864
     29  CB       -34.6420  -31.0230   18.2990 C.3    87  LEU87       0.0297
     30  CG       -35.7070  -31.9610   17.7420 C.3    87  LEU87       0.0022
     31  CD1      -36.9940  -31.1860   17.5590 C.3    87  LEU87       0.0001
     32  CD2      -35.2520  -32.5890   16.4260 C.3    87  LEU87       0.0001
     33  N        -46.6990  -30.9100   23.8860 N.3   109  GLU109     -0.1231
     34  CA       -45.5430  -31.5740   23.2980 C.3   109  GLU109      0.1699
     35  C        -45.5040  -33.0610   23.6430 C.2   109  GLU109      0.2593
     36  O        -45.8150  -33.4590   24.7670 O.2   109  GLU109     -0.2718
     37  CB       -44.2460  -30.9150   23.7880 C.3   109  GLU109      0.0402
     38  CG       -43.0000  -31.7800   23.5820 C.3   109  GLU109      0.1161
     39  CD       -41.7820  -31.2670   24.3270 C.2   109  GLU109      0.3649
     40  OE1      -41.9060  -30.9060   25.5170 O.co2 109  GLU109     -0.2457
     41  OE2      -40.6910  -31.2370   23.7230 O.co2 109  GLU109     -0.2457
     42  N        -45.1080  -33.8710   22.6670 N.am  110  SER110     -0.1938
     43  CA       -44.7860  -35.2750   22.8890 C.3   110  SER110      0.2055
     44  C        -43.8770  -35.7020   21.7390 C.2   110  SER110      0.2644
     45  O        -44.1610  -35.3770   20.5900 O.2   110  SER110     -0.2714
     46  CB       -46.0610  -36.1250   22.9230 C.3   110  SER110      0.2130
     47  OG       -45.8010  -37.4620   23.3180 O.3   110  SER110     -0.2179
     48  N        -42.7830  -36.4060   22.0180 N.am  111  GLY111     -0.1939
     49  CA       -42.4140  -36.8280   23.3550 C.3   111  GLY111      0.2014
     50  C        -41.3790  -35.9310   24.0000 C.2   111  GLY111      0.2640
     51  O        -40.5670  -35.2980   23.3240 O.2   111  GLY111     -0.2714
     52  N        -41.4090  -35.8920   25.3250 N.am  112  THR112     -0.1936
     53  CA       -40.5120  -35.0440   26.0980 C.3   112  THR112      0.2028
     54  C        -39.0500  -35.3750   25.8000 C.2   112  THR112      0.2643
     55  O        -38.2140  -34.4810   25.6640 O.2   112  THR112     -0.2714
     56  CB       -40.7560  -35.2190   27.6030 C.3   112  THR112      0.1808
     57  OG1      -42.1660  -35.2850   27.8670 O.3   112  THR112     -0.2208
     58  CG2      -40.1340  -34.0720   28.3900 C.3   112  THR112      0.0379
     59  N        -38.7470  -36.6670   25.7090 N.am  113  GLY113     -0.1939
     60  CA       -37.4040  -37.1240   25.3950 C.3   113  GLY113      0.2014
     61  C        -36.3750  -36.7120   26.4280 C.2   113  GLY113      0.2640
     62  O        -36.4330  -37.1520   27.5760 O.2   113  GLY113     -0.2714
     63  N        -35.4290  -35.8700   26.0210 N.am  114  SER114     -0.1935
     64  CA       -34.3550  -35.4200   26.9060 C.3   114  SER114      0.2055
     65  C        -34.5300  -33.9480   27.2690 C.2   114  SER114      0.2644
     66  O        -33.6830  -33.3570   27.9410 O.2   114  SER114     -0.2714
     67  CB       -32.9930  -35.6520   26.2450 C.3   114  SER114      0.2130
     68  OG       -32.8690  -36.9950   25.8140 O.3   114  SER114     -0.2179
     69  N        -35.6290  -33.3550   26.8130 N.am  115  GLY115     -0.1939
     70  CA       -36.0150  -32.0260   27.2510 C.3   115  GLY115      0.2014
     71  C        -35.3520  -30.8680   26.5280 C.2   115  GLY115      0.2640
     72  O        -35.4640  -29.7290   26.9780 O.2   115  GLY115     -0.2714
     73  N        -34.6730  -31.1320   25.4140 N.am  116  SER116     -0.1935
     74  CA       -33.9870  -30.0640   24.6880 C.3   116  SER116      0.2055
     75  C        -34.9880  -29.0260   24.1840 C.2   116  SER116      0.2642
     76  O        -34.8270  -27.8290   24.4210 O.2   116  SER116     -0.2714
     77  CB       -33.1820  -30.6240   23.5110 C.3   116  SER116      0.2130
     78  OG       -32.4320  -29.5970   22.8900 O.3   116  SER116     -0.2179
     79  N        -36.0250  -29.4950   23.4960 N.am  117  VAL117     -0.1977
     80  CA       -37.0620  -28.6080   22.9780 C.3   117  VAL117      0.1596
     81  C        -37.8880  -28.0310   24.1210 C.2   117  VAL117      0.2287
     82  O        -38.2890  -26.8670   24.0780 O.2   117  VAL117     -0.2864
     83  CB       -38.0090  -29.3410   22.0050 C.3   117  VAL117      0.0276
     84  CG1      -38.9970  -28.3520   21.3620 C.3   117  VAL117      0.0022
     85  CG2      -37.2150  -30.0630   20.9310 C.3   117  VAL117      0.0022
     86  N        -45.6550  -34.7110   27.1710 N.3   134  VAL134     -0.1231
     87  CA       -46.0730  -36.0870   27.3610 C.3   134  VAL134      0.1692
     88  C        -44.9560  -37.0460   26.9850 C.2   134  VAL134      0.2592
     89  O        -44.2980  -36.8740   25.9570 O.2   134  VAL134     -0.2718
     90  CB       -47.3040  -36.3940   26.5030 C.3   134  VAL134      0.0266
     91  CG1      -47.6490  -37.8790   26.5580 C.3   134  VAL134      0.0020
     92  CG2      -48.4740  -35.5410   26.9560 C.3   134  VAL134      0.0020
     93  N        -44.7580  -38.0590   27.8240 N.am  135  GLU135     -0.1966
     94  CA       -43.6990  -39.0440   27.6420 C.3   135  GLU135      0.1733
     95  C        -44.1630  -40.3730   28.2300 C.2   135  GLU135      0.2616
     96  O        -44.4820  -40.4450   29.4170 O.2   135  GLU135     -0.2715
     97  CB       -42.4220  -38.5700   28.3400 C.3   135  GLU135      0.0429
     98  CG       -41.3120  -39.6030   28.3720 C.3   135  GLU135      0.1163
     99  CD       -40.8880  -40.0340   26.9930 C.2   135  GLU135      0.3649
    100  OE1      -40.4210  -39.1730   26.2180 O.co2 135  GLU135     -0.2457
    101  OE2      -41.0310  -41.2340   26.6830 O.co2 135  GLU135     -0.2457
    102  N        -44.2040  -41.4240   27.4130 N.am  136  PHE136     -0.1974
    103  CA       -44.7760  -42.6910   27.8570 C.3   136  PHE136      0.1639
    104  C        -43.7330  -43.6470   28.4320 C.2   136  PHE136      0.2290
    105  O        -44.0310  -44.7980   28.7390 O.2   136  PHE136     -0.2864
    106  CB       -45.6100  -43.3460   26.7430 C.3   136  PHE136      0.0560
    107  CG       -44.8110  -43.8740   25.5670 C.ar  136  PHE136     -0.0200
    108  CD1      -43.4410  -43.7160   25.4760 C.ar  136  PHE136     -0.0042
    109  CD2      -45.4620  -44.5290   24.5360 C.ar  136  PHE136     -0.0042
    110  CE1      -42.7460  -44.2090   24.3860 C.ar  136  PHE136     -0.0003
    111  CE2      -44.7700  -45.0190   23.4510 C.ar  136  PHE136     -0.0003
    112  CZ       -43.4110  -44.8580   23.3760 C.ar  136  PHE136     -0.0000
    113  N        -37.7020  -41.7060   31.6830 N.3   140  ARG140     -0.1245
    114  CA       -37.4160  -40.4810   30.9520 C.3   140  ARG140      0.1563
    115  C        -38.3510  -39.3730   31.4200 C.2   140  ARG140      0.2260
    116  O        -37.9380  -38.2230   31.5850 O.2   140  ARG140     -0.2867
    117  CB       -37.5530  -40.7140   29.4450 C.3   140  ARG140      0.0307
    118  CG       -36.4000  -41.5260   28.8700 C.3   140  ARG140      0.0489
    119  CD       -36.2220  -41.3090   27.3760 C.3   140  ARG140      0.2205
    120  NE       -37.1600  -42.1000   26.5820 N.pl3 140  ARG140     -0.0865
    121  CZ       -37.0010  -43.3850   26.2850 C.cat 140  ARG140      0.5346
    122  NH1      -35.9440  -44.0490   26.7280 N.pl3 140  ARG140      0.1354
    123  NH2      -37.9100  -44.0120   25.5510 N.pl3 140  ARG140      0.1354
    124  N        -47.8990  -40.8700   29.7770 N.3   162  GLN162     -0.1231
    125  CA       -48.9630  -41.5950   29.0980 C.3   162  GLN162      0.1698
    126  C        -48.7020  -41.6580   27.5990 C.2   162  GLN162      0.2592
    127  O        -47.7850  -41.0100   27.0940 O.2   162  GLN162     -0.2718
    128  CB       -50.3130  -40.9230   29.3610 C.3   162  GLN162      0.0381
    129  CG       -50.3320  -39.4320   29.0140 C.3   162  GLN162      0.0905
    130  CD       -51.5530  -38.7020   29.5570 C.2   162  GLN162      0.2608
    131  OE1      -51.8220  -38.7350   30.7540 O.2   162  GLN162     -0.2717
    132  NE2      -52.2870  -38.0280   28.6810 N.am  162  GLN162     -0.0878
    133  N        -49.5230  -42.4340   26.8970 N.am  163  ASP163     -0.1960
    134  CA       -49.3940  -42.6060   25.4590 C.3   163  ASP163      0.1840
    135  C        -50.2230  -41.5480   24.7470 C.2   163  ASP163      0.2622
    136  O        -51.4520  -41.5890   24.7800 O.2   163  ASP163     -0.2715
    137  CB       -49.8630  -44.0050   25.0540 C.3   163  ASP163      0.1450
    138  CG       -49.7290  -44.2640   23.5650 C.2   163  ASP163      0.3671
    139  OD1      -49.5000  -43.3020   22.8000 O.co2 163  ASP163     -0.2456
    140  OD2      -49.8660  -45.4340   23.1570 O.co2 163  ASP163     -0.2456
    141  N        -49.5430  -40.6040   24.1020 N.am  164  VAL164     -0.1963
    142  CA       -50.1950  -39.4630   23.4720 C.3   164  VAL164      0.1727
    143  C        -51.1310  -39.8920   22.3440 C.2   164  VAL164      0.2616
    144  O        -52.0610  -39.1640   21.9930 O.2   164  VAL164     -0.2715
    145  CB       -49.1520  -38.4760   22.9060 C.3   164  VAL164      0.0290
    146  CG1      -48.4390  -39.0930   21.7030 C.3   164  VAL164      0.0023
    147  CG2      -49.8090  -37.1420   22.5350 C.3   164  VAL164      0.0023
    148  N        -50.8890  -41.0770   21.7900 N.am  165  CYS165     -0.1968
    149  CA       -51.6420  -41.5620   20.6360 C.3   165  CYS165      0.1712
    150  C        -52.9630  -42.2330   21.0360 C.2   165  CYS165      0.2296
    151  O        -53.8240  -42.4530   20.1880 O.2   165  CYS165     -0.2864
    152  CB       -50.7900  -42.5380   19.8040 C.3   165  CYS165      0.0983
    153  SG       -49.3630  -41.8060   18.9230 S.3   165  CYS165     -0.0798
    154  N        -46.5380  -29.6300   19.2740 N.3   179  PHE179     -0.1241
    155  CA       -45.3220  -30.1430   18.6600 C.3   179  PHE179      0.1605
    156  C        -45.1570  -31.6420   18.8950 C.2   179  PHE179      0.2264
    157  O        -45.2160  -32.1120   20.0330 O.2   179  PHE179     -0.2867
    158  CB       -44.0790  -29.4240   19.1800 C.3   179  PHE179      0.0534
    159  CG       -42.7970  -30.0260   18.6660 C.ar  179  PHE179     -0.0203
    160  CD1      -42.4640  -29.9210   17.3300 C.ar  179  PHE179     -0.0042
    161  CD2      -41.9540  -30.7300   19.5000 C.ar  179  PHE179     -0.0042
    162  CE1      -41.3090  -30.4840   16.8410 C.ar  179  PHE179     -0.0003
    163  CE2      -40.7920  -31.2980   19.0120 C.ar  179  PHE179     -0.0003
    164  CZ       -40.4710  -31.1700   17.6790 C.ar  179  PHE179     -0.0000
    165  N        -42.6870  -35.0310   18.3350 N.3   181  ASP181     -0.1225
    166  CA       -41.4500  -35.7130   17.9910 C.3   181  ASP181      0.1805
    167  C        -41.6110  -37.1550   18.4520 C.2   181  ASP181      0.2598
    168  O        -41.1330  -37.5310   19.5240 O.2   181  ASP181     -0.2718
    169  CB       -40.2510  -35.0620   18.6820 C.3   181  ASP181      0.1424
    170  CG       -38.9190  -35.6690   18.2550 C.2   181  ASP181      0.3668
    171  OD1      -38.9090  -36.6910   17.5340 O.co2 181  ASP181     -0.2456
    172  OD2      -37.8720  -35.1230   18.6550 O.co2 181  ASP181     -0.2456
    173  N        -42.3240  -37.9460   17.6560 N.am  182  ILE182     -0.1966
    174  CA       -42.5090  -39.3640   17.9400 C.3   182  ILE182      0.1712
    175  C        -42.5080  -40.1610   16.6350 C.2   182  ILE182      0.2458
    176  O        -42.6620  -39.5890   15.5580 O.2   182  ILE182     -0.2730
    177  CB       -43.8290  -39.6290   18.7040 C.3   182  ILE182      0.0289
    178  CG1      -45.0370  -39.1880   17.8750 C.3   182  ILE182      0.0022
    179  CG2      -43.8290  -38.9030   20.0480 C.3   182  ILE182      0.0023
    180  CD1      -46.3580  -39.7180   18.4160 C.3   182  ILE182      0.0001
    181  N        -42.3250  -41.4870   16.7290 N.am  183  PRO183     -0.2727
    182  CA       -42.2560  -42.3910   15.5700 C.3   183  PRO183      0.1402
    183  C        -43.5570  -42.5430   14.7790 C.2   183  PRO183      0.2269
    184  O        -43.5020  -42.9120   13.6070 O.2   183  PRO183     -0.2865
    185  CB       -41.8830  -43.7410   16.1960 C.3   183  PRO183      0.0296
    186  CG       -41.2910  -43.4070   17.5380 C.3   183  PRO183      0.0237
    187  CD       -42.0040  -42.1750   17.9900 C.3   183  PRO183      0.0939
@<TRIPOS>BOND
     1   184   183    2
     2   183   182    1
     3   176   175    2
     4   182   185    1
     5   182   181    1
     6   185   186    1
     7    32    30    1
     8   175   181   am
     9   175   174    1
    10   181   187    1
    11    16    14   am
    12   162   160   ar
    13   162   164   ar
    14   160   159   ar
    15   171   170   ar
    16   186   187    1
    17    31    30    1
    18   173   174    1
    19   173   167   am
    20   164   163   ar
    21    30    29    1
    22    14    13    1
    23    14    15    2
    24   178   180    1
    25   178   177    1
    26    13    12    1
    27   174   177    1
    28   166   165    1
    29   166   167    1
    30   166   169    1
    31   170   172   ar
    32   170   169    1
    33    29    26    1
    34   167   168    2
    35    26    27    1
    36    26    25    1
    37    20    19    2
    38   155   156    1
    39   155   158    1
    40   155   154    1
    41   159   158    1
    42   159   161   ar
    43   177   179    1
    44    27    28    2
    45   156   157    2
    46   153   152    1
    47    12     9    1
    48   163   161   ar
    49    19    25   am
    50    19    18    1
    51   152   149    1
    52   151   150    2
    53     9    10    1
    54     9     8    1
    55    17    10   am
    56    17    18    1
    57    45    44    2
    58    10    11    2
    59   149   150    1
    60   149   148    1
    61    18    21    1
    62    85    83    1
    63     8     3   am
    64    84    83    1
    65    22    21    1
    66    22    24    1
    67   146   145    1
    68    44    48   am
    69    44    43    1
    70   148   143   am
    71    21    23    1
    72   144   143    2
    73    83    80    1
    74    48    49    1
    75   143   142    1
    76   147   145    1
    77     3     4    2
    78     3     2    1
    79    42    43    1
    80    42    35   am
    81   139   138   ar
    82    43    46    1
    83    78    77    1
    84   145   142    1
    85    46    47    1
    86    80    79    1
    87    80    81    1
    88   140   138   ar
    89    34    35    1
    90    34    37    1
    91    34    33    1
    92    51    50    2
    93    49    50    1
    94   112   111   ar
    95   112   110   ar
    96   111   109   ar
    97   142   141    1
    98     5     2    1
    99     5     6    1
   100     5     7    1
   101    79    75   am
   102    77    74    1
   103   138   137    1
   104     2     1    1
   105    38    37    1
   106    38    39    1
   107    35    36    2
   108    41    39   ar
   109    50    52   am
   110    82    81    2
   111   141   135   am
   112    75    76    2
   113    75    74    1
   114    39    40   ar
   115   110   108   ar
   116   109   107   ar
   117    74    73    1
   118   135   136    2
   119   135   134    1
   120   137   134    1
   121    52    53    1
   122    60    59    1
   123    60    61    1
   124    73    71   am
   125   134   133    1
   126   108   107   ar
   127   123   121    1
   128   107   106    1
   129    55    54    2
   130    59    54   am
   131    54    53    1
   132    68    67    1
   133    89    88    2
   134    63    61   am
   135    63    64    1
   136    53    56    1
   137   100    99   ar
   138    67    64    1
   139   121   120    2
   140   121   122    1
   141    61    62    2
   142    90    91    1
   143    90    92    1
   144    90    87    1
   145    71    72    2
   146    71    70    1
   147   120   119    1
   148   101    99   ar
   149   106   103    1
   150    69    70    1
   151    69    65   am
   152   133   126   am
   153    64    65    1
   154    88    87    1
   155    88    93   am
   156    99    98    1
   157   127   126    2
   158    86    87    1
   159    65    66    2
   160   119   118    1
   161   102   103    1
   162   102    95   am
   163   126   125    1
   164    56    57    1
   165    56    58    1
   166    94    93    1
   167    94    95    1
   168    94    97    1
   169   103   104    1
   170    95    96    2
   171    97    98    1
   172   104   105    2
   173   132   130   am
   174   118   117    1
   175   129   128    1
   176   129   130    1
   177   125   128    1
   178   125   124    1
   179   117   114    1
   180   130   131    2
   181   114   115    1
   182   114   113    1
   183   115   116    2
