@<TRIPOS>MOLECULE
tmp/5cczA00.pdb
 123 117 0 0 0
SMALL
GASTEIGER

@<TRIPOS>ATOM
      1  N         27.1350   83.5930   61.0880 N.3   114  VAL114     -0.1231
      2  CA        28.0810   83.3890   59.9880 C.3   114  VAL114      0.1692
      3  C         27.7220   82.0710   59.2940 C.2   114  VAL114      0.2592
      4  O         27.4020   81.0940   59.9580 O.2   114  VAL114     -0.2718
      5  CB        29.5490   83.3450   60.4760 C.3   114  VAL114      0.0266
      6  CG1       30.4970   83.0420   59.3230 C.3   114  VAL114      0.0020
      7  CG2       29.9320   84.6590   61.1410 C.3   114  VAL114      0.0020
      8  N         27.7650   82.0470   57.9630 N.am  115  VAL115     -0.1966
      9  CA        27.2960   80.8900   57.1960 C.3   115  VAL115      0.1712
     10  C         28.0780   80.7230   55.8760 C.2   115  VAL115      0.2458
     11  O         28.4660   81.7070   55.2600 O.2   115  VAL115     -0.2730
     12  CB        25.7840   81.0420   56.9060 C.3   115  VAL115      0.0289
     13  CG1       25.5440   82.1560   55.9060 C.3   115  VAL115      0.0023
     14  CG2       25.2000   79.7600   56.4010 C.3   115  VAL115      0.0023
     15  N         28.3450   79.4750   55.4550 N.am  116  PRO116     -0.2727
     16  CA        29.0520   79.2860   54.1770 C.3   116  PRO116      0.1402
     17  C         28.2140   79.7850   52.9910 C.2   116  PRO116      0.2269
     18  O         27.0830   79.3310   52.8250 O.2   116  PRO116     -0.2865
     19  CB        29.2170   77.7650   54.0860 C.3   116  PRO116      0.0296
     20  CG        29.0340   77.2530   55.4880 C.3   116  PRO116      0.0237
     21  CD        28.1200   78.2060   56.1730 C.3   116  PRO116      0.0939
     22  N         21.4960   76.8660   53.7640 N.3   122  PHE122     -0.1241
     23  CA        22.0160   77.4710   54.9870 C.3   122  PHE122      0.1605
     24  C         21.9530   78.9880   54.8640 C.2   122  PHE122      0.2264
     25  O         21.4740   79.6850   55.7680 O.2   122  PHE122     -0.2867
     26  CB        23.4500   77.0250   55.2470 C.3   122  PHE122      0.0534
     27  CG        23.5750   75.6020   55.7060 C.ar  122  PHE122     -0.0203
     28  CD1       22.4460   74.8260   55.9380 C.ar  122  PHE122     -0.0042
     29  CD2       24.8310   75.0420   55.9190 C.ar  122  PHE122     -0.0042
     30  CE1       22.5640   73.5240   56.3590 C.ar  122  PHE122     -0.0003
     31  CE2       24.9580   73.7300   56.3450 C.ar  122  PHE122     -0.0003
     32  CZ        23.8230   72.9710   56.5660 C.ar  122  PHE122     -0.0000
     33  N         34.9550   79.3690   56.2660 N.3   271  SER271     -0.1217
     34  CA        33.9300   78.3230   56.3580 C.3   271  SER271      0.1889
     35  C         33.5670   77.6270   55.0280 C.2   271  SER271      0.2288
     36  O         32.7660   76.6920   55.0220 O.2   271  SER271     -0.2866
     37  CB        32.6690   78.8210   57.0860 C.3   271  SER271      0.2089
     38  OG        31.9400   79.7630   56.3220 O.3   271  SER271     -0.2183
     39  N         32.0740   88.1770   53.7390 N.3   325  ARG325     -0.1245
     40  CA        33.4570   88.0650   54.1860 C.3   325  ARG325      0.1563
     41  C         34.3330   87.6060   53.0350 C.2   325  ARG325      0.2260
     42  O         34.2650   86.4470   52.6230 O.2   325  ARG325     -0.2867
     43  CB        33.6010   87.1060   55.3850 C.3   325  ARG325      0.0307
     44  CG        35.0230   87.0190   55.9260 C.3   325  ARG325      0.0489
     45  CD        35.1420   86.4540   57.3520 C.3   325  ARG325      0.2205
     46  NE        34.9880   85.0020   57.4190 N.pl3 325  ARG325     -0.0865
     47  CZ        35.3550   84.2610   58.4650 C.cat 325  ARG325      0.5346
     48  NH1       35.9410   84.8290   59.5110 N.pl3 325  ARG325      0.1354
     49  NH2       35.1680   82.9490   58.4620 N.pl3 325  ARG325      0.1354
     50  N         40.6080   80.8420   67.7590 N.3   447  LEU447     -0.1245
     51  CA        41.4140   79.8830   67.0100 C.3   447  LEU447      0.1561
     52  C         42.4630   80.4920   66.0620 C.2   447  LEU447      0.2260
     53  O         43.6160   80.0810   66.1000 O.2   447  LEU447     -0.2867
     54  CB        40.5180   78.8890   66.2680 C.3   447  LEU447      0.0270
     55  CG        39.5680   78.0540   67.1380 C.3   447  LEU447      0.0019
     56  CD1       38.7710   77.1260   66.2700 C.3   447  LEU447      0.0001
     57  CD2       40.3310   77.2570   68.1880 C.3   447  LEU447      0.0001
     58  N         32.8780   83.1190   68.0940 N.3   501  MET501     -0.1245
     59  CA        31.8260   82.1580   67.8090 C.3   501  MET501      0.1570
     60  C         31.6270   81.1150   68.9180 C.2   501  MET501      0.2261
     61  O         32.5930   80.6320   69.5090 O.2   501  MET501     -0.2867
     62  CB        32.1400   81.4530   66.4780 C.3   501  MET501      0.0387
     63  CG        31.2120   80.3020   66.1350 C.3   501  MET501      0.0595
     64  SD        29.5790   80.8490   65.6090 S.3   501  MET501     -0.1393
     65  CE        29.9610   81.6200   64.0290 C.3   501  MET501      0.0692
     66  N         30.8720   77.4460   69.3690 N.3   503  THR503     -0.1218
     67  CA        31.0260   76.3470   68.4160 C.3   503  THR503      0.1862
     68  C         30.2770   75.0530   68.7500 C.2   503  THR503      0.2287
     69  O         30.1290   74.1930   67.8890 O.2   503  THR503     -0.2866
     70  CB        32.5140   76.0190   68.1630 C.3   503  THR503      0.1770
     71  OG1       33.1240   75.5420   69.3670 O.3   503  THR503     -0.2211
     72  CG2       33.2630   77.2560   67.6870 C.3   503  THR503      0.0375
     73  N         29.1770   86.0370   67.6390 N.3   527  TRP527     -0.1241
     74  CA        28.8700   85.0700   66.5920 C.3   527  TRP527      0.1605
     75  C         28.1850   83.8220   67.1070 C.2   527  TRP527      0.2264
     76  O         28.6030   83.2370   68.1120 O.2   527  TRP527     -0.2867
     77  CB        30.1340   84.6870   65.8190 C.3   527  TRP527      0.0550
     78  CG        30.5910   85.7500   64.8430 C.ar  527  TRP527      0.0003
     79  CD1       29.9390   86.8990   64.5300 C.ar  527  TRP527      0.0946
     80  CD2       31.7930   85.7390   64.0490 C.ar  527  TRP527      0.0152
     81  NE1       30.6580   87.6140   63.5920 N.ar  527  TRP527     -0.2442
     82  CE2       31.8040   86.9250   63.2880 C.ar  527  TRP527      0.0810
     83  CE3       32.8680   84.8570   63.9320 C.ar  527  TRP527      0.0012
     84  CZ2       32.8430   87.2480   62.4120 C.ar  527  TRP527      0.0191
     85  CZ3       33.9020   85.1750   63.0510 C.ar  527  TRP527      0.0001
     86  CH2       33.8780   86.3610   62.3060 C.ar  527  TRP527      0.0015
     87  N         26.3250   80.0420   65.5400 N.3   529  PRO529     -0.2116
     88  CA        26.5030   79.1160   64.4240 C.3   529  PRO529      0.1372
     89  C         25.1910   78.6230   63.7930 C.2   529  PRO529      0.2244
     90  O         25.2450   77.7880   62.8850 O.2   529  PRO529     -0.2868
     91  CB        27.1760   77.9370   65.1050 C.3   529  PRO529      0.0268
     92  CG        26.4740   77.8960   66.4260 C.3   529  PRO529      0.0207
     93  CD        26.3010   79.3300   66.8280 C.3   529  PRO529      0.0892
     94  N         32.4010   73.6970   56.7830 N.3   605  ALA605     -0.1245
     95  CA        31.6530   74.0140   57.9920 C.3   605  ALA605      0.1562
     96  C         30.5550   72.9800   58.2060 C.2   605  ALA605      0.2260
     97  O         29.7320   72.7630   57.3230 O.2   605  ALA605     -0.2867
     98  CB        31.0660   75.4020   57.9090 C.3   605  ALA605      0.0290
     99  N         31.0790   73.0890   65.4640 N.3   617  MET617     -0.1230
    100  CA        31.1030   73.6750   64.1400 C.3   617  MET617      0.1702
    101  C         32.1420   74.7930   64.0470 C.2   617  MET617      0.2592
    102  O         31.8170   75.9750   64.1590 O.2   617  MET617     -0.2718
    103  CB        29.7250   74.1980   63.7380 C.3   617  MET617      0.0401
    104  CG        29.6770   74.5940   62.2720 C.3   617  MET617      0.0596
    105  SD        28.0460   74.3810   61.5450 S.3   617  MET617     -0.1393
    106  CE        27.0360   75.1450   62.7930 C.3   617  MET617      0.0692
    107  N         33.3910   74.3950   63.8410 N.am  618  GLU618     -0.1966
    108  CA        34.4980   75.3260   63.7090 C.3   618  GLU618      0.1733
    109  C         34.7620   75.6150   62.2400 C.2   618  GLU618      0.2616
    110  O         34.2800   74.9000   61.3650 O.2   618  GLU618     -0.2715
    111  CB        35.7460   74.7130   64.3320 C.3   618  GLU618      0.0429
    112  CG        35.5980   74.4380   65.8200 C.3   618  GLU618      0.1163
    113  CD        36.6910   73.5430   66.3550 C.2   618  GLU618      0.3649
    114  OE1       37.1860   73.8020   67.4880 O.co2 618  GLU618     -0.2457
    115  OE2       37.0440   72.5770   65.6330 O.co2 618  GLU618     -0.2457
    116  N         35.5280   76.6590   61.9600 N.am  619  ASP619     -0.1971
    117  CA        36.0010   76.8460   60.5980 C.3   619  ASP619      0.1709
    118  C         37.4710   76.4680   60.4660 C.2   619  ASP619      0.2293
    119  O         38.0730   75.9480   61.4050 O.2   619  ASP619     -0.2864
    120  CB        35.6980   78.2480   60.0530 C.3   619  ASP619      0.1436
    121  CG        36.4930   79.3420   60.7280 C.2   619  ASP619      0.3671
    122  OD1       37.5200   79.0640   61.3760 O.co2 619  ASP619     -0.2456
    123  OD2       36.0920   80.5100   60.5990 O.co2 619  ASP619     -0.2456
@<TRIPOS>BOND
     1    42    41    2
     2    18    17    2
     3    17    16    1
     4    41    40    1
     5    39    40    1
     6    22    23    1
     7    19    16    1
     8    19    20    1
     9    16    15    1
    10    40    43    1
    11    24    23    1
    12    24    25    2
    13    23    26    1
    14    36    35    2
    15    35    34    1
    16    26    27    1
    17    11    10    2
    18    43    44    1
    19    15    10   am
    20    15    21    1
    21    20    21    1
    22    27    29   ar
    23    27    28   ar
    24    10     9    1
    25    13    12    1
    26    29    31   ar
    27    44    45    1
    28    28    30   ar
    29    33    34    1
    30    38    37    1
    31    31    32   ar
    32    34    37    1
    33    30    32   ar
    34    14    12    1
    35    94    95    1
    36    12     9    1
    37     9     8    1
    38    97    96    2
    39    45    46    1
    40    46    47    2
    41    98    95    1
    42     8     3   am
    43    95    96    1
    44    49    47    1
    45    47    48    1
    46     3     4    2
    47     3     2    1
    48     6     5    1
    49     2     5    1
    50     2     1    1
    51   120   117    1
    52   120   121    1
    53   118   117    1
    54   118   119    2
    55     5     7    1
    56   117   116    1
    57   123   121   ar
    58   121   122   ar
    59   110   109    2
    60   105   104    1
    61   105   106    1
    62   116   109   am
    63   109   108    1
    64   104   103    1
    65    86    84   ar
    66    86    85   ar
    67    84    82   ar
    68    90    89    2
    69    85    83   ar
    70    82    81   ar
    71    82    80   ar
    72    81    79   ar
    73   108   107    1
    74   108   111    1
    75   103   100    1
    76    89    88    1
    77   107   101   am
    78    83    80   ar
    79    65    64    1
    80   101   100    1
    81   101   102    2
    82    80    78   ar
    83   100    99    1
    84   111   112    1
    85    88    91    1
    86    88    87    1
    87    79    78   ar
    88    78    77    1
    89    91    92    1
    90    87    93    1
    91    64    63    1
    92   115   113   ar
    93    77    74    1
    94   112   113    1
    95    52    53    2
    96    52    51    1
    97    63    62    1
    98    54    51    1
    99    54    55    1
   100    56    55    1
   101   113   114   ar
   102    92    93    1
   103    62    59    1
   104    74    75    1
   105    74    73    1
   106    51    50    1
   107    75    76    2
   108    55    57    1
   109    72    70    1
   110    59    58    1
   111    59    60    1
   112    69    68    2
   113    70    67    1
   114    70    71    1
   115    67    68    1
   116    67    66    1
   117    60    61    2
