@<TRIPOS>MOLECULE
tmp/5cdhF01.pdb
 167 158 0 0 0
SMALL
GASTEIGER

@<TRIPOS>ATOM
      1  N         94.8250   75.6730   54.9690 N.3    75  TYR75      -0.1241
      2  CA        94.4300   74.7790   56.0740 C.3    75  TYR75       0.1605
      3  C         94.1410   73.3670   55.5650 C.2    75  TYR75       0.2264
      4  O         93.5300   73.2220   54.5140 O.2    75  TYR75      -0.2867
      5  CB        93.1760   75.3140   56.7960 C.3    75  TYR75       0.0534
      6  CG        93.4490   76.5690   57.5710 C.ar   75  TYR75      -0.0201
      7  CD1       93.3530   77.8230   56.9650 C.ar   75  TYR75      -0.0009
      8  CD2       93.8630   76.5000   58.8970 C.ar   75  TYR75      -0.0009
      9  CE1       93.6390   78.9860   57.6800 C.ar   75  TYR75       0.0417
     10  CE2       94.1650   77.6510   59.6190 C.ar   75  TYR75       0.0417
     11  CZ        94.0460   78.8870   59.0130 C.ar   75  TYR75       0.1957
     12  OH        94.3350   80.0140   59.7480 O.3    75  TYR75      -0.2866
     13  N         91.8290   71.5150   56.5310 N.3    77  ARG77      -0.1245
     14  CA        90.3830   71.2880   56.4270 C.3    77  ARG77       0.1563
     15  C         89.7690   71.8970   55.1550 C.2    77  ARG77       0.2260
     16  O         88.8400   71.3220   54.5760 O.2    77  ARG77      -0.2867
     17  CB        89.6500   71.8050   57.6730 C.3    77  ARG77       0.0307
     18  CG        89.8700   73.2690   58.0360 C.3    77  ARG77       0.0489
     19  CD        89.0500   73.6030   59.3140 C.3    77  ARG77       0.2205
     20  NE        89.3380   74.9270   59.8570 N.pl3  77  ARG77      -0.0865
     21  CZ        90.4180   75.2210   60.5790 C.cat  77  ARG77       0.5346
     22  NH1       91.3250   74.2910   60.8500 N.pl3  77  ARG77       0.1354
     23  NH2       90.6050   76.4540   61.0210 N.pl3  77  ARG77       0.1354
     24  N         98.2470   82.4620   54.7910 N.3   119  SER119     -0.1217
     25  CA        97.3940   83.5860   55.1600 C.3   119  SER119      0.1889
     26  C         98.1280   84.9200   55.0780 C.2   119  SER119      0.2288
     27  O         97.5310   85.9260   54.6940 O.2   119  SER119     -0.2866
     28  CB        96.8280   83.3820   56.5700 C.3   119  SER119      0.2089
     29  OG        96.0830   82.1780   56.6120 O.3   119  SER119     -0.2183
     30  N         92.2920   85.7470   51.8660 N.3   126  ILE126     -0.1231
     31  CA        92.4450   86.2800   53.2180 C.3   126  ILE126      0.1692
     32  C         93.1030   87.6490   53.2580 C.2   126  ILE126      0.2591
     33  O         94.1880   87.8660   52.6830 O.2   126  ILE126     -0.2718
     34  CB        93.2790   85.3400   54.1090 C.3   126  ILE126      0.0266
     35  CG1       92.5970   83.9830   54.2470 C.3   126  ILE126      0.0019
     36  CG2       93.5000   85.9700   55.5040 C.3   126  ILE126      0.0020
     37  CD1       91.3320   84.0380   55.0230 C.3   126  ILE126      0.0001
     38  N         92.4420   88.5750   53.9450 N.am  127  GLN127     -0.1979
     39  CA        93.0480   89.8500   54.3070 C.3   127  GLN127      0.1601
     40  C         93.6120   89.7760   55.7230 C.2   127  GLN127      0.2287
     41  O         92.8760   89.5440   56.6860 O.2   127  GLN127     -0.2864
     42  CB        92.0350   90.9970   54.2320 C.3   127  GLN127      0.0394
     43  CG        92.6250   92.3360   54.6830 C.3   127  GLN127      0.0908
     44  CD        93.7280   92.7910   53.7570 C.2   127  GLN127      0.2608
     45  OE1       93.5130   92.9980   52.5560 O.2   127  GLN127     -0.2717
     46  NE2       94.9200   92.9720   54.3130 N.am  127  GLN127     -0.0878
     47  N         92.1350   95.4580   64.4730 N.3   134  ARG134     -0.1245
     48  CA        90.9870   94.6130   64.7620 C.3   134  ARG134      0.1563
     49  C         90.3430   95.0730   66.0610 C.2   134  ARG134      0.2260
     50  O         89.1300   95.2450   66.1420 O.2   134  ARG134     -0.2867
     51  CB        91.3870   93.1370   64.8650 C.3   134  ARG134      0.0307
     52  CG        90.2350   92.2560   65.3030 C.3   134  ARG134      0.0489
     53  CD        90.6440   90.8030   65.4350 C.3   134  ARG134      0.2205
     54  NE        89.5500   89.9890   65.9610 N.pl3 134  ARG134     -0.0865
     55  CZ        88.7380   89.2410   65.2240 C.cat 134  ARG134      0.5346
     56  NH1       88.8860   89.1830   63.9020 N.pl3 134  ARG134      0.1354
     57  NH2       87.7760   88.5370   65.8180 N.pl3 134  ARG134      0.1354
     58  N         86.6510   96.6150   66.5880 N.3   138  MET138     -0.1245
     59  CA        85.7170   95.9110   67.4670 C.3   138  MET138      0.1570
     60  C         85.1740   96.8320   68.5540 C.2   138  MET138      0.2261
     61  O         83.9800   96.8300   68.8410 O.2   138  MET138     -0.2867
     62  CB        86.3860   94.6850   68.0900 C.3   138  MET138      0.0387
     63  CG        86.6330   93.5720   67.0880 C.3   138  MET138      0.0595
     64  SD        85.1010   93.0090   66.2850 S.3   138  MET138     -0.1393
     65  CE        85.7720   92.0700   64.9070 C.3   138  MET138      0.0692
     66  N         83.1230   82.6570   72.7260 N.3   177  GLU177     -0.1245
     67  CA        82.9850   82.1200   71.3780 C.3   177  GLU177      0.1567
     68  C         83.7580   80.8240   71.1620 C.2   177  GLU177      0.2260
     69  O         83.2000   79.8640   70.6420 O.2   177  GLU177     -0.2867
     70  CB        83.4230   83.1550   70.3400 C.3   177  GLU177      0.0388
     71  CG        82.5010   84.3470   70.3120 C.3   177  GLU177      0.1160
     72  CD        82.8870   85.3950   69.2820 C.2   177  GLU177      0.3649
     73  OE1       83.3360   85.0250   68.1810 O.co2 177  GLU177     -0.2457
     74  OE2       82.7290   86.5960   69.5980 O.co2 177  GLU177     -0.2457
     75  N         79.7430   85.8630   67.8760 N.3   213  PHE213     -0.1241
     76  CA        80.3680   85.6600   66.5730 C.3   213  PHE213      0.1605
     77  C         79.6410   86.4850   65.4800 C.2   213  PHE213      0.2264
     78  O         80.2660   87.2270   64.7110 O.2   213  PHE213     -0.2867
     79  CB        80.3590   84.1580   66.2540 C.3   213  PHE213      0.0534
     80  CG        80.9540   83.7890   64.9250 C.ar  213  PHE213     -0.0203
     81  CD1       81.9700   84.5360   64.3520 C.ar  213  PHE213     -0.0042
     82  CD2       80.4970   82.6610   64.2570 C.ar  213  PHE213     -0.0042
     83  CE1       82.5050   84.1770   63.1270 C.ar  213  PHE213     -0.0003
     84  CE2       81.0330   82.2910   63.0360 C.ar  213  PHE213     -0.0003
     85  CZ        82.0400   83.0510   62.4680 C.ar  213  PHE213     -0.0000
     86  N         80.0860   90.2150   65.9450 N.3   216  GLN216     -0.1231
     87  CA        81.3790   90.6750   65.4400 C.3   216  GLN216      0.1698
     88  C         81.4330   90.7380   63.9100 C.2   216  GLN216      0.2592
     89  O         82.2010   91.5180   63.3480 O.2   216  GLN216     -0.2718
     90  CB        82.5060   89.7780   65.9670 C.3   216  GLN216      0.0381
     91  CG        82.8140   90.0140   67.4400 C.3   216  GLN216      0.0905
     92  CD        84.1100   89.3410   67.8690 C.2   216  GLN216      0.2608
     93  OE1       84.1790   88.1230   67.9590 O.2   216  GLN216     -0.2717
     94  NE2       85.1440   90.1380   68.1210 N.am  216  GLN216     -0.0878
     95  N         80.6140   89.9400   63.2270 N.am  217  GLU217     -0.1979
     96  CA        80.6350   89.9530   61.7630 C.3   217  GLU217      0.1602
     97  C         79.6720   90.9800   61.1770 C.2   217  GLU217      0.2287
     98  O         79.6950   91.2520   59.9730 O.2   217  GLU217     -0.2864
     99  CB        80.2790   88.5790   61.2070 C.3   217  GLU217      0.0415
    100  CG        81.3130   87.5100   61.4590 C.3   217  GLU217      0.1163
    101  CD        82.5550   87.6950   60.6060 C.2   217  GLU217      0.3649
    102  OE1       82.5340   88.5380   59.6810 O.co2 217  GLU217     -0.2457
    103  OE2       83.5460   86.9900   60.8640 O.co2 217  GLU217     -0.2457
    104  N         83.5420   96.7210   59.2350 N.3   222  ILE222     -0.1245
    105  CA        84.4970   95.6510   59.5090 C.3   222  ILE222      0.1561
    106  C         84.6140   94.6910   58.3200 C.2   222  ILE222      0.2260
    107  O         85.7180   94.2450   57.9720 O.2   222  ILE222     -0.2867
    108  CB        84.1150   94.8770   60.8100 C.3   222  ILE222      0.0252
    109  CG1       84.3050   95.8010   62.0280 C.3   222  ILE222      0.0019
    110  CG2       84.9960   93.6520   60.9820 C.3   222  ILE222      0.0019
    111  CD1       83.9030   95.1890   63.3640 C.3   222  ILE222      0.0001
    112  N         87.9480   93.4100   56.0280 N.3   226  TYR226     -0.1227
    113  CA        88.3280   92.0100   55.8640 C.3   226  TYR226      0.1736
    114  C         88.0200   91.4210   54.4950 C.2   226  TYR226      0.2596
    115  O         88.6820   90.4590   54.0700 O.2   226  TYR226     -0.2718
    116  CB        87.6350   91.1560   56.9240 C.3   226  TYR226      0.0548
    117  CG        88.3370   91.2160   58.2590 C.ar  226  TYR226     -0.0200
    118  CD1       89.3730   90.3300   58.5640 C.ar  226  TYR226     -0.0009
    119  CD2       87.9650   92.1530   59.2140 C.ar  226  TYR226     -0.0009
    120  CE1       90.0240   90.3800   59.7920 C.ar  226  TYR226      0.0417
    121  CE2       88.6050   92.2090   60.4440 C.ar  226  TYR226      0.0417
    122  CZ        89.6330   91.3280   60.7250 C.ar  226  TYR226      0.1957
    123  OH        90.2590   91.3890   61.9510 O.3   226  TYR226     -0.2866
    124  N         87.0160   91.9730   53.8110 N.am  227  SER227     -0.1952
    125  CA        86.5180   91.3240   52.6060 C.3   227  SER227      0.1924
    126  C         86.6450   92.1220   51.3140 C.2   227  SER227      0.2314
    127  O         86.2990   91.6090   50.2510 O.2   227  SER227     -0.2863
    128  CB        85.0510   90.9360   52.7950 C.3   227  SER227      0.2116
    129  OG        84.9530   89.8380   53.6760 O.3   227  SER227     -0.2180
    130  N         85.9970   79.5940   54.8270 N.3   256  HIS256     -0.1226
    131  CA        85.5740   79.4660   56.2390 C.3   256  HIS256      0.1752
    132  C         84.2130   80.1240   56.5690 C.2   256  HIS256      0.2596
    133  O         83.6560   80.8670   55.7490 O.2   256  HIS256     -0.2718
    134  CB        86.6560   80.0750   57.1440 C.3   256  HIS256      0.0759
    135  CG        88.0280   79.5160   56.9070 C.ar  256  HIS256      0.0818
    136  ND1       88.6160   78.6140   57.7680 N.ar  256  HIS256     -0.2268
    137  CD2       88.9240   79.7160   55.9050 C.ar  256  HIS256      0.1154
    138  CE1       89.8170   78.2900   57.3140 C.ar  256  HIS256      0.1986
    139  NE2       90.0270   78.9440   56.1850 N.ar  256  HIS256     -0.2212
    140  N         83.6890   79.8940   57.7770 N.am  257  ASP257     -0.1960
    141  CA        82.4490   80.5820   58.1480 C.3   257  ASP257      0.1840
    142  C         82.6740   82.0990   58.2370 C.2   257  ASP257      0.2623
    143  O         81.7990   82.8860   57.8770 O.2   257  ASP257     -0.2715
    144  CB        81.8350   80.0140   59.4530 C.3   257  ASP257      0.1450
    145  CG        82.8180   79.9130   60.6070 C.2   257  ASP257      0.3671
    146  OD1       83.8960   80.5300   60.5810 O.co2 257  ASP257     -0.2456
    147  OD2       82.4810   79.2080   61.5800 O.co2 257  ASP257     -0.2456
    148  N         83.8570   82.5160   58.6680 N.am  258  THR258     -0.1937
    149  CA        84.1590   83.9370   58.7300 C.3   258  THR258      0.2028
    150  C         84.0980   84.5500   57.3450 C.2   258  THR258      0.2642
    151  O         83.5790   85.6490   57.1730 O.2   258  THR258     -0.2714
    152  CB        85.5480   84.1950   59.3110 C.3   258  THR258      0.1808
    153  OG1       86.4800   83.3030   58.6850 O.3   258  THR258     -0.2208
    154  CG2       85.5520   83.9580   60.8150 C.3   258  THR258      0.0379
    155  N         84.6510   83.8250   56.3730 N.am  259  THR259     -0.1950
    156  CA        84.6830   84.2510   54.9710 C.3   259  THR259      0.1897
    157  C         83.2730   84.5610   54.4480 C.2   259  THR259      0.2313
    158  O         83.0300   85.5920   53.8320 O.2   259  THR259     -0.2863
    159  CB        85.2910   83.1550   54.0730 C.3   259  THR259      0.1794
    160  OG1       86.4140   82.5370   54.7350 O.3   259  THR259     -0.2208
    161  CG2       85.6810   83.7290   52.6870 C.3   259  THR259      0.0378
    162  N         81.4310   87.4150   56.4790 N.3   262  SER262     -0.1217
    163  CA        81.9850   88.7310   56.1420 C.3   262  SER262      0.1889
    164  C         81.5120   89.2080   54.7490 C.2   262  SER262      0.2288
    165  O         81.1300   90.3770   54.5560 O.2   262  SER262     -0.2866
    166  CB        83.5210   88.6780   56.2230 C.3   262  SER262      0.2089
    167  OG        84.1020   89.9730   56.1040 O.3   262  SER262     -0.2183
@<TRIPOS>BOND
     1   127   126    2
     2   126   125    1
     3    30    31    1
     4    45    44    2
     5   125   128    1
     6   125   124    1
     7    33    32    2
     8   161   159    1
     9   128   129    1
    10    31    32    1
    11    31    34    1
    12    32    38   am
    13    44    46   am
    14    44    43    1
    15   124   114   am
    16   158   157    2
    17    38    39    1
    18   115   114    2
    19   159   160    1
    20   159   156    1
    21    34    35    1
    22    34    36    1
    23    42    39    1
    24    42    43    1
    25    35    37    1
    26    39    40    1
    27   157   156    1
    28   114   113    1
    29     4     3    2
    30   165   164    2
    31    16    15    2
    32    27    26    2
    33   164   163    1
    34    24    25    1
    35   130   131    1
    36     1     2    1
    37   156   155    1
    38    26    25    1
    39    15    14    1
    40    25    28    1
    41     3     2    1
    42    40    41    2
    43   133   132    2
    44   113   112    1
    45   113   116    1
    46   137   139   ar
    47   137   135   ar
    48     2     5    1
    49   167   166    1
    50   163   166    1
    51   163   162    1
    52   139   138   ar
    53   131   132    1
    54   131   134    1
    55   155   150   am
    56    14    13    1
    57    14    17    1
    58   132   140   am
    59    28    29    1
    60     5     6    1
    61   135   134    1
    62   135   136   ar
    63   116   117    1
    64     7     6   ar
    65     7     9   ar
    66   151   150    2
    67   138   136   ar
    68   150   149    1
    69     6     8   ar
    70    17    18    1
    71     9    11   ar
    72   140   141    1
    73   143   142    2
    74   107   106    2
    75    18    19    1
    76   141   142    1
    77   141   144    1
    78   142   148   am
    79   117   118   ar
    80   117   119   ar
    81   106   105    1
    82   118   120   ar
    83   148   149    1
    84   153   152    1
    85   149   152    1
    86     8    10   ar
    87    11    10   ar
    88    11    12    1
    89   119   121   ar
    90   104   105    1
    91   152   154    1
    92    19    20    1
    93   144   145    1
    94   105   108    1
    95   102   101   ar
    96   120   122   ar
    97    20    21    2
    98    98    97    2
    99   121   122   ar
   100    21    22    1
   101    21    23    1
   102   146   145   ar
   103   101   103   ar
   104   101   100    1
   105   145   147   ar
   106   122   123    1
   107   108   110    1
   108   108   109    1
   109    97    96    1
   110    99   100    1
   111    99    96    1
   112    96    95    1
   113   109   111    1
   114    85    84   ar
   115    85    83   ar
   116    84    82   ar
   117    83    81   ar
   118    95    88   am
   119    89    88    2
   120    56    55    1
   121    88    87    1
   122    82    80   ar
   123    81    80   ar
   124    47    48    1
   125    78    77    2
   126    48    51    1
   127    48    49    1
   128    51    52    1
   129    65    64    1
   130    80    79    1
   131    55    57    1
   132    55    54    2
   133    52    53    1
   134    53    54    1
   135    87    86    1
   136    87    90    1
   137    77    76    1
   138    90    91    1
   139    49    50    2
   140    79    76    1
   141    64    63    1
   142    76    75    1
   143    58    59    1
   144    63    62    1
   145    91    92    1
   146    59    62    1
   147    59    60    1
   148    92    93    2
   149    92    94   am
   150    73    72   ar
   151    60    61    2
   152    72    74   ar
   153    72    71    1
   154    71    70    1
   155    70    67    1
   156    69    68    2
   157    68    67    1
   158    67    66    1
