@<TRIPOS>MOLECULE
tmp/5cdhE02.pdb
 123 119 0 0 0
SMALL
GASTEIGER

@<TRIPOS>ATOM
      1  N        110.2910   65.0510   41.3510 N.3     9  ARG9       -0.1245
      2  CA       109.9170   65.7560   40.1310 C.3     9  ARG9        0.1563
      3  C        108.5290   65.2780   39.7140 C.2     9  ARG9        0.2260
      4  O        108.1490   64.1390   39.9940 O.2     9  ARG9       -0.2867
      5  CB       110.9150   65.5280   39.0020 C.3     9  ARG9        0.0307
      6  CG       110.5780   66.3210   37.7360 C.3     9  ARG9        0.0489
      7  CD       111.5660   66.0630   36.6010 C.3     9  ARG9        0.2205
      8  NE       111.1890   66.8230   35.4100 N.pl3   9  ARG9       -0.0865
      9  CZ       111.3230   66.3790   34.1650 C.cat   9  ARG9        0.5346
     10  NH1      111.8240   65.1750   33.9350 N.pl3   9  ARG9        0.1354
     11  NH2      110.9420   67.1400   33.1440 N.pl3   9  ARG9        0.1354
     12  N        117.7720   75.3190   24.6030 N.3   177  GLU177     -0.1231
     13  CA       117.2750   74.4550   25.6790 C.3   177  GLU177      0.1699
     14  C        115.7760   74.2580   25.6330 C.2   177  GLU177      0.2592
     15  O        115.2920   73.1390   25.8000 O.2   177  GLU177     -0.2718
     16  CB       117.6400   75.0080   27.0600 C.3   177  GLU177      0.0402
     17  CG       119.0880   74.8190   27.4300 C.3   177  GLU177      0.1161
     18  CD       119.4060   75.3340   28.8180 C.2   177  GLU177      0.3649
     19  OE1      118.7240   74.9310   29.7790 O.co2 177  GLU177     -0.2457
     20  OE2      120.3400   76.1440   28.9470 O.co2 177  GLU177     -0.2457
     21  N        115.0410   75.3500   25.4400 N.am  178  THR178     -0.1953
     22  CA       113.5860   75.2820   25.3450 C.3   178  THR178      0.1897
     23  C        113.1550   74.3820   24.1970 C.2   178  THR178      0.2313
     24  O        112.3020   73.5040   24.3510 O.2   178  THR178     -0.2863
     25  CB       112.9630   76.6740   25.1330 C.3   178  THR178      0.1794
     26  OG1      113.1390   77.4610   26.3140 O.3   178  THR178     -0.2208
     27  CG2      111.4750   76.5540   24.8360 C.3   178  THR178      0.0378
     28  N        114.8690   72.0870   22.5660 N.3   180  GLY180     -0.1210
     29  CA       115.2780   70.7130   22.7750 C.3   180  GLY180      0.1956
     30  C        114.3670   69.9800   23.7370 C.2   180  GLY180      0.2611
     31  O        114.0590   68.8120   23.5260 O.2   180  GLY180     -0.2717
     32  N        113.9360   70.6580   24.7970 N.am  181  HIS181     -0.1975
     33  CA       113.0740   70.0150   25.7750 C.3   181  HIS181      0.1656
     34  C        111.7120   69.7100   25.1430 C.2   181  HIS181      0.2291
     35  O        111.1380   68.6390   25.3590 O.2   181  HIS181     -0.2864
     36  CB       112.9160   70.8850   27.0270 C.3   181  HIS181      0.0771
     37  CG       112.6540   70.0910   28.2730 C.ar  181  HIS181      0.0820
     38  ND1      112.9860   70.5440   29.5330 N.ar  181  HIS181     -0.2267
     39  CD2      112.1050   68.8640   28.4480 C.ar  181  HIS181      0.1154
     40  CE1      112.6490   69.6340   30.4300 C.ar  181  HIS181      0.1986
     41  NE2      112.1180   68.6020   29.7970 N.ar  181  HIS181     -0.2212
     42  N        112.0800   66.8570   22.8390 N.3   184  TYR184     -0.1241
     43  CA       112.1910   65.6450   23.6340 C.3   184  TYR184      0.1605
     44  C        110.8070   65.1360   24.0390 C.2   184  TYR184      0.2264
     45  O        110.5150   63.9440   23.9070 O.2   184  TYR184     -0.2867
     46  CB       113.0510   65.8900   24.8710 C.3   184  TYR184      0.0534
     47  CG       113.1380   64.6910   25.7800 C.ar  184  TYR184     -0.0201
     48  CD1      113.8600   63.5660   25.4070 C.ar  184  TYR184     -0.0009
     49  CD2      112.4920   64.6840   27.0120 C.ar  184  TYR184     -0.0009
     50  CE1      113.9460   62.4630   26.2420 C.ar  184  TYR184      0.0417
     51  CE2      112.5690   63.5900   27.8550 C.ar  184  TYR184      0.0417
     52  CZ       113.2990   62.4890   27.4630 C.ar  184  TYR184      0.1957
     53  OH       113.3710   61.4120   28.3000 O.3   184  TYR184     -0.2866
     54  N        118.2070   68.0050   21.1040 N.3   206  ILE206     -0.1245
     55  CA       117.8600   67.4160   22.4030 C.3   206  ILE206      0.1561
     56  C        119.1210   67.1900   23.2650 C.2   206  ILE206      0.2260
     57  O        119.1550   67.5230   24.4510 O.2   206  ILE206     -0.2867
     58  CB       117.0990   66.0840   22.2180 C.3   206  ILE206      0.0252
     59  CG1      115.7290   66.3420   21.5720 C.3   206  ILE206      0.0019
     60  CG2      116.9580   65.3260   23.5540 C.3   206  ILE206      0.0019
     61  CD1      115.0760   65.1020   20.9850 C.3   206  ILE206      0.0001
     62  N        120.4920   70.6300   24.4350 N.3   209  ALA209     -0.1231
     63  CA       119.6280   71.1660   25.4820 C.3   209  ALA209      0.1694
     64  C        119.9350   70.5230   26.8210 C.2   209  ALA209      0.2591
     65  O        120.0580   71.2210   27.8330 O.2   209  ALA209     -0.2718
     66  CB       118.1690   70.9580   25.1270 C.3   209  ALA209      0.0304
     67  N        120.0660   69.1990   26.8320 N.am  210  GLU210     -0.1979
     68  CA       120.3760   68.4980   28.0740 C.3   210  GLU210      0.1602
     69  C        121.7200   68.9580   28.6050 C.2   210  GLU210      0.2287
     70  O        121.8690   69.2380   29.8040 O.2   210  GLU210     -0.2864
     71  CB       120.3910   66.9770   27.8810 C.3   210  GLU210      0.0415
     72  CG       121.1010   66.2400   29.0420 C.3   210  GLU210      0.1163
     73  CD       120.9960   64.7230   28.9580 C.2   210  GLU210      0.3649
     74  OE1      121.4690   64.1420   27.9590 O.co2 210  GLU210     -0.2457
     75  OE2      120.4390   64.1080   29.8960 O.co2 210  GLU210     -0.2457
     76  N        121.4380   72.5810   29.9280 N.3   213  PHE213     -0.1241
     77  CA       120.6970   72.5380   31.1890 C.3   213  PHE213      0.1605
     78  C        121.6290   72.1230   32.3270 C.2   213  PHE213      0.2264
     79  O        121.7200   72.8140   33.3470 O.2   213  PHE213     -0.2867
     80  CB       119.5010   71.5760   31.0510 C.3   213  PHE213      0.0534
     81  CG       118.6690   71.4000   32.3110 C.ar  213  PHE213     -0.0203
     82  CD1      118.6270   72.3700   33.3080 C.ar  213  PHE213     -0.0042
     83  CD2      117.9070   70.2500   32.4800 C.ar  213  PHE213     -0.0042
     84  CE1      117.8560   72.1850   34.4570 C.ar  213  PHE213     -0.0003
     85  CE2      117.1240   70.0640   33.6270 C.ar  213  PHE213     -0.0003
     86  CZ       117.1070   71.0320   34.6110 C.ar  213  PHE213     -0.0000
     87  N        112.5910   69.4530   37.7210 N.3   257  ASP257     -0.1239
     88  CA       113.9400   68.9480   37.4340 C.3   257  ASP257      0.1674
     89  C        114.9930   69.9360   37.9480 C.2   257  ASP257      0.2266
     90  O        116.0340   69.5190   38.4440 O.2   257  ASP257     -0.2867
     91  CB       114.1550   68.6350   35.9280 C.3   257  ASP257      0.1410
     92  CG       113.7560   69.7860   34.9930 C.2   257  ASP257      0.3668
     93  OD1      113.5760   70.9390   35.4480 O.co2 257  ASP257     -0.2456
     94  OD2      113.6370   69.5220   33.7750 O.co2 257  ASP257     -0.2456
     95  N        123.3300   64.1560   33.6820 N.3   273  LYS273     -0.1231
     96  CA       122.1510   63.7820   32.9100 C.3   273  LYS273      0.1693
     97  C        120.9050   64.4190   33.5210 C.2   273  LYS273      0.2593
     98  O        120.7740   64.4810   34.7440 O.2   273  LYS273     -0.2718
     99  CB       122.0150   62.2580   32.8440 C.3   273  LYS273      0.0285
    100  CG       123.1210   61.5780   32.0250 C.3   273  LYS273      0.0035
    101  CD       122.9910   61.9510   30.5570 C.3   273  LYS273      0.0206
    102  CE       124.3410   62.0410   29.8460 C.3   273  LYS273      0.1093
    103  NZ       124.8710   60.7200   29.3940 N.3   273  LYS273     -0.1314
    104  N        120.0110   64.9170   32.6690 N.am  274  SER274     -0.1939
    105  CA       118.7440   65.5150   33.1210 C.3   274  SER274      0.2040
    106  C        117.9130   64.5360   33.9380 C.2   274  SER274      0.2485
    107  O        117.7740   63.3790   33.5480 O.2   274  SER274     -0.2729
    108  CB       117.9030   65.9920   31.9190 C.3   274  SER274      0.2129
    109  OG       118.5800   66.9690   31.1490 O.3   274  SER274     -0.2179
    110  N        117.3270   65.0000   35.0590 N.am  275  PRO275     -0.2715
    111  CA       116.4380   64.1260   35.8480 C.3   275  PRO275      0.1521
    112  C        115.2280   63.6630   35.0500 C.2   275  PRO275      0.2440
    113  O        114.5250   64.5070   34.4970 O.2   275  PRO275     -0.2731
    114  CB       115.9890   65.0210   37.0130 C.3   275  PRO275      0.0310
    115  CG       117.0750   66.0710   37.1160 C.3   275  PRO275      0.0237
    116  CD       117.5050   66.3200   35.6900 C.3   275  PRO275      0.0939
    117  N        114.9870   62.3480   34.9950 N.am  276  PRO276     -0.2727
    118  CA       113.7830   61.8150   34.3400 C.3   276  PRO276      0.1402
    119  C        112.5170   62.1720   35.1140 C.2   276  PRO276      0.2269
    120  O        112.5880   62.6690   36.2530 O.2   276  PRO276     -0.2865
    121  CB       114.0160   60.3030   34.3530 C.3   276  PRO276      0.0296
    122  CG       114.9290   60.0770   35.5560 C.3   276  PRO276      0.0237
    123  CD       115.8350   61.2820   35.5720 C.3   276  PRO276      0.0939
@<TRIPOS>BOND
     1    61    59    1
     2    54    55    1
     3    59    58    1
     4    58    55    1
     5    58    60    1
     6    55    56    1
     7    28    29    1
     8    29    30    1
     9    42    43    1
    10    56    57    2
    11    31    30    2
    12    43    44    1
    13    43    46    1
    14    30    32   am
    15    45    44    2
    16    23    24    2
    17    23    22    1
    18    62    63    1
    19    12    13    1
    20    32    33    1
    21    27    25    1
    22    46    47    1
    23    66    63    1
    24    25    22    1
    25    25    26    1
    26    34    35    2
    27    34    33    1
    28    22    21    1
    29    48    47   ar
    30    48    50   ar
    31    21    14   am
    32    63    64    1
    33    14    13    1
    34    14    15    2
    35    13    16    1
    36    33    36    1
    37    47    49   ar
    38    50    52   ar
    39    64    67   am
    40    64    65    2
    41    67    68    1
    42    49    51   ar
    43    36    37    1
    44    16    17    1
    45    17    18    1
    46    52    51   ar
    47    52    53    1
    48    71    68    1
    49    71    72    1
    50    74    73   ar
    51    68    69    1
    52    37    39   ar
    53    37    38   ar
    54    39    41   ar
    55    69    70    2
    56    18    20   ar
    57    18    19   ar
    58    73    72    1
    59    73    75   ar
    60   103   102    1
    61    38    40   ar
    62    41    40   ar
    63   102   101    1
    64    76    77    1
    65   101   100    1
    66    80    77    1
    67    80    81    1
    68   109   108    1
    69    77    78    1
    70   108   105    1
    71   100    99    1
    72    81    83   ar
    73    81    82   ar
    74    78    79    2
    75    83    85   ar
    76   104   105    1
    77   104    97   am
    78    99    96    1
    79    96    97    1
    80    96    95    1
    81   105   106    1
    82    11     9    1
    83    82    84   ar
    84    97    98    2
    85   107   106    2
    86    85    86   ar
    87    94    92   ar
    88    10     9    1
    89   106   110   am
    90     9     8    2
    91   118   121    1
    92   118   117    1
    93   118   119    1
    94   121   122    1
    95    84    86   ar
    96   113   112    2
    97    92    93   ar
    98    92    91    1
    99   117   112   am
   100   117   123    1
   101   112   111    1
   102   110   116    1
   103   110   111    1
   104   119   120    2
   105     8     7    1
   106   122   123    1
   107   116   115    1
   108   111   114    1
   109    91    88    1
   110     7     6    1
   111   114   115    1
   112    88    87    1
   113    88    89    1
   114     6     5    1
   115    89    90    2
   116     5     2    1
   117     3     4    2
   118     3     2    1
   119     2     1    1
