@<TRIPOS>MOLECULE
tmp/5cdhD01.pdb
 111 103 0 0 0
SMALL
GASTEIGER

@<TRIPOS>ATOM
      1  N         76.9510  106.1920   11.5310 N.3   126  ILE126     -0.1245
      2  CA        75.8520  107.1400   11.3700 C.3   126  ILE126      0.1561
      3  C         74.6070  106.7580   12.1590 C.2   126  ILE126      0.2260
      4  O         74.0980  105.6340   12.0490 O.2   126  ILE126     -0.2867
      5  CB        75.4490  107.2950    9.8860 C.3   126  ILE126      0.0252
      6  CG1       76.6140  107.8410    9.0610 C.3   126  ILE126      0.0019
      7  CG2       74.2390  108.2230    9.7470 C.3   126  ILE126      0.0019
      8  CD1       77.2070  109.1070    9.6240 C.3   126  ILE126      0.0001
      9  N         64.8250  115.9810   14.7670 N.3   134  ARG134     -0.1245
     10  CA        65.8950  116.9510   14.5750 C.3   134  ARG134      0.1563
     11  C         65.3600  118.3500   14.8390 C.2   134  ARG134      0.2260
     12  O         65.9250  119.0990   15.6360 O.2   134  ARG134     -0.2867
     13  CB        66.4780  116.8610   13.1690 C.3   134  ARG134      0.0307
     14  CG        67.6670  117.8010   12.9280 C.3   134  ARG134      0.0489
     15  CD        68.1780  117.6610   11.5140 C.3   134  ARG134      0.2205
     16  NE        69.0460  118.7750   11.1390 N.pl3 134  ARG134     -0.0865
     17  CZ        70.3670  118.7800   11.2790 C.cat 134  ARG134      0.5346
     18  NH1       70.9900  117.7250   11.7930 N.pl3 134  ARG134      0.1354
     19  NH2       71.0660  119.8430   10.8980 N.pl3 134  ARG134      0.1354
     20  N         66.3940  120.9530   17.5960 N.3   138  MET138     -0.1245
     21  CA        66.9450  122.2530   17.2090 C.3   138  MET138      0.1570
     22  C         66.1310  123.4080   17.7750 C.2   138  MET138      0.2261
     23  O         66.6900  124.4130   18.2250 O.2   138  MET138     -0.2867
     24  CB        67.0320  122.3690   15.6830 C.3   138  MET138      0.0387
     25  CG        68.0650  121.4460   15.0520 C.3   138  MET138      0.0595
     26  SD        69.7570  121.7980   15.6240 S.3   138  MET138     -0.1393
     27  CE        70.6180  120.2940   15.1780 C.3   138  MET138      0.0692
     28  N         74.0060  128.1450    5.8820 N.3   177  GLU177     -0.1245
     29  CA        75.0970  127.1910    6.0460 C.3   177  GLU177      0.1567
     30  C         75.5180  126.5680    4.7140 C.2   177  GLU177      0.2260
     31  O         76.7070  126.5360    4.3960 O.2   177  GLU177     -0.2867
     32  CB        74.7100  126.1080    7.0550 C.3   177  GLU177      0.0388
     33  CG        74.5880  126.6540    8.4750 C.3   177  GLU177      0.1160
     34  CD        74.1870  125.6010    9.4990 C.2   177  GLU177      0.3649
     35  OE1       74.6800  124.4580    9.4150 O.co2 177  GLU177     -0.2457
     36  OE2       73.3730  125.9250   10.3910 O.co2 177  GLU177     -0.2457
     37  N         76.6260  126.5130   11.8710 N.3   213  PHE213     -0.1241
     38  CA        76.9620  125.0870   11.8680 C.3   213  PHE213      0.1605
     39  C         77.4500  124.6340   13.2580 C.2   213  PHE213      0.2264
     40  O         76.9480  123.6490   13.8090 O.2   213  PHE213     -0.2867
     41  CB        78.0210  124.8100   10.7810 C.3   213  PHE213      0.0534
     42  CG        78.5280  123.3860   10.7400 C.ar  213  PHE213     -0.0203
     43  CD1       77.7400  122.3200   11.1760 C.ar  213  PHE213     -0.0042
     44  CD2       79.7910  123.1130   10.2350 C.ar  213  PHE213     -0.0042
     45  CE1       78.2170  121.0140   11.1390 C.ar  213  PHE213     -0.0003
     46  CE2       80.2650  121.8090   10.1810 C.ar  213  PHE213     -0.0003
     47  CZ        79.4710  120.7560   10.6460 C.ar  213  PHE213     -0.0000
     48  N         74.8260  124.5300   15.9560 N.3   216  GLN216     -0.1231
     49  CA        73.9280  123.3810   15.8630 C.3   216  GLN216      0.1698
     50  C         74.5800  122.1120   16.4030 C.2   216  GLN216      0.2592
     51  O         73.8870  121.1640   16.7800 O.2   216  GLN216     -0.2718
     52  CB        73.4620  123.1640   14.4190 C.3   216  GLN216      0.0381
     53  CG        72.3780  124.1560   13.9720 C.3   216  GLN216      0.0905
     54  CD        71.6850  123.7410   12.6730 C.2   216  GLN216      0.2608
     55  OE1       72.2880  123.7650   11.5970 O.2   216  GLN216     -0.2717
     56  NE2       70.4110  123.3580   12.7750 N.am  216  GLN216     -0.0878
     57  N         75.9100  122.1080   16.4450 N.am  217  GLU217     -0.1979
     58  CA        76.6650  120.9800   16.9690 C.3   217  GLU217      0.1602
     59  C         76.9690  121.1590   18.4500 C.2   217  GLU217      0.2287
     60  O         77.4010  120.2220   19.1160 O.2   217  GLU217     -0.2864
     61  CB        77.9850  120.8050   16.2030 C.3   217  GLU217      0.0415
     62  CG        77.8290  120.4070   14.7520 C.3   217  GLU217      0.1163
     63  CD        77.3310  118.9840   14.5840 C.2   217  GLU217      0.3649
     64  OE1       77.2200  118.2530   15.5960 O.co2 217  GLU217     -0.2457
     65  OE2       77.0630  118.5980   13.4280 O.co2 217  GLU217     -0.2457
     66  N         71.9990  117.1730   21.8950 N.3   222  ILE222     -0.1245
     67  CA        71.8970  116.7980   20.4950 C.3   222  ILE222      0.1561
     68  C         72.9960  115.7910   20.1430 C.2   222  ILE222      0.2260
     69  O         72.7480  114.7890   19.4600 O.2   222  ILE222     -0.2867
     70  CB        71.9700  118.0480   19.5900 C.3   222  ILE222      0.0252
     71  CG1       70.6430  118.8200   19.6890 C.3   222  ILE222      0.0019
     72  CG2       72.2650  117.6550   18.1520 C.3   222  ILE222      0.0019
     73  CD1       70.6430  120.1720   19.0020 C.3   222  ILE222      0.0001
     74  N         72.9740  111.9330   18.3340 N.3   226  TYR226     -0.1227
     75  CA        73.6570  111.5910   17.0830 C.3   226  TYR226      0.1736
     76  C         74.8810  110.7040   17.2690 C.2   226  TYR226      0.2596
     77  O         75.2610  109.9560   16.3540 O.2   226  TYR226     -0.2718
     78  CB        74.0700  112.8680   16.3360 C.3   226  TYR226      0.0548
     79  CG        72.9310  113.4980   15.5670 C.ar  226  TYR226     -0.0200
     80  CD1       72.6570  113.1190   14.2580 C.ar  226  TYR226     -0.0009
     81  CD2       72.1150  114.4520   16.1550 C.ar  226  TYR226     -0.0009
     82  CE1       71.6080  113.6920   13.5480 C.ar  226  TYR226      0.0417
     83  CE2       71.0620  115.0270   15.4580 C.ar  226  TYR226      0.0417
     84  CZ        70.8120  114.6420   14.1580 C.ar  226  TYR226      0.1957
     85  OH        69.7640  115.2120   13.4660 O.3   226  TYR226     -0.2866
     86  N         75.5090  110.7820   18.4360 N.am  227  SER227     -0.1952
     87  CA        76.8190  110.1470   18.5850 C.3   227  SER227      0.1924
     88  C         76.8810  109.0400   19.6290 C.2   227  SER227      0.2314
     89  O         77.9270  108.4150   19.7760 O.2   227  SER227     -0.2863
     90  CB        77.8660  111.2070   18.9090 C.3   227  SER227      0.2116
     91  OG        78.0680  112.0450   17.7850 O.3   227  SER227     -0.2180
     92  N         80.7530  116.8140   10.6040 N.3   258  THR258     -0.1203
     93  CA        79.6640  116.6170   11.5570 C.3   258  THR258      0.1994
     94  C         80.0110  115.5020   12.5320 C.2   258  THR258      0.2618
     95  O         79.7180  115.5950   13.7160 O.2   258  THR258     -0.2717
     96  CB        78.3360  116.2470   10.8620 C.3   258  THR258      0.1784
     97  OG1       78.5460  115.1030   10.0190 O.3   258  THR258     -0.2211
     98  CG2       77.8250  117.4090   10.0170 C.3   258  THR258      0.0376
     99  N         80.6080  114.4340   12.0110 N.am  259  THR259     -0.1952
    100  CA        81.0180  113.3080   12.8400 C.3   259  THR259      0.1897
    101  C         81.9580  113.7670   13.9500 C.2   259  THR259      0.2313
    102  O         81.7450  113.4640   15.1230 O.2   259  THR259     -0.2863
    103  CB        81.7160  112.2250   12.0030 C.3   259  THR259      0.1794
    104  OG1       80.9630  112.0060   10.7980 O.3   259  THR259     -0.2208
    105  CG2       81.8490  110.9120   12.8170 C.3   259  THR259      0.0378
    106  N         80.3830  116.4590   16.4440 N.3   262  SER262     -0.1217
    107  CA        79.4050  115.8650   17.3400 C.3   262  SER262      0.1889
    108  C         80.0830  115.0400   18.4470 C.2   262  SER262      0.2288
    109  O         79.6470  115.0380   19.5980 O.2   262  SER262     -0.2866
    110  CB        78.4250  114.9970   16.5330 C.3   262  SER262      0.2089
    111  OG        77.3870  114.4730   17.3440 O.3   262  SER262     -0.2183
@<TRIPOS>BOND
     1    31    30    2
     2    30    29    1
     3    28    29    1
     4    29    32    1
     5    32    33    1
     6    33    34    1
     7     6     8    1
     8     6     5    1
     9    35    34   ar
    10    34    36   ar
    11     7     5    1
    12     5     2    1
    13    98    96    1
    14    97    96    1
    15    46    44   ar
    16    46    47   ar
    17    44    42   ar
    18    92    93    1
    19    47    45   ar
    20    42    41    1
    21    42    43   ar
    22    41    38    1
    23   104   103    1
    24    96    93    1
    25    19    17    1
    26    16    17    2
    27    16    15    1
    28    45    43   ar
    29    17    18    1
    30     2     1    1
    31     2     3    1
    32    15    14    1
    33    93    94    1
    34    55    54    2
    35    38    37    1
    36    38    39    1
    37   103   105    1
    38   103   100    1
    39    99    94   am
    40    99   100    1
    41     4     3    2
    42    94    95    2
    43    54    56   am
    44    54    53    1
    45   100   101    1
    46    14    13    1
    47    13    10    1
    48    39    40    2
    49    65    63   ar
    50    85    84    1
    51    82    84   ar
    52    82    80   ar
    53   101   102    2
    54    53    52    1
    55    84    83   ar
    56    80    79   ar
    57    52    49    1
    58    10     9    1
    59    10    11    1
    60    63    62    1
    61    63    64   ar
    62    62    61    1
    63    11    12    2
    64    25    26    1
    65    25    24    1
    66    27    26    1
    67    83    81   ar
    68    79    81   ar
    69    79    78    1
    70    24    21    1
    71    49    48    1
    72    49    50    1
    73    61    58    1
    74    78    75    1
    75    77    76    2
    76    50    57   am
    77    50    51    2
    78   106   107    1
    79    57    58    1
    80   110   107    1
    81   110   111    1
    82    58    59    1
    83    75    76    1
    84    75    74    1
    85    21    20    1
    86    21    22    1
    87    76    86   am
    88   107   108    1
    89    22    23    2
    90    91    90    1
    91    72    70    1
    92    86    87    1
    93   108   109    2
    94    59    60    2
    95    87    90    1
    96    87    88    1
    97    73    71    1
    98    69    68    2
    99    70    71    1
   100    70    67    1
   101    88    89    2
   102    68    67    1
   103    67    66    1
