@<TRIPOS>MOLECULE
tmp/5cdhB02.pdb
 138 130 0 0 0
SMALL
GASTEIGER

@<TRIPOS>ATOM
      1  N        103.5480    8.1120   32.7060 N.3   125  ILE125     -0.1231
      2  CA       103.5110    6.6890   32.3510 C.3   125  ILE125      0.1692
      3  C        103.7800    5.7590   33.5370 C.2   125  ILE125      0.2592
      4  O        102.9390    4.9210   33.8890 O.2   125  ILE125     -0.2718
      5  CB       104.5290    6.3580   31.2170 C.3   125  ILE125      0.0266
      6  CG1      104.2430    7.2160   29.9820 C.3   125  ILE125      0.0019
      7  CG2      104.4740    4.8710   30.8470 C.3   125  ILE125      0.0020
      8  CD1      105.1400    6.9150   28.7750 C.3   125  ILE125      0.0001
      9  N        104.9520    5.9070   34.1490 N.am  126  ILE126     -0.1966
     10  CA       105.4170    4.9370   35.1310 C.3   126  ILE126      0.1727
     11  C        104.9690    5.2820   36.5390 C.2   126  ILE126      0.2616
     12  O        105.1700    6.4060   37.0020 O.2   126  ILE126     -0.2715
     13  CB       106.9650    4.8310   35.1360 C.3   126  ILE126      0.0290
     14  CG1      107.4920    4.4750   33.7500 C.3   126  ILE126      0.0022
     15  CG2      107.4400    3.7950   36.1640 C.3   126  ILE126      0.0023
     16  CD1      107.1240    3.0930   33.3150 C.3   126  ILE126      0.0001
     17  N        104.3770    4.3020   37.2150 N.am  127  GLN127     -0.1977
     18  CA       104.0870    4.3860   38.6420 C.3   127  GLN127      0.1601
     19  C        105.1720    3.6440   39.4320 C.2   127  GLN127      0.2287
     20  O        105.3900    2.4400   39.2270 O.2   127  GLN127     -0.2864
     21  CB       102.7030    3.7940   38.9500 C.3   127  GLN127      0.0394
     22  CG       102.3090    3.8490   40.4230 C.3   127  GLN127      0.0908
     23  CD       102.1690    5.2750   40.9300 C.2   127  GLN127      0.2608
     24  OE1      101.3230    6.0270   40.4540 O.2   127  GLN127     -0.2717
     25  NE2      103.0060    5.6550   41.8940 N.am  127  GLN127     -0.0878
     26  N        104.9770   -3.8980   46.7580 N.3   134  ARG134     -0.1245
     27  CA       104.8760   -4.8140   45.6210 C.3   134  ARG134      0.1563
     28  C        104.7900   -6.2520   46.1220 C.2   134  ARG134      0.2260
     29  O        103.9410   -7.0270   45.6780 O.2   134  ARG134     -0.2867
     30  CB       106.0590   -4.6670   44.6580 C.3   134  ARG134      0.0307
     31  CG       106.0560   -5.7580   43.5820 C.3   134  ARG134      0.0489
     32  CD       107.3490   -5.8000   42.7720 C.3   134  ARG134      0.2205
     33  NE       107.3450   -6.9140   41.8140 N.pl3 134  ARG134     -0.0865
     34  CZ       107.0780   -6.7840   40.5190 C.cat 134  ARG134      0.5346
     35  NH1      106.8030   -5.5890   40.0130 N.pl3 134  ARG134      0.1354
     36  NH2      107.0960   -7.8470   39.7230 N.pl3 134  ARG134      0.1354
     37  N        101.7510   -9.0270   45.6320 N.3   138  MET138     -0.1245
     38  CA       101.9820  -10.3110   44.9640 C.3   138  MET138      0.1570
     39  C        101.5900  -11.4820   45.8520 C.2   138  MET138      0.2261
     40  O        100.9350  -12.4300   45.4000 O.2   138  MET138     -0.2867
     41  CB       103.4450  -10.4450   44.5470 C.3   138  MET138      0.0387
     42  CG       103.8610   -9.4540   43.4960 C.3   138  MET138      0.0595
     43  SD       103.0260   -9.7970   41.9350 S.3   138  MET138     -0.1393
     44  CE       103.3310   -8.2630   41.0640 C.3   138  MET138      0.0692
     45  N        111.6530  -15.7920   35.4520 N.3   177  GLU177     -0.1245
     46  CA       111.1820  -14.8700   34.4260 C.3   177  GLU177      0.1567
     47  C        112.3160  -14.1910   33.7000 C.2   177  GLU177      0.2260
     48  O        112.3540  -14.1910   32.4770 O.2   177  GLU177     -0.2867
     49  CB       110.2510  -13.8160   35.0390 C.3   177  GLU177      0.0388
     50  CG       108.9040  -14.3910   35.4420 C.3   177  GLU177      0.1160
     51  CD       107.9680  -13.3680   36.0570 C.2   177  GLU177      0.3649
     52  OE1      107.8870  -12.2280   35.5510 O.co2 177  GLU177     -0.2457
     53  OE2      107.3100  -13.7200   37.0560 O.co2 177  GLU177     -0.2457
     54  N        113.4100  -14.9170   29.7690 N.3   181  HIS181     -0.1241
     55  CA       113.3240  -13.8260   28.8080 C.3   181  HIS181      0.1621
     56  C        114.6330  -13.7080   28.0480 C.2   181  HIS181      0.2264
     57  O        114.6440  -13.5300   26.8320 O.2   181  HIS181     -0.2867
     58  CB       112.9650  -12.5050   29.5130 C.3   181  HIS181      0.0745
     59  CG       111.5700  -12.4790   30.0650 C.ar  181  HIS181      0.0817
     60  ND1      111.1950  -11.6730   31.1210 N.ar  181  HIS181     -0.2268
     61  CD2      110.4580  -13.1730   29.7090 C.ar  181  HIS181      0.1154
     62  CE1      109.9140  -11.8680   31.3900 C.ar  181  HIS181      0.1986
     63  NE2      109.4430  -12.7750   30.5480 N.ar  181  HIS181     -0.2212
     64  N        105.0720  -14.3020   34.2930 N.3   213  PHE213     -0.1241
     65  CA       104.9560  -12.8890   33.9190 C.3   213  PHE213      0.1605
     66  C        103.4800  -12.4990   33.7970 C.2   213  PHE213      0.2264
     67  O        103.0240  -11.5550   34.4430 O.2   213  PHE213     -0.2867
     68  CB       105.7150  -12.6360   32.5980 C.3   213  PHE213      0.0534
     69  CG       105.6450  -11.2110   32.0870 C.ar  213  PHE213     -0.0203
     70  CD1      105.4020  -10.1440   32.9370 C.ar  213  PHE213     -0.0042
     71  CD2      105.8270  -10.9500   30.7360 C.ar  213  PHE213     -0.0042
     72  CE1      105.3350   -8.8430   32.4510 C.ar  213  PHE213     -0.0003
     73  CE2      105.7640   -9.6540   30.2370 C.ar  213  PHE213     -0.0003
     74  CZ       105.5210   -8.5980   31.0970 C.ar  213  PHE213     -0.0000
     75  N        101.5560  -12.5910   37.0290 N.3   216  GLN216     -0.1231
     76  CA       101.7970  -11.4070   37.8580 C.3   216  GLN216      0.1698
     77  C        101.0470  -10.1700   37.3480 C.2   216  GLN216      0.2592
     78  O        100.7230   -9.2720   38.1320 O.2   216  GLN216     -0.2718
     79  CB       103.2990  -11.0950   37.9510 C.3   216  GLN216      0.0381
     80  CG       104.0640  -12.0460   38.8560 C.3   216  GLN216      0.0905
     81  CD       105.4510  -11.5320   39.1920 C.2   216  GLN216      0.2608
     82  OE1      106.3300  -11.4840   38.3310 O.2   216  GLN216     -0.2717
     83  NE2      105.6490  -11.1320   40.4460 N.am  216  GLN216     -0.0878
     84  N        100.7900  -10.1160   36.0400 N.am  217  GLU217     -0.1979
     85  CA       100.0660   -8.9950   35.4360 C.3   217  GLU217      0.1602
     86  C         98.5420   -9.1660   35.5130 C.2   217  GLU217      0.2287
     87  O         97.7850   -8.2110   35.3540 O.2   217  GLU217     -0.2864
     88  CB       100.4780   -8.8250   33.9760 C.3   217  GLU217      0.0415
     89  CG       101.9140   -8.3940   33.7850 C.3   217  GLU217      0.1163
     90  CD       102.1500   -6.9440   34.1630 C.2   217  GLU217      0.3649
     91  OE1      101.2020   -6.2690   34.6090 O.co2 217  GLU217     -0.2457
     92  OE2      103.2850   -6.4720   33.9940 O.co2 217  GLU217     -0.2457
     93  N         96.2900   -5.3130   41.1520 N.3   222  ILE222     -0.1245
     94  CA        97.6740   -4.9130   40.8850 C.3   222  ILE222      0.1561
     95  C         97.7200   -3.9300   39.7080 C.2   222  ILE222      0.2260
     96  O         98.4020   -2.8980   39.7720 O.2   222  ILE222     -0.2867
     97  CB        98.5820   -6.1390   40.6110 C.3   222  ILE222      0.0252
     98  CG1       98.7460   -6.9510   41.9020 C.3   222  ILE222      0.0019
     99  CG2       99.9640   -5.6970   40.1070 C.3   222  ILE222      0.0019
    100  CD1       99.5140   -8.2380   41.7420 C.3   222  ILE222      0.0001
    101  N         99.3870   -0.0990   39.4820 N.3   226  TYR226     -0.1227
    102  CA       100.4550    0.2430   38.5330 C.3   226  TYR226      0.1736
    103  C        100.0230    1.0930   37.3400 C.2   226  TYR226      0.2596
    104  O        100.8660    1.7470   36.7120 O.2   226  TYR226     -0.2718
    105  CB       101.1210   -1.0310   38.0030 C.3   226  TYR226      0.0548
    106  CG       102.1780   -1.6090   38.9220 C.ar  226  TYR226     -0.0200
    107  CD1      103.4970   -1.1500   38.8810 C.ar  226  TYR226     -0.0009
    108  CD2      101.8580   -2.6090   39.8320 C.ar  226  TYR226     -0.0009
    109  CE1      104.4760   -1.6950   39.7160 C.ar  226  TYR226      0.0417
    110  CE2      102.8140   -3.1440   40.6770 C.ar  226  TYR226      0.0417
    111  CZ       104.1230   -2.6880   40.6180 C.ar  226  TYR226      0.1957
    112  OH       105.0740   -3.2390   41.4600 O.3   226  TYR226     -0.2866
    113  N         98.7330    1.0900   37.0100 N.am  227  SER227     -0.1952
    114  CA        98.3080    1.7060   35.7480 C.3   227  SER227      0.1924
    115  C         97.2970    2.8250   35.9440 C.2   227  SER227      0.2314
    116  O         96.8760    3.4700   34.9740 O.2   227  SER227     -0.2863
    117  CB        97.7230    0.6490   34.8050 C.3   227  SER227      0.2116
    118  OG        98.7470   -0.1620   34.2560 O.3   227  SER227     -0.2180
    119  N        105.2410   -4.6330   29.9890 N.3   256  THR256     -0.1203
    120  CA       104.5590   -4.4740   31.2750 C.3   256  THR256      0.1994
    121  C        103.4810   -3.4170   31.1830 C.2   256  THR256      0.2618
    122  O        102.4010   -3.5490   31.7650 O.2   256  THR256     -0.2717
    123  CB       105.5150   -4.0310   32.3830 C.3   256  THR256      0.1784
    124  OG1      106.3430   -2.9880   31.8530 O.3   256  THR256     -0.2211
    125  CG2      106.3670   -5.1960   32.8590 C.3   256  THR256      0.0376
    126  N        103.8190   -2.3320   30.4900 N.am  257  THR257     -0.1952
    127  CA       102.8980   -1.2290   30.2990 C.3   257  THR257      0.1897
    128  C        101.5990   -1.7130   29.6590 C.2   257  THR257      0.2313
    129  O        100.5040   -1.4370   30.1610 O.2   257  THR257     -0.2863
    130  CB       103.5200   -0.1370   29.4260 C.3   257  THR257      0.1794
    131  OG1      104.8810    0.0710   29.8240 O.3   257  THR257     -0.2208
    132  CG2      102.7540    1.1620   29.5640 C.3   257  THR257      0.0378
    133  N         99.5880   -4.4780   31.7980 N.3   260  SER260     -0.1217
    134  CA        98.9520   -3.8790   32.9670 C.3   260  SER260      0.1889
    135  C         97.7130   -3.0690   32.5590 C.2   260  SER260      0.2288
    136  O         96.6860   -3.1040   33.2420 O.2   260  SER260     -0.2866
    137  CB        99.9590   -3.0000   33.7250 C.3   260  SER260      0.2089
    138  OG        99.3860   -2.5000   34.9230 O.3   260  SER260     -0.2183
@<TRIPOS>BOND
     1    57    56    2
     2    56    55    1
     3     8     6    1
     4    55    58    1
     5    55    54    1
     6   130   132    1
     7   130   131    1
     8   130   127    1
     9    58    59    1
    10   128   129    2
    11   128   127    1
    12    61    59   ar
    13    61    63   ar
    14     6     5    1
    15   119   120    1
    16    59    60   ar
    17    73    71   ar
    18    73    74   ar
    19   127   126    1
    20   126   121   am
    21    63    62   ar
    22    71    69   ar
    23     7     5    1
    24    74    72   ar
    25    60    62   ar
    26   121   120    1
    27   121   122    2
    28     5     2    1
    29   120   123    1
    30   133   134    1
    31   124   123    1
    32    69    68    1
    33    69    70   ar
    34     2     1    1
    35     2     3    1
    36   123   125    1
    37    72    70   ar
    38    48    47    2
    39   135   134    1
    40   135   136    2
    41    68    65    1
    42   134   137    1
    43    16    14    1
    44     3     4    2
    45     3     9   am
    46    47    46    1
    47   137   138    1
    48    14    13    1
    49    89    88    1
    50    89    90    1
    51    66    65    1
    52    66    67    2
    53    65    64    1
    54    88    85    1
    55    92    90   ar
    56     9    10    1
    57    90    91   ar
    58   118   117    1
    59    46    49    1
    60    46    45    1
    61   117   114    1
    62   116   115    2
    63    49    50    1
    64    10    13    1
    65    10    11    1
    66    13    15    1
    67    87    86    2
    68    85    86    1
    69    85    84    1
    70    50    51    1
    71    52    51   ar
    72   114   115    1
    73   114   113    1
    74    84    77   am
    75    51    53   ar
    76    11    12    2
    77    11    17   am
    78   104   103    2
    79   113   103   am
    80    75    76    1
    81    17    18    1
    82   103   102    1
    83    77    76    1
    84    77    78    2
    85    76    79    1
    86    79    80    1
    87   105   102    1
    88   105   106    1
    89    82    81    2
    90   102   101    1
    91    18    21    1
    92    18    19    1
    93    80    81    1
    94   107   106   ar
    95   107   109   ar
    96   106   108   ar
    97    21    22    1
    98    81    83   am
    99    20    19    2
   100    95    96    2
   101    95    94    1
   102   109   111   ar
   103    36    34    1
   104   108   110   ar
   105    35    34    1
   106    99    97    1
   107    22    23    1
   108    24    23    2
   109    34    33    2
   110    97    94    1
   111    97    98    1
   112   111   110   ar
   113   111   112    1
   114    94    93    1
   115    23    25   am
   116    44    43    1
   117   100    98    1
   118    33    32    1
   119    43    42    1
   120    32    31    1
   121    42    41    1
   122    31    30    1
   123    41    38    1
   124    30    27    1
   125    38    37    1
   126    38    39    1
   127    40    39    2
   128    27    28    1
   129    27    26    1
   130    29    28    2
