@<TRIPOS>MOLECULE
tmp/5cdhA02.pdb
 141 136 0 0 0
SMALL
GASTEIGER

@<TRIPOS>ATOM
      1  N        123.6590   25.6120   23.2250 N.3     9  ARG9       -0.1245
      2  CA       122.4060   26.3380   23.1700 C.3     9  ARG9        0.1563
      3  C        121.6540   25.8360   21.9440 C.2     9  ARG9        0.2260
      4  O        122.2760   25.4440   20.9510 O.2     9  ARG9       -0.2867
      5  CB       122.6380   27.8590   23.1020 C.3     9  ARG9        0.0307
      6  CG       121.3430   28.6650   23.0130 C.3     9  ARG9        0.0489
      7  CD       121.5210   30.1810   22.9440 C.3     9  ARG9        0.2205
      8  NE       120.2010   30.8270   22.8830 N.pl3   9  ARG9       -0.0865
      9  CZ       119.9220   31.9220   22.1800 C.cat   9  ARG9        0.5346
     10  NH1      120.8760   32.5210   21.4780 N.pl3   9  ARG9        0.1354
     11  NH2      118.6820   32.4230   22.1840 N.pl3   9  ARG9        0.1354
     12  N        115.2040   30.2920   17.0180 N.3    13  ARG13      -0.1245
     13  CA       113.8470   29.9690   17.4400 C.3    13  ARG13       0.1563
     14  C        112.8860   31.1230   17.1910 C.2    13  ARG13       0.2260
     15  O        113.3080   32.2570   16.9320 O.2    13  ARG13      -0.2867
     16  CB       113.8300   29.6010   18.9300 C.3    13  ARG13       0.0307
     17  CG       114.3270   30.7330   19.8340 C.3    13  ARG13       0.0489
     18  CD       113.8670   30.5380   21.2890 C.3    13  ARG13       0.2205
     19  NE       114.4190   31.5520   22.1860 N.pl3  13  ARG13      -0.0865
     20  CZ       113.9500   32.7940   22.2880 C.cat  13  ARG13       0.5346
     21  NH1      112.9130   33.1880   21.5370 N.pl3  13  ARG13       0.1354
     22  NH2      114.5220   33.6460   23.1320 N.pl3  13  ARG13       0.1354
     23  N        113.8790   43.1700   29.0270 N.3   177  GLU177     -0.1231
     24  CA       114.6080   42.0030   28.5210 C.3   177  GLU177      0.1699
     25  C        113.7880   41.1230   27.5960 C.2   177  GLU177      0.2592
     26  O        114.2440   40.7640   26.4990 O.2   177  GLU177     -0.2718
     27  CB       115.1330   41.1540   29.6760 C.3   177  GLU177      0.0402
     28  CG       116.3840   41.7190   30.2740 C.3   177  GLU177      0.1161
     29  CD       116.9630   40.8630   31.3850 C.2   177  GLU177      0.3649
     30  OE1      117.2910   39.6820   31.1340 O.co2 177  GLU177     -0.2457
     31  OE2      117.1050   41.3900   32.5080 O.co2 177  GLU177     -0.2457
     32  N        112.5900   40.7560   28.0420 N.am  178  THR178     -0.1953
     33  CA       111.6910   39.9630   27.2200 C.3   178  THR178      0.1897
     34  C        111.3680   40.6880   25.9230 C.2   178  THR178      0.2313
     35  O        111.3530   40.0900   24.8380 O.2   178  THR178     -0.2863
     36  CB       110.3750   39.6550   27.9640 C.3   178  THR178      0.1794
     37  OG1      110.6170   38.6500   28.9510 O.3   178  THR178     -0.2208
     38  CG2      109.3230   39.1570   26.9990 C.3   178  THR178      0.0378
     39  N        112.9750   43.1850   24.3420 N.3   180  GLY180     -0.1210
     40  CA       114.1640   43.2360   23.5090 C.3   180  GLY180      0.1956
     41  C        114.4940   41.9100   22.8550 C.2   180  GLY180      0.2611
     42  O        114.8930   41.8790   21.6950 O.2   180  GLY180     -0.2717
     43  N        114.3420   40.8070   23.5820 N.am  181  HIS181     -0.1975
     44  CA       114.6400   39.5170   22.9780 C.3   181  HIS181      0.1656
     45  C        113.6440   39.2110   21.8660 C.2   181  HIS181      0.2291
     46  O        114.0240   38.6830   20.8330 O.2   181  HIS181     -0.2864
     47  CB       114.6420   38.3830   24.0080 C.3   181  HIS181      0.0771
     48  CG       115.6340   37.3060   23.6890 C.ar  181  HIS181      0.0820
     49  ND1      116.2410   36.5320   24.6550 N.ar  181  HIS181     -0.2267
     50  CD2      116.1540   36.9010   22.5030 C.ar  181  HIS181      0.1154
     51  CE1      117.0800   35.6880   24.0800 C.ar  181  HIS181      0.1986
     52  NE2      117.0460   35.8910   22.7740 N.ar  181  HIS181     -0.2212
     53  N        114.4830   41.2880   18.8470 N.3   184  TYR184     -0.1241
     54  CA       115.6850   40.7580   18.2160 C.3   184  TYR184      0.1605
     55  C        115.3480   39.5970   17.2900 C.2   184  TYR184      0.2264
     56  O        115.8590   39.5270   16.1790 O.2   184  TYR184     -0.2867
     57  CB       116.6950   40.3150   19.2740 C.3   184  TYR184      0.0534
     58  CG       117.9660   39.7220   18.7050 C.ar  184  TYR184     -0.0201
     59  CD1      118.9230   40.5290   18.0940 C.ar  184  TYR184     -0.0009
     60  CD2      118.2190   38.3570   18.7990 C.ar  184  TYR184     -0.0009
     61  CE1      120.1070   39.9750   17.5670 C.ar  184  TYR184      0.0417
     62  CE2      119.3880   37.8030   18.2950 C.ar  184  TYR184      0.0417
     63  CZ       120.3220   38.6140   17.6780 C.ar  184  TYR184      0.1957
     64  OH       121.4740   38.0520   17.1840 O.3   184  TYR184     -0.2866
     65  N        116.7840   46.4080   22.2420 N.3   206  ILE206     -0.1245
     66  CA       117.5610   45.1900   22.0350 C.3   206  ILE206      0.1561
     67  C        118.9060   45.2130   22.7740 C.2   206  ILE206      0.2260
     68  O        119.2500   44.2570   23.4720 O.2   206  ILE206     -0.2867
     69  CB       117.8030   44.9590   20.5250 C.3   206  ILE206      0.0252
     70  CG1      116.4690   44.5910   19.8440 C.3   206  ILE206      0.0019
     71  CG2      118.8950   43.8900   20.2850 C.3   206  ILE206      0.0019
     72  CD1      116.6100   44.3330   18.3540 C.3   206  ILE206      0.0001
     73  N        118.3480   45.1200   26.5110 N.3   209  ALA209     -0.1231
     74  CA       117.9370   43.7780   26.8820 C.3   209  ALA209      0.1694
     75  C        119.1510   42.8730   27.0490 C.2   209  ALA209      0.2591
     76  O        119.2500   42.1280   28.0250 O.2   209  ALA209     -0.2718
     77  CB       116.9920   43.2090   25.8380 C.3   209  ALA209      0.0304
     78  N        120.0690   42.9350   26.0880 N.am  210  GLU210     -0.1979
     79  CA       121.3260   42.1730   26.1840 C.3   210  GLU210      0.1602
     80  C        122.1420   42.5640   27.4150 C.2   210  GLU210      0.2287
     81  O        122.5480   41.7120   28.1990 O.2   210  GLU210     -0.2864
     82  CB       122.1860   42.3650   24.9360 C.3   210  GLU210      0.0415
     83  CG       123.6030   41.7800   25.1050 C.3   210  GLU210      0.1163
     84  CD       124.4070   41.8450   23.8170 C.2   210  GLU210      0.3649
     85  OE1      124.5910   42.9700   23.3130 O.co2 210  GLU210     -0.2457
     86  OE2      124.8250   40.7780   23.3050 O.co2 210  GLU210     -0.2457
     87  N        120.3770   41.3400   30.5870 N.3   213  PHE213     -0.1241
     88  CA       120.5950   39.9020   30.6230 C.3   213  PHE213      0.1605
     89  C        121.9870   39.5830   31.1950 C.2   213  PHE213      0.2264
     90  O        122.1080   38.7850   32.1230 O.2   213  PHE213     -0.2867
     91  CB       120.4350   39.3210   29.2090 C.3   213  PHE213      0.0534
     92  CG       120.6120   37.8210   29.1180 C.ar  213  PHE213     -0.0203
     93  CD1      120.4470   37.0040   30.2260 C.ar  213  PHE213     -0.0042
     94  CD2      120.9350   37.2290   27.9030 C.ar  213  PHE213     -0.0042
     95  CE1      120.6130   35.6240   30.1260 C.ar  213  PHE213     -0.0003
     96  CE2      121.0930   35.8530   27.7990 C.ar  213  PHE213     -0.0003
     97  CZ       120.9340   35.0520   28.9180 C.ar  213  PHE213     -0.0000
     98  N        120.5000   29.7970   26.5470 N.3   257  ASP257     -0.1225
     99  CA       121.5030   30.8550   26.6990 C.3   257  ASP257      0.1805
    100  C        121.7920   31.1270   28.1760 C.2   257  ASP257      0.2598
    101  O        122.9260   31.4240   28.5370 O.2   257  ASP257     -0.2718
    102  CB       121.1250   32.1610   25.9690 C.3   257  ASP257      0.1424
    103  CG       119.7190   32.6850   26.2920 C.2   257  ASP257      0.3668
    104  OD1      119.0360   32.2270   27.2280 O.co2 257  ASP257     -0.2456
    105  OD2      119.3150   33.6290   25.5930 O.co2 257  ASP257     -0.2456
    106  N        120.7810   30.9960   29.0240 N.am  258  THR258     -0.1953
    107  CA       120.9680   31.1720   30.4610 C.3   258  THR258      0.1897
    108  C        121.9390   30.1230   31.0090 C.2   258  THR258      0.2313
    109  O        122.7910   30.4210   31.8620 O.2   258  THR258     -0.2863
    110  CB       119.6440   31.0500   31.2100 C.3   258  THR258      0.1794
    111  OG1      119.0000   29.8350   30.8100 O.3   258  THR258     -0.2208
    112  CG2      118.7250   32.2120   30.8720 C.3   258  THR258      0.0378
    113  N        128.4770   39.6660   26.1790 N.3   273  LYS273     -0.1231
    114  CA       127.5300   39.5880   25.0670 C.3   273  LYS273      0.1693
    115  C        126.6710   38.3380   25.1660 C.2   273  LYS273      0.2593
    116  O        127.1460   37.2930   25.5800 O.2   273  LYS273     -0.2718
    117  CB       128.2610   39.6080   23.7210 C.3   273  LYS273      0.0285
    118  CG       129.2240   40.7670   23.5480 C.3   273  LYS273      0.0035
    119  CD       128.5340   42.1270   23.5890 C.3   273  LYS273      0.0206
    120  CE       129.5740   43.2510   23.6680 C.3   273  LYS273      0.1093
    121  NZ       128.9810   44.6180   23.6560 N.3   273  LYS273     -0.1314
    122  N        125.4050   38.4610   24.7770 N.am  274  SER274     -0.1939
    123  CA       124.4750   37.3300   24.7490 C.3   274  SER274      0.2040
    124  C        125.0070   36.1700   23.9210 C.2   274  SER274      0.2485
    125  O        125.5240   36.3760   22.8270 O.2   274  SER274     -0.2729
    126  CB       123.1180   37.7720   24.1800 C.3   274  SER274      0.2129
    127  OG       122.4910   38.7110   25.0290 O.3   274  SER274     -0.2179
    128  N        124.8910   34.9410   24.4420 N.am  275  PRO275     -0.2715
    129  CA       125.3270   33.7940   23.6380 C.3   275  PRO275      0.1521
    130  C        124.4890   33.6390   22.3560 C.2   275  PRO275      0.2440
    131  O        123.2560   33.5690   22.4190 O.2   275  PRO275     -0.2731
    132  CB       125.1160   32.6000   24.5780 C.3   275  PRO275      0.0310
    133  CG       125.1340   33.2110   25.9900 C.3   275  PRO275      0.0237
    134  CD       124.4820   34.5550   25.8060 C.3   275  PRO275      0.0939
    135  N        125.1560   33.5940   21.1970 N.am  276  PRO276     -0.2727
    136  CA       124.4140   33.3940   19.9480 C.3   276  PRO276      0.1402
    137  C        123.7700   32.0090   19.8640 C.2   276  PRO276      0.2269
    138  O        123.9850   31.1540   20.7300 O.2   276  PRO276     -0.2865
    139  CB       125.4880   33.5640   18.8610 C.3   276  PRO276      0.0296
    140  CG       126.8140   33.2990   19.5840 C.3   276  PRO276      0.0237
    141  CD       126.5960   33.8440   20.9680 C.3   276  PRO276      0.0939
@<TRIPOS>BOND
     1    56    55    2
     2    15    14    2
     3    12    13    1
     4    64    63    1
     5    14    13    1
     6    55    54    1
     7    13    16    1
     8    61    63   ar
     9    61    59   ar
    10    63    62   ar
    11    59    58   ar
    12    54    53    1
    13    54    57    1
    14    62    60   ar
    15    72    70    1
    16    58    60   ar
    17    58    57    1
    18   139   140    1
    19   139   136    1
    20    16    17    1
    21   140   141    1
    22    17    18    1
    23    70    69    1
    24   137   136    1
    25   137   138    2
    26   136   135    1
    27    71    69    1
    28    69    66    1
    29    46    45    2
    30     4     3    2
    31   141   135    1
    32   135   130   am
    33    18    19    1
    34    10     9    1
    35    21    20    1
    36    42    41    2
    37    45    44    1
    38     3     2    1
    39    66    65    1
    40    66    67    1
    41     9    11    1
    42     9     8    2
    43    19    20    2
    44    20    22    1
    45   130   131    2
    46   130   129    1
    47    50    52   ar
    48    50    48   ar
    49    67    68    2
    50    52    51   ar
    51   125   124    2
    52    41    40    1
    53    41    43   am
    54     8     7    1
    55     7     6    1
    56    44    43    1
    57    44    47    1
    58     6     5    1
    59     5     2    1
    60     2     1    1
    61    86    84   ar
    62    85    84   ar
    63    40    39    1
    64   118   119    1
    65   118   117    1
    66   119   120    1
    67   129   128    1
    68   129   132    1
    69   121   120    1
    70    48    47    1
    71    48    49   ar
    72   117   114    1
    73    84    83    1
    74   124   128   am
    75   124   123    1
    76    51    49   ar
    77   126   123    1
    78   126   127    1
    79   128   134    1
    80   132   133    1
    81   123   122    1
    82   122   115   am
    83    35    34    2
    84    82    83    1
    85    82    79    1
    86   114   115    1
    87   114   113    1
    88   115   116    2
    89   105   103   ar
    90   134   133    1
    91    77    74    1
    92    34    33    1
    93   102   103    1
    94   102    99    1
    95    78    79    1
    96    78    75   am
    97    79    80    1
    98   103   104   ar
    99    26    25    2
   100    73    74    1
   101    98    99    1
   102    99   100    1
   103    74    75    1
   104    38    36    1
   105    75    76    2
   106    33    36    1
   107    33    32    1
   108    80    81    2
   109    25    32   am
   110    25    24    1
   111    96    94   ar
   112    96    97   ar
   113    94    92   ar
   114    36    37    1
   115   100   101    2
   116   100   106   am
   117    24    23    1
   118    24    27    1
   119    97    95   ar
   120   106   107    1
   121    92    91    1
   122    92    93   ar
   123    91    88    1
   124    27    28    1
   125    95    93   ar
   126    28    29    1
   127   107   108    1
   128   107   110    1
   129    87    88    1
   130    88    89    1
   131   111   110    1
   132   112   110    1
   133   108   109    2
   134    30    29   ar
   135    89    90    2
   136    29    31   ar
