@<TRIPOS>MOLECULE
tmp/5cdhA04.pdb
 102 95 0 0 0
SMALL
GASTEIGER

@<TRIPOS>ATOM
      1  N        143.0500   13.4440   23.3950 N.3     1  MET1       -0.1245
      2  CA       141.8420   13.7760   24.1470 C.3     1  MET1        0.1570
      3  C        141.1390   12.5210   24.6460 C.2     1  MET1        0.2261
      4  O        140.9530   11.5550   23.9120 O.2     1  MET1       -0.2867
      5  CB       140.8920   14.6120   23.3000 C.3     1  MET1        0.0387
      6  CG       139.5860   14.9590   24.0070 C.3     1  MET1        0.0595
      7  SD       138.3420   15.5110   22.8370 S.3     1  MET1       -0.1393
      8  CE       139.0150   17.0760   22.3070 C.3     1  MET1        0.0692
      9  N        130.1450   18.7650   26.0310 N.3     6  ASP6       -0.1239
     10  CA       129.6490   20.0010   25.4160 C.3     6  ASP6        0.1674
     11  C        128.3030   20.4040   26.0120 C.2     6  ASP6        0.2266
     12  O        127.3970   19.5790   26.1020 O.2     6  ASP6       -0.2867
     13  CB       129.4870   19.8420   23.9060 C.3     6  ASP6        0.1410
     14  CG       130.8070   19.7910   23.1750 C.2     6  ASP6        0.3668
     15  OD1      131.6430   20.7010   23.3730 O.co2   6  ASP6       -0.2456
     16  OD2      130.9910   18.8390   22.3940 O.co2   6  ASP6       -0.2456
     17  N        130.3940   19.6380   12.2670 N.3    47  ALA47      -0.1231
     18  CA       131.7070   20.0430   12.7690 C.3    47  ALA47       0.1694
     19  C        132.1710   19.1530   13.9380 C.2    47  ALA47       0.2592
     20  O        133.3650   18.8070   14.0400 O.2    47  ALA47      -0.2718
     21  CB       131.6820   21.5020   13.1760 C.3    47  ALA47       0.0304
     22  N        131.2420   18.7670   14.8120 N.am   48  PHE48      -0.1976
     23  CA       131.5780   17.8470   15.9070 C.3    48  PHE48       0.1639
     24  C        132.0660   16.4870   15.3760 C.2    48  PHE48       0.2290
     25  O        132.9920   15.8880   15.9410 O.2    48  PHE48      -0.2864
     26  CB       130.3760   17.6210   16.8580 C.3    48  PHE48       0.0560
     27  CG       130.0910   18.7740   17.8020 C.ar   48  PHE48      -0.0200
     28  CD1      130.7190   20.0020   17.6490 C.ar   48  PHE48      -0.0042
     29  CD2      129.1830   18.6170   18.8460 C.ar   48  PHE48      -0.0042
     30  CE1      130.4440   21.0530   18.5130 C.ar   48  PHE48      -0.0003
     31  CE2      128.9020   19.6570   19.7170 C.ar   48  PHE48      -0.0003
     32  CZ       129.5390   20.8850   19.5510 C.ar   48  PHE48      -0.0000
     33  N        135.6590   16.7860   14.0840 N.3    51  LYS51      -0.1231
     34  CA       136.5970   16.8340   15.2050 C.3    51  LYS51       0.1693
     35  C        136.6620   15.5010   15.9860 C.2    51  LYS51       0.2592
     36  O        137.7010   14.8460   16.0020 O.2    51  LYS51      -0.2718
     37  CB       136.2260   17.9950   16.1400 C.3    51  LYS51       0.0285
     38  CG       137.1670   18.2180   17.3230 C.3    51  LYS51       0.0035
     39  CD       138.4500   18.9280   16.8970 C.3    51  LYS51       0.0206
     40  CE       138.2140   20.3990   16.5250 C.3    51  LYS51       0.1093
     41  NZ       137.7300   21.2370   17.6710 N.3    51  LYS51      -0.1314
     42  N        135.5610   15.0810   16.6130 N.am   52  TYR52      -0.1976
     43  CA       135.6020   13.9670   17.5670 C.3    52  TYR52       0.1639
     44  C        135.7670   12.6020   16.9120 C.2    52  TYR52       0.2290
     45  O        136.1680   11.6460   17.5580 O.2    52  TYR52      -0.2864
     46  CB       134.3270   13.9130   18.4220 C.3    52  TYR52       0.0560
     47  CG       134.1100   15.0750   19.3460 C.ar   52  TYR52      -0.0198
     48  CD1      135.0570   15.4150   20.3000 C.ar   52  TYR52      -0.0009
     49  CD2      132.9350   15.8160   19.2920 C.ar   52  TYR52      -0.0009
     50  CE1      134.8490   16.4700   21.1680 C.ar   52  TYR52       0.0417
     51  CE2      132.7150   16.8710   20.1590 C.ar   52  TYR52       0.0417
     52  CZ       133.6730   17.1860   21.0970 C.ar   52  TYR52       0.1957
     53  OH       133.4660   18.2360   21.9480 O.3    52  TYR52      -0.2866
     54  N        140.0150   13.1210   15.7090 N.3    56  LEU56      -0.1245
     55  CA       140.5630   12.6540   16.9860 C.3    56  LEU56       0.1561
     56  C        140.2410   11.2010   17.3190 C.2    56  LEU56       0.2260
     57  O        140.9350   10.5900   18.1280 O.2    56  LEU56      -0.2867
     58  CB       140.0830   13.5560   18.1180 C.3    56  LEU56       0.0270
     59  CG       140.4130   15.0320   17.8870 C.3    56  LEU56       0.0019
     60  CD1      139.8570   15.8920   19.0080 C.3    56  LEU56       0.0001
     61  CD2      141.9080   15.2490   17.7260 C.3    56  LEU56       0.0001
     62  N        128.2910   27.0830   22.2540 N.3   280  ASN280     -0.1240
     63  CA       128.8840   25.8470   22.7330 C.3   280  ASN280      0.1653
     64  C        129.9530   26.1210   23.8000 C.2   280  ASN280      0.2266
     65  O        130.8980   26.8760   23.5670 O.2   280  ASN280     -0.2867
     66  CB       129.4510   25.0840   21.5250 C.3   280  ASN280      0.1155
     67  CG       130.2860   23.8770   21.9120 C.2   280  ASN280      0.2627
     68  OD1      131.3090   23.6160   21.2970 O.2   280  ASN280     -0.2716
     69  ND2      129.8500   23.1340   22.9280 N.am  280  ASN280     -0.0877
     70  N        132.6550   23.9910   25.7370 N.3   282  ASN282     -0.1240
     71  CA       133.3050   22.6920   25.6740 C.3   282  ASN282      0.1653
     72  C        134.2710   22.4620   26.8350 C.2   282  ASN282      0.2266
     73  O        135.0920   23.3230   27.1500 O.2   282  ASN282     -0.2867
     74  CB       134.0540   22.5550   24.3450 C.3   282  ASN282      0.1155
     75  CG       134.8270   21.2590   24.2460 C.2   282  ASN282      0.2627
     76  OD1      136.0460   21.2280   24.4610 O.2   282  ASN282     -0.2716
     77  ND2      134.1200   20.1720   23.9480 N.am  282  ASN282     -0.0877
     78  N        137.1550   19.7220   27.5170 N.3   284  SER284     -0.1217
     79  CA       137.9360   18.6230   26.9530 C.3   284  SER284      0.1889
     80  C        138.9860   18.1060   27.9470 C.2   284  SER284      0.2288
     81  O        139.8190   18.8640   28.4390 O.2   284  SER284     -0.2866
     82  CB       138.6240   19.0600   25.6470 C.3   284  SER284      0.2089
     83  OG       137.6740   19.1370   24.5820 O.3   284  SER284     -0.2183
     84  N        142.2500   15.9430   28.9230 N.3   286  TYR286     -0.1241
     85  CA       143.4990   15.4580   28.3360 C.3   286  TYR286      0.1605
     86  C        144.3780   14.6910   29.3440 C.2   286  TYR286      0.2264
     87  O        144.3630   14.9750   30.5470 O.2   286  TYR286     -0.2867
     88  CB       144.2940   16.6250   27.7490 C.3   286  TYR286      0.0534
     89  CG       143.5810   17.3670   26.6410 C.ar  286  TYR286     -0.0201
     90  CD1      143.6830   16.9500   25.3140 C.ar  286  TYR286     -0.0009
     91  CD2      142.8030   18.4800   26.9210 C.ar  286  TYR286     -0.0009
     92  CE1      143.0350   17.6330   24.2910 C.ar  286  TYR286      0.0417
     93  CE2      142.1510   19.1670   25.9120 C.ar  286  TYR286      0.0417
     94  CZ       142.2720   18.7430   24.5990 C.ar  286  TYR286      0.1957
     95  OH       141.6140   19.4360   23.6070 O.3   286  TYR286     -0.2866
     96  N        136.5160   25.8330   26.6500 N.3   298  THR298     -0.1218
     97  CA       136.4180   26.6660   25.4620 C.3   298  THR298      0.1862
     98  C        134.9730   27.0940   25.2570 C.2   298  THR298      0.2287
     99  O        134.0620   26.3140   25.5230 O.2   298  THR298     -0.2866
    100  CB       136.9360   25.8980   24.2300 C.3   298  THR298      0.1770
    101  OG1      138.3360   25.6340   24.4170 O.3   298  THR298     -0.2211
    102  CG2      136.7530   26.7190   22.9530 C.3   298  THR298      0.0375
@<TRIPOS>BOND
     1    17    18    1
     2    18    21    1
     3    18    19    1
     4    19    20    2
     5    19    22   am
     6    33    34    1
     7    22    23    1
     8    34    35    1
     9    34    37    1
    10    24    23    1
    11    24    25    2
    12    54    55    1
    13    23    26    1
    14    35    36    2
    15    35    42   am
    16    37    38    1
    17    40    39    1
    18    40    41    1
    19    42    43    1
    20    26    27    1
    21    39    38    1
    22    44    45    2
    23    44    43    1
    24    55    56    1
    25    55    58    1
    26    56    57    2
    27    43    46    1
    28    28    27   ar
    29    28    30   ar
    30    61    59    1
    31    27    29   ar
    32    59    58    1
    33    59    60    1
    34    46    47    1
    35    30    32   ar
    36    29    31   ar
    37    49    47   ar
    38    49    51   ar
    39    47    48   ar
    40    32    31   ar
    41    51    52   ar
    42    48    50   ar
    43    52    50   ar
    44    52    53    1
    45    68    67    2
    46    66    67    1
    47    66    63    1
    48    67    69   am
    49    62    63    1
    50     8     7    1
    51    16    14   ar
    52    63    64    1
    53     7     6    1
    54   102   100    1
    55    14    15   ar
    56    14    13    1
    57     5     6    1
    58     5     2    1
    59     1     2    1
    60    65    64    2
    61    95    94    1
    62    13    10    1
    63     4     3    2
    64    77    75   am
    65     2     3    1
    66   100   101    1
    67   100    97    1
    68    75    74    1
    69    75    76    2
    70    92    94   ar
    71    92    90   ar
    72    74    71    1
    73    83    82    1
    74    94    93   ar
    75    98    97    1
    76    98    99    2
    77    90    89   ar
    78    10    11    1
    79    10     9    1
    80    97    96    1
    81    82    79    1
    82    71    70    1
    83    71    72    1
    84    93    91   ar
    85    11    12    2
    86    89    91   ar
    87    89    88    1
    88    72    73    2
    89    79    78    1
    90    79    80    1
    91    88    85    1
    92    80    81    2
    93    85    84    1
    94    85    86    1
    95    86    87    2
