@<TRIPOS>MOLECULE
tmp/5cdtB01.pdb
 119 111 0 0 0
SMALL
GASTEIGER

@<TRIPOS>ATOM
      1  N         27.2850   -6.5120  -45.3670 N.3    46  CYS46      -0.1235
      2  CA        27.0590   -6.6550  -43.9510 C.3    46  CYS46       0.1677
      3  C         28.2060   -7.4360  -43.3020 C.2    46  CYS46       0.2270
      4  O         28.8250   -8.3380  -43.8830 O.2    46  CYS46      -0.2867
      5  CB        25.6790   -7.2480  -43.6880 C.3    46  CYS46       0.0956
      6  SG        25.3170   -7.6910  -41.9080 S.3    46  CYS46      -0.0801
      7  N         27.9760   -9.7010  -41.2350 N.3    48  SER48      -0.1217
      8  CA        27.5940  -11.1360  -41.2520 C.3    48  SER48       0.1889
      9  C         28.1150  -11.8550  -42.4880 C.2    48  SER48       0.2288
     10  O         28.5110  -13.0210  -42.3920 O.2    48  SER48      -0.2866
     11  CB        26.1110  -11.2720  -41.1430 C.3    48  SER48       0.2089
     12  OG        25.7760  -10.8550  -39.8480 O.3    48  SER48      -0.2183
     13  N         31.2510  -17.4850  -38.8050 N.3    57  LEU57      -0.1245
     14  CA        29.9810  -18.1460  -39.0540 C.3    57  LEU57       0.1561
     15  C         30.2940  -19.3230  -39.9300 C.2    57  LEU57       0.2260
     16  O         30.9310  -19.1470  -40.9630 O.2    57  LEU57      -0.2867
     17  CB        29.0170  -17.2850  -39.8850 C.3    57  LEU57       0.0270
     18  CG        27.8750  -16.5090  -39.2000 C.3    57  LEU57       0.0019
     19  CD1       27.1260  -15.6250  -40.1980 C.3    57  LEU57       0.0001
     20  CD2       26.9170  -17.4550  -38.4490 C.3    57  LEU57       0.0001
     21  N         22.8440  -11.1650  -48.1980 N.3    67  HIS67      -0.1241
     22  CA        21.5260  -11.2820  -47.5880 C.3    67  HIS67       0.1621
     23  C         20.8210   -9.9670  -47.3800 C.2    67  HIS67       0.2264
     24  O         19.6560   -9.9300  -46.9910 O.2    67  HIS67      -0.2867
     25  CB        21.5890  -12.0100  -46.2330 C.3    67  HIS67       0.0745
     26  CG        22.4270  -11.2900  -45.2280 C.ar   67  HIS67       0.0817
     27  ND1       23.7950  -11.2820  -45.2540 N.ar   67  HIS67      -0.2268
     28  CD2       22.0680  -10.5110  -44.1780 C.ar   67  HIS67       0.1154
     29  CE1       24.2540  -10.5850  -44.2320 C.ar   67  HIS67       0.1986
     30  NE2       23.2220  -10.0730  -43.5950 N.ar   67  HIS67      -0.2212
     31  N         16.1070  -12.7360  -45.1210 N.3    93  PHE93      -0.1241
     32  CA        17.0410  -13.7730  -44.5810 C.3    93  PHE93       0.1605
     33  C         16.4760  -14.5500  -43.3660 C.2    93  PHE93       0.2264
     34  O         16.8350  -15.6870  -43.1000 O.2    93  PHE93      -0.2867
     35  CB        18.4600  -13.1740  -44.3050 C.3    93  PHE93       0.0534
     36  CG        18.5780  -12.3630  -43.0330 C.ar   93  PHE93      -0.0203
     37  CD1       18.7460  -13.0200  -41.7680 C.ar   93  PHE93      -0.0042
     38  CD2       18.5520  -10.9680  -43.0890 C.ar   93  PHE93      -0.0042
     39  CE1       18.9030  -12.2430  -40.6290 C.ar   93  PHE93      -0.0003
     40  CE2       18.6400  -10.1950  -41.9350 C.ar   93  PHE93      -0.0003
     41  CZ        18.8360  -10.8440  -40.7200 C.ar   93  PHE93      -0.0000
     42  N         19.2930  -20.4130  -40.5010 N.3   116  LEU116     -0.1245
     43  CA        20.3510  -19.8380  -39.6530 C.3   116  LEU116      0.1561
     44  C         20.8650  -20.7620  -38.6030 C.2   116  LEU116      0.2260
     45  O         22.0670  -20.8780  -38.4390 O.2   116  LEU116     -0.2867
     46  CB        19.8790  -18.5590  -38.9090 C.3   116  LEU116      0.0270
     47  CG        20.2390  -17.2320  -39.5560 C.3   116  LEU116      0.0019
     48  CD1       19.2470  -17.0030  -40.6820 C.3   116  LEU116      0.0001
     49  CD2       20.1820  -16.0270  -38.6520 C.3   116  LEU116      0.0001
     50  N         22.6670  -19.1380  -49.1620 N.3   140  PHE140     -0.1227
     51  CA        23.0070  -18.5970  -47.8670 C.3   140  PHE140      0.1736
     52  C         21.7290  -17.9450  -47.3490 C.2   140  PHE140      0.2595
     53  O         21.1710  -17.0310  -48.0170 O.2   140  PHE140     -0.2718
     54  CB        24.0720  -17.5540  -48.0670 C.3   140  PHE140      0.0547
     55  CG        24.5030  -16.8770  -46.8080 C.ar  140  PHE140     -0.0202
     56  CD1       24.9020  -17.6240  -45.7030 C.ar  140  PHE140     -0.0042
     57  CD2       24.4100  -15.5240  -46.6850 C.ar  140  PHE140     -0.0042
     58  CE1       25.2940  -17.0330  -44.5610 C.ar  140  PHE140     -0.0003
     59  CE2       24.8000  -14.9200  -45.5060 C.ar  140  PHE140     -0.0003
     60  CZ        25.1980  -15.6960  -44.4200 C.ar  140  PHE140     -0.0000
     61  N         21.2700  -18.4550  -46.2030 N.am  141  LEU141     -0.1980
     62  CA        20.0690  -17.9720  -45.5450 C.3   141  LEU141      0.1596
     63  C         18.8370  -17.8510  -46.4230 C.2   141  LEU141      0.2287
     64  O         17.9890  -16.9600  -46.2540 O.2   141  LEU141     -0.2864
     65  CB        20.3390  -16.5940  -44.9150 C.3   141  LEU141      0.0297
     66  CG        21.5950  -16.4280  -44.0960 C.3   141  LEU141      0.0022
     67  CD1       21.7160  -14.9880  -43.6200 C.3   141  LEU141      0.0001
     68  CD2       21.6440  -17.3850  -42.9430 C.3   141  LEU141      0.0001
     69  N         18.6340   -5.8710  -43.9620 N.3   174  CYS174     -0.1235
     70  CA        19.2920   -6.3050  -42.7480 C.3   174  CYS174      0.1677
     71  C         19.6470   -5.1790  -41.7970 C.2   174  CYS174      0.2270
     72  O         19.0200   -5.0390  -40.7420 O.2   174  CYS174     -0.2867
     73  CB        20.5470   -7.1180  -43.0290 C.3   174  CYS174      0.0956
     74  SG        21.3020   -7.6940  -41.4750 S.3   174  CYS174     -0.0801
     75  N         17.5270   -4.2970  -38.4580 N.3   178  THR178     -0.1218
     76  CA        18.0570   -4.9980  -37.2900 C.3   178  THR178      0.1862
     77  C         18.3600   -3.9770  -36.1500 C.2   178  THR178      0.2287
     78  O         17.8540   -4.1280  -35.0400 O.2   178  THR178     -0.2866
     79  CB        19.3470   -5.7260  -37.6410 C.3   178  THR178      0.1770
     80  OG1       19.0290   -6.8430  -38.5000 O.3   178  THR178     -0.2211
     81  CG2       19.9200   -6.2640  -36.3810 C.3   178  THR178      0.0375
     82  N         23.0490   -8.2580  -30.2230 N.3   292  VAL292     -0.1245
     83  CA        22.7420   -8.0820  -31.6570 C.3   292  VAL292      0.1561
     84  C         23.8730   -8.7210  -32.4380 C.2   292  VAL292      0.2260
     85  O         23.6190   -9.3280  -33.4830 O.2   292  VAL292     -0.2867
     86  CB        22.5530   -6.6080  -32.0910 C.3   292  VAL292      0.0252
     87  CG1       22.0550   -6.5260  -33.5320 C.3   292  VAL292      0.0019
     88  CG2       21.4960   -5.9630  -31.2030 C.3   292  VAL292      0.0019
     89  N         26.9490  -11.0770  -33.7750 N.3   294  VAL294     -0.1245
     90  CA        27.0690  -12.5300  -34.0410 C.3   294  VAL294      0.1561
     91  C         28.4230  -12.9420  -33.5460 C.2   294  VAL294      0.2260
     92  O         29.4550  -12.4200  -34.0040 O.2   294  VAL294     -0.2867
     93  CB        26.9550  -12.8260  -35.5410 C.3   294  VAL294      0.0252
     94  CG1       27.3020  -14.2810  -35.8820 C.3   294  VAL294      0.0019
     95  CG2       25.5520  -12.5210  -36.0560 C.3   294  VAL294      0.0019
     96  N         18.2700  -10.8590  -30.3680 N.3   317  ALA317     -0.1231
     97  CA        17.2940  -10.9290  -31.4980 C.3   317  ALA317      0.1694
     98  C         17.9800  -11.0300  -32.8260 C.2   317  ALA317      0.2592
     99  O         19.0690  -10.4850  -33.0130 O.2   317  ALA317     -0.2718
    100  CB        16.2530   -9.7740  -31.5020 C.3   317  ALA317      0.0304
    101  N         17.2290  -11.6480  -33.7410 N.am  318  ILE318     -0.1966
    102  CA        17.5590  -11.6270  -35.1520 C.3   318  ILE318      0.1727
    103  C         16.6110  -10.6320  -35.8280 C.2   318  ILE318      0.2616
    104  O         15.4140  -10.5900  -35.5580 O.2   318  ILE318     -0.2715
    105  CB        17.4090  -13.0200  -35.7660 C.3   318  ILE318      0.0290
    106  CG1       18.2510  -14.0900  -35.0290 C.3   318  ILE318      0.0022
    107  CG2       17.6520  -13.0470  -37.2650 C.3   318  ILE318      0.0023
    108  CD1       19.7140  -13.9430  -35.2250 C.3   318  ILE318      0.0001
    109  N         17.2300   -9.8170  -36.6870 N.am  319  PHE319     -0.1974
    110  CA        16.4740   -8.9210  -37.5930 C.3   319  PHE319      0.1639
    111  C         15.5800   -7.9520  -36.7520 C.2   319  PHE319      0.2290
    112  O         14.4680   -7.6640  -37.1270 O.2   319  PHE319     -0.2864
    113  CB        15.6650   -9.6690  -38.6670 C.3   319  PHE319      0.0560
    114  CG        15.1520   -8.8000  -39.7730 C.ar  319  PHE319     -0.0200
    115  CD1       16.0340   -8.0970  -40.5840 C.ar  319  PHE319     -0.0042
    116  CD2       13.8120   -8.7460  -40.0800 C.ar  319  PHE319     -0.0042
    117  CE1       15.5660   -7.3520  -41.6410 C.ar  319  PHE319     -0.0003
    118  CE2       13.3280   -8.0180  -41.1530 C.ar  319  PHE319     -0.0003
    119  CZ        14.2220   -7.2370  -41.9170 C.ar  319  PHE319     -0.0000
@<TRIPOS>BOND
     1    50    51    1
     2    21    22    1
     3    54    51    1
     4    54    55    1
     5    53    52    2
     6    51    52    1
     7    22    23    1
     8    22    25    1
     9    23    24    2
    10    52    61   am
    11    55    57   ar
    12    55    56   ar
    13    57    59   ar
    14    63    64    2
    15    63    62    1
    16    25    26    1
    17    61    62    1
    18    56    58   ar
    19    62    65    1
    20    59    60   ar
    21     1     2    1
    22    27    26   ar
    23    27    29   ar
    24    26    28   ar
    25    31    32    1
    26    65    66    1
    27    32    35    1
    28    32    33    1
    29    58    60   ar
    30    35    36    1
    31    29    30   ar
    32    28    30   ar
    33    66    67    1
    34    66    68    1
    35    69    70    1
    36     2     5    1
    37     2     3    1
    38     4     3    2
    39     5     6    1
    40    33    34    2
    41    38    36   ar
    42    38    40   ar
    43    36    37   ar
    44    73    70    1
    45    73    74    1
    46    70    71    1
    47     9    10    2
    48     9     8    1
    49    40    41   ar
    50   119   117   ar
    51   119   118   ar
    52    71    72    2
    53    37    39   ar
    54   117   115   ar
    55     8     7    1
    56     8    11    1
    57   118   116   ar
    58    11    12    1
    59    16    15    2
    60    41    39   ar
    61    48    47    1
    62   115   114   ar
    63    42    43    1
    64    19    18    1
    65   116   114   ar
    66    15    14    1
    67    17    18    1
    68    17    14    1
    69   114   113    1
    70    43    46    1
    71    43    44    1
    72    47    46    1
    73    47    49    1
    74    18    20    1
    75    14    13    1
    76   113   110    1
    77    44    45    2
    78    80    79    1
    79    75    76    1
    80    79    76    1
    81    79    81    1
    82   110   111    1
    83   110   109    1
    84    76    77    1
    85   107   105    1
    86   112   111    2
    87   109   103   am
    88    77    78    2
    89    95    93    1
    90    94    93    1
    91   103   104    2
    92   103   102    1
    93   105   102    1
    94   105   106    1
    95    93    90    1
    96   108   106    1
    97   102   101    1
    98    90    89    1
    99    90    91    1
   100    92    91    2
   101   101    98   am
   102    87    86    1
   103    85    84    2
   104    99    98    2
   105    98    97    1
   106    84    83    1
   107    86    83    1
   108    86    88    1
   109    83    82    1
   110   100    97    1
   111    97    96    1
