@<TRIPOS>MOLECULE
tmp/5ce1A00.pdb
 186 185 0 0 0
SMALL
GASTEIGER

@<TRIPOS>ATOM
      1  N         16.5610    4.8700   27.6520 N.3   135  LEU135     -0.1231
      2  CA        16.2730    3.6000   28.3320 C.3   135  LEU135      0.1693
      3  C         15.5200    2.6220   27.4010 C.2   135  LEU135      0.2592
      4  O         15.8750    1.4530   27.3750 O.2   135  LEU135     -0.2718
      5  CB        15.5240    3.8270   29.6600 C.3   135  LEU135      0.0284
      6  CG        16.3310    4.4530   30.7970 C.3   135  LEU135      0.0019
      7  CD1       15.4000    4.7290   31.9550 C.3   135  LEU135      0.0001
      8  CD2       17.4450    3.5520   31.2630 C.3   135  LEU135      0.0001
      9  N         14.5560    3.1270   26.5990 N.am  136  CYS136     -0.1970
     10  CA        13.6040    2.3100   25.8380 C.3   136  CYS136      0.1712
     11  C         13.1770    2.9010   24.4840 C.2   136  CYS136      0.2296
     12  O         13.2210    4.0950   24.2670 O.2   136  CYS136     -0.2864
     13  CB        12.3490    2.1030   26.6700 C.3   136  CYS136      0.0983
     14  SG        12.5460    0.8000   27.8890 S.3   136  CYS136     -0.0798
     15  N          7.7360   -2.8200   31.2450 N.3   151  HIS151     -0.1226
     16  CA         8.9520   -2.9530   31.9880 C.3   151  HIS151      0.1752
     17  C          9.8810   -1.7780   31.8710 C.2   151  HIS151      0.2596
     18  O         10.8450   -1.6650   32.5880 O.2   151  HIS151     -0.2718
     19  CB         9.6100   -4.3230   31.7640 C.3   151  HIS151      0.0759
     20  CG        10.7100   -4.3420   30.7180 C.ar  151  HIS151      0.0818
     21  ND1       10.5470   -4.8450   29.5290 N.ar  151  HIS151     -0.2268
     22  CD2       11.9810   -3.9010   30.7620 C.ar  151  HIS151      0.1154
     23  CE1       11.6320   -4.7170   28.8530 C.ar  151  HIS151      0.1986
     24  NE2       12.5080   -4.1430   29.6110 N.ar  151  HIS151     -0.2212
     25  N          9.5370   -0.8600   31.0080 N.am  152  CYS152     -0.1970
     26  CA        10.2910    0.3970   30.8980 C.3   152  CYS152      0.1712
     27  C         10.0210    1.3490   32.0680 C.2   152  CYS152      0.2296
     28  O         10.7350    2.3370   32.2080 O.2   152  CYS152     -0.2864
     29  CB        10.0150    1.1110   29.5450 C.3   152  CYS152      0.0983
     30  SG        10.6220    0.1550   28.1070 S.3   152  CYS152     -0.0798
     31  N          9.6210    0.6980   35.8200 N.3   154  PRO154     -0.2116
     32  CA         9.7130    0.1430   37.1970 C.3   154  PRO154      0.1372
     33  C          9.6580    1.2650   38.2350 C.2   154  PRO154      0.2244
     34  O          9.4790    2.4120   37.8530 O.2   154  PRO154     -0.2868
     35  CB        11.0590   -0.5470   37.1950 C.3   154  PRO154      0.0268
     36  CG        11.8840    0.2760   36.2230 C.3   154  PRO154      0.0207
     37  CD        10.9370    0.7740   35.1670 C.3   154  PRO154      0.0892
     38  N         11.5680    3.0860   40.2920 N.3   156  ARG156     -0.1231
     39  CA        12.4320    4.2690   40.2260 C.3   156  ARG156      0.1694
     40  C         12.2300    5.1580   38.9980 C.2   156  ARG156      0.2592
     41  O         12.7230    6.2610   38.9800 O.2   156  ARG156     -0.2718
     42  CB        13.9140    3.8570   40.3260 C.3   156  ARG156      0.0321
     43  CG        14.4110    3.0480   39.1390 C.3   156  ARG156      0.0489
     44  CD        15.6580    2.2180   39.4140 C.3   156  ARG156      0.2205
     45  NE        15.7750    1.1760   38.3860 N.pl3 156  ARG156     -0.0865
     46  CZ        15.0010    0.0800   38.3080 C.cat 156  ARG156      0.5346
     47  NH1       15.1860   -0.7940   37.3060 N.pl3 156  ARG156      0.1354
     48  NH2       14.0340   -0.1550   39.2140 N.pl3 156  ARG156      0.1354
     49  N         11.5460    4.6860   37.9580 N.am  157  ASN157     -0.1974
     50  CA        11.4890    5.4310   36.6810 C.3   157  ASN157      0.1688
     51  C         10.0710    5.9330   36.3840 C.2   157  ASN157      0.2292
     52  O          9.7130    6.1150   35.2170 O.2   157  ASN157     -0.2864
     53  CB        12.0260    4.5720   35.5180 C.3   157  ASN157      0.1181
     54  CG        13.4860    4.1620   35.7110 C.2   157  ASN157      0.2629
     55  OD1       13.8230    2.9900   35.8090 O.2   157  ASN157     -0.2716
     56  ND2       14.3560    5.1440   35.7780 N.am  157  ASN157     -0.0877
     57  N         25.6990   -7.3170   24.1280 N.3   245  TYR245     -0.1241
     58  CA        25.0610   -7.1980   25.4480 C.3   245  TYR245      0.1605
     59  C         25.9090   -6.3650   26.3780 C.2   245  TYR245      0.2264
     60  O         25.3690   -5.5360   27.1280 O.2   245  TYR245     -0.2867
     61  CB        24.7930   -8.5540   26.1030 C.3   245  TYR245      0.0534
     62  CG        24.0670   -8.4630   27.4410 C.ar  245  TYR245     -0.0201
     63  CD1       22.6890   -8.7310   27.5550 C.ar  245  TYR245     -0.0009
     64  CD2       24.7640   -8.1410   28.6090 C.ar  245  TYR245     -0.0009
     65  CE1       22.0370   -8.6530   28.7810 C.ar  245  TYR245      0.0417
     66  CE2       24.1240   -8.0630   29.8470 C.ar  245  TYR245      0.0417
     67  CZ        22.7660   -8.3200   29.9370 C.ar  245  TYR245      0.1957
     68  OH        22.1540   -8.2370   31.1950 O.3   245  TYR245     -0.2866
     69  N         19.8740   -9.9820   16.7010 N.3   291  ASP291     -0.1225
     70  CA        18.8650   -9.9560   17.7650 C.3   291  ASP291      0.1805
     71  C         18.7210   -8.5350   18.2360 C.2   291  ASP291      0.2598
     72  O         19.6040   -7.7140   17.9840 O.2   291  ASP291     -0.2718
     73  CB        19.3270  -10.8650   18.9210 C.3   291  ASP291      0.1424
     74  CG        18.2290  -11.2250   19.9130 C.2   291  ASP291      0.3668
     75  OD1       17.0340  -10.9070   19.6930 O.co2 291  ASP291     -0.2456
     76  OD2       18.5830  -11.8670   20.9390 O.co2 291  ASP291     -0.2456
     77  N         17.6090   -8.2620   18.9100 N.am  292  ALA292     -0.1966
     78  CA        17.4190   -7.0430   19.6720 C.3   292  ALA292      0.1728
     79  C         18.1820   -7.1430   20.9920 C.2   292  ALA292      0.2616
     80  O         18.6310   -8.2290   21.3650 O.2   292  ALA292     -0.2715
     81  CB        15.9470   -6.8570   19.9590 C.3   292  ALA292      0.0334
     82  N         18.3050   -6.0320   21.7240 N.am  293  CYS293     -0.1954
     83  CA        19.0350   -6.0560   22.9780 C.3   293  CYS293      0.1843
     84  C         18.6040   -4.9800   23.9920 C.2   293  CYS293      0.2625
     85  O         17.6920   -4.1700   23.7740 O.2   293  CYS293     -0.2714
     86  CB        20.5310   -5.8930   22.6590 C.3   293  CYS293      0.0997
     87  SG        21.7070   -6.5500   23.8770 S.3   293  CYS293     -0.0797
     88  N         19.3000   -5.0020   25.1220 N.am  294  GLN294     -0.1963
     89  CA        19.1510   -4.0120   26.1610 C.3   294  GLN294      0.1733
     90  C         19.0290   -2.5900   25.5270 C.2   294  GLN294      0.2616
     91  O         19.9090   -2.1240   24.7900 O.2   294  GLN294     -0.2715
     92  CB        20.3380   -4.1650   27.1210 C.3   294  GLN294      0.0408
     93  CG        20.4630   -3.1410   28.2330 C.3   294  GLN294      0.0908
     94  CD        21.4390   -3.6000   29.3210 C.2   294  GLN294      0.2608
     95  OE1       22.3070   -4.4660   29.1050 O.2   294  GLN294     -0.2717
     96  NE2       21.2610   -3.0590   30.5110 N.am  294  GLN294     -0.0878
     97  N         17.9090   -1.9270   25.8080 N.am  295  GLY295     -0.1955
     98  CA        17.6090   -0.5960   25.2530 C.3   295  GLY295      0.1869
     99  C         16.7580   -0.5240   23.9870 C.2   295  GLY295      0.2309
    100  O         16.3560    0.5960   23.5710 O.2   295  GLY295     -0.2863
    101  N         14.2050   -2.5520   24.1160 N.3   297  SER297     -0.1217
    102  CA        12.9710   -2.8330   24.8790 C.3   297  SER297      0.1889
    103  C         11.9060   -1.7810   24.6570 C.2   297  SER297      0.2288
    104  O         12.1830   -0.5960   24.7230 O.2   297  SER297     -0.2866
    105  CB        13.2870   -2.8980   26.3690 C.3   297  SER297      0.2089
    106  OG        14.3650   -3.7910   26.6410 O.3   297  SER297     -0.2183
    107  N          9.5780   -5.2870   21.6940 N.3   319  VAL319     -0.1231
    108  CA        10.7620   -5.9260   22.3010 C.3   319  VAL319      0.1692
    109  C         10.5020   -6.0820   23.7910 C.2   319  VAL319      0.2593
    110  O         10.3070   -5.0960   24.5030 O.2   319  VAL319     -0.2718
    111  CB        12.0310   -5.0970   22.0820 C.3   319  VAL319      0.0266
    112  CG1       13.2350   -5.7070   22.7980 C.3   319  VAL319      0.0020
    113  CG2       12.2780   -4.9340   20.5610 C.3   319  VAL319      0.0020
    114  N         10.4390   -7.3230   24.2490 N.am  320  SER320     -0.1938
    115  CA        10.1020   -7.5740   25.6450 C.3   320  SER320      0.2055
    116  C         11.3030   -8.0800   26.4290 C.2   320  SER320      0.2643
    117  O         11.7210   -7.4270   27.3440 O.2   320  SER320     -0.2714
    118  CB         8.9400   -8.5760   25.7820 C.3   320  SER320      0.2130
    119  OG         8.6070   -8.7350   27.1680 O.3   320  SER320     -0.2179
    120  N         11.8450   -9.2400   26.0580 N.am  321  TRP321     -0.1959
    121  CA        12.9500   -9.8520   26.7970 C.3   321  TRP321      0.1771
    122  C         13.7130  -10.9170   26.0180 C.2   321  TRP321      0.2620
    123  O         13.3400  -11.3540   24.9060 O.2   321  TRP321     -0.2715
    124  CB        12.4410  -10.4620   28.1130 C.3   321  TRP321      0.0590
    125  CG        11.5440  -11.6730   27.9690 C.ar  321  TRP321      0.0006
    126  CD1       10.1900  -11.6680   27.7530 C.ar  321  TRP321      0.0946
    127  CD2       11.9350  -13.0640   28.0470 C.ar  321  TRP321      0.0152
    128  NE1        9.7030  -12.9650   27.6830 N.ar  321  TRP321     -0.2442
    129  CE2       10.7480  -13.8450   27.8630 C.ar  321  TRP321      0.0810
    130  CE3       13.1700  -13.7320   28.2240 C.ar  321  TRP321      0.0012
    131  CZ2       10.7670  -15.2590   27.8440 C.ar  321  TRP321      0.0191
    132  CZ3       13.1850  -15.1650   28.2060 C.ar  321  TRP321      0.0001
    133  CH2       11.9850  -15.8970   28.0240 C.ar  321  TRP321      0.0015
    134  N         14.8240  -11.3270   26.6120 N.am  322  GLY322     -0.1954
    135  CA        15.6140  -12.4540   26.0960 C.3   322  GLY322      0.1869
    136  C         16.7350  -12.7810   27.0590 C.2   322  GLY322      0.2309
    137  O         17.1170  -11.9700   27.9040 O.2   322  GLY322     -0.2863
    138  N         20.2000  -12.9520   27.4960 N.3   324  GLY324     -0.1210
    139  CA        21.3570  -12.3820   26.8200 C.3   324  GLY324      0.1956
    140  C         20.9110  -11.8010   25.4920 C.2   324  GLY324      0.2612
    141  O         19.7120  -11.6250   25.2670 O.2   324  GLY324     -0.2717
    142  N         21.8730  -11.5130   24.6200 N.am  325  CYS325     -0.1970
    143  CA        21.5830  -10.9810   23.3100 C.3   325  CYS325      0.1712
    144  C         22.3150  -11.7830   22.2500 C.2   325  CYS325      0.2296
    145  O         23.4890  -12.1010   22.4210 O.2   325  CYS325     -0.2864
    146  CB        22.0100   -9.5020   23.2440 C.3   325  CYS325      0.0983
    147  SG        20.9970   -8.4310   24.2890 S.3   325  CYS325     -0.0798
    148  N         18.5840  -18.8370   21.6720 N.3   330  LYS330     -0.1231
    149  CA        17.9160  -17.9640   22.6150 C.3   330  LYS330      0.1678
    150  C         17.3990  -16.7140   21.8580 C.2   330  LYS330      0.2434
    151  O         17.9420  -15.6190   21.9810 O.2   330  LYS330     -0.2733
    152  CB        18.8590  -17.6090   23.7650 C.3   330  LYS330      0.0284
    153  CG        19.3010  -18.8130   24.6110 C.3   330  LYS330      0.0035
    154  CD        18.2240  -19.2970   25.5670 C.3   330  LYS330      0.0206
    155  CE        18.5800  -20.6560   26.1480 C.3   330  LYS330      0.1093
    156  NZ        18.6740  -21.7230   25.0730 N.3   330  LYS330     -0.1314
    157  N         16.3450  -16.8800   21.0390 N.am  331  PRO331     -0.2718
    158  CA        15.9640  -15.7010   20.2320 C.3   331  PRO331      0.1535
    159  C         15.2790  -14.5800   21.0400 C.2   331  PRO331      0.2599
    160  O         15.2080  -14.6490   22.2660 O.2   331  PRO331     -0.2715
    161  CB        15.0800  -16.2780   19.1170 C.3   331  PRO331      0.0310
    162  CG        14.6540  -17.5960   19.5980 C.3   331  PRO331      0.0237
    163  CD        15.5730  -18.0800   20.6910 C.3   331  PRO331      0.0939
    164  N         14.8960  -13.5180   20.3510 N.am  332  GLY332     -0.1941
    165  CA        14.2170  -12.4100   20.9930 C.3   332  GLY332      0.2014
    166  C         12.7740  -12.7730   21.2980 C.2   332  GLY332      0.2639
    167  O         12.0880  -13.4610   20.4920 O.2   332  GLY332     -0.2714
    168  N         12.2980  -12.3440   22.4730 N.am  333  VAL333     -0.1963
    169  CA        10.9000  -12.5560   22.7890 C.3   333  VAL333      0.1727
    170  C         10.2100  -11.2080   22.7450 C.2   333  VAL333      0.2616
    171  O         10.7560  -10.1900   23.2230 O.2   333  VAL333     -0.2715
    172  CB        10.6830  -13.2770   24.1300 C.3   333  VAL333      0.0290
    173  CG1        9.2710  -13.8120   24.2080 C.3   333  VAL333      0.0023
    174  CG2       11.6760  -14.4160   24.2660 C.3   333  VAL333      0.0023
    175  N          9.0120  -11.2190   22.1630 N.am  334  TYR334     -0.1974
    176  CA         8.2890   -9.9920   21.8730 C.3   334  TYR334      0.1639
    177  C          6.9000  -10.0990   22.4100 C.2   334  TYR334      0.2290
    178  O          6.3620  -11.2300   22.4910 O.2   334  TYR334     -0.2864
    179  CB         8.2270   -9.7730   20.3700 C.3   334  TYR334      0.0560
    180  CG         9.5800   -9.5470   19.7410 C.ar  334  TYR334     -0.0198
    181  CD1       10.0390   -8.2680   19.4890 C.ar  334  TYR334     -0.0009
    182  CD2       10.3980  -10.5950   19.4110 C.ar  334  TYR334     -0.0009
    183  CE1       11.2790   -8.0320   18.9080 C.ar  334  TYR334      0.0417
    184  CE2       11.6510  -10.3700   18.8410 C.ar  334  TYR334      0.0417
    185  CZ        12.0760   -9.0800   18.5790 C.ar  334  TYR334      0.1957
    186  OH        13.3250   -8.8280   18.0330 O.3   334  TYR334     -0.2866
@<TRIPOS>BOND
     1    69    70    1
     2    70    71    1
     3    70    73    1
     4    72    71    2
     5   186   185    1
     6    71    77   am
     7   185   184   ar
     8   185   183   ar
     9   184   182   ar
    10   183   181   ar
    11    77    78    1
    12    73    74    1
    13   161   162    1
    14   161   158    1
    15   182   180   ar
    16   181   180   ar
    17   162   163    1
    18    78    81    1
    19    78    79    1
    20    75    74   ar
    21   180   179    1
    22    74    76   ar
    23   158   157    1
    24   158   159    1
    25   164   165    1
    26   164   159   am
    27   179   176    1
    28   167   166    2
    29   113   111    1
    30   163   157    1
    31    79    80    2
    32    79    82   am
    33   165   166    1
    34   157   150   am
    35   159   160    2
    36   166   168   am
    37   148   149    1
    38   107   108    1
    39    82    83    1
    40   150   151    2
    41   150   149    1
    42   176   175    1
    43   176   177    1
    44   111   108    1
    45   111   112    1
    46   175   170   am
    47   144   145    2
    48   144   143    1
    49   108   109    1
    50   177   178    2
    51   168   169    1
    52   149   152    1
    53    86    83    1
    54    86    87    1
    55   170   169    1
    56   170   171    2
    57   169   172    1
    58    83    84    1
    59   146   143    1
    60   146   147    1
    61   143   142    1
    62   100    99    2
    63   152   153    1
    64    85    84    2
    65   109   114   am
    66   109   110    2
    67    87   147    1
    68    99    98    1
    69    84    88   am
    70   101   102    1
    71    57    58    1
    72   172   173    1
    73   172   174    1
    74   114   115    1
    75    12    11    2
    76    11    10    1
    77   153   154    1
    78   142   140   am
    79   103   104    2
    80   103   102    1
    81    91    90    2
    82   102   105    1
    83   123   122    2
    84   156   155    1
    85    88    89    1
    86    98    97    1
    87   141   140    2
    88    58    61    1
    89    58    59    1
    90   140   139    1
    91    90    97   am
    92    90    89    1
    93   154   155    1
    94   115   118    1
    95   115   116    1
    96   118   119    1
    97    10     9    1
    98    10    13    1
    99   122   134   am
   100   122   121    1
   101   120   116   am
   102   120   121    1
   103   135   134    1
   104   135   136    1
   105    61    62    1
   106    89    92    1
   107   105   106    1
   108    59    60    2
   109   116   117    2
   110     9     3   am
   111    13    14    1
   112   121   124    1
   113   139   138    1
   114   136   137    2
   115    92    93    1
   116     4     3    2
   117     3     2    1
   118    62    63   ar
   119    62    64   ar
   120    63    65   ar
   121     1     2    1
   122   128   126   ar
   123   128   129   ar
   124   126   125   ar
   125   131   129   ar
   126   131   133   ar
   127   129   127   ar
   128    14    30    1
   129   125   127   ar
   130   125   124    1
   131   133   132   ar
   132   127   130   ar
   133    30    29    1
   134   132   130   ar
   135    93    94    1
   136     2     5    1
   137    64    66   ar
   138    65    67   ar
   139    23    21   ar
   140    23    24   ar
   141    95    94    2
   142    94    96   am
   143    21    20   ar
   144    29    26    1
   145    24    22   ar
   146     5     6    1
   147    66    67   ar
   148    67    68    1
   149    20    22   ar
   150    20    19    1
   151     6     8    1
   152     6     7    1
   153    26    25    1
   154    26    27    1
   155    25    17   am
   156    15    16    1
   157    19    16    1
   158    17    16    1
   159    17    18    2
   160    27    28    2
   161    37    31    1
   162    37    36    1
   163    52    51    2
   164    53    54    1
   165    53    50    1
   166    54    56   am
   167    54    55    2
   168    31    32    1
   169    36    35    1
   170    51    50    1
   171    50    49    1
   172    35    32    1
   173    32    33    1
   174    47    46    1
   175    34    33    2
   176    49    40   am
   177    46    45    2
   178    46    48    1
   179    45    44    1
   180    41    40    2
   181    40    39    1
   182    43    44    1
   183    43    42    1
   184    39    38    1
   185    39    42    1
