@<TRIPOS>MOLECULE
tmp/5ce3B00.pdb
 146 133 0 0 0
SMALL
GASTEIGER

@<TRIPOS>ATOM
      1  N         14.6760   -6.1740    0.7900 N.3    31  LYS31      -0.1245
      2  CA        14.8700   -6.7650    2.1040 C.3    31  LYS31       0.1561
      3  C         16.2940   -7.2940    2.2040 C.2    31  LYS31       0.2260
      4  O         16.7810   -7.5770    3.2940 O.2    31  LYS31      -0.2867
      5  CB        13.8710   -7.9080    2.2550 C.3    31  LYS31       0.0271
      6  CG        12.4570   -7.3800    2.4730 C.3    31  LYS31       0.0035
      7  CD        11.4280   -8.4930    2.3160 C.3    31  LYS31       0.0206
      8  CE        11.4520   -9.4480    3.5050 C.3    31  LYS31       0.1093
      9  NZ        10.1030   -9.8430    4.0130 N.3    31  LYS31      -0.1314
     10  N         15.5200   -4.4320   10.9630 N.3    32  GLU32      -0.1231
     11  CA        15.6890   -4.0100    9.5760 C.3    32  GLU32       0.1699
     12  C         15.0410   -2.6430    9.3060 C.2    32  GLU32       0.2592
     13  O         14.1750   -2.1850   10.0660 O.2    32  GLU32      -0.2718
     14  CB        15.0990   -5.0620    8.6280 C.3    32  GLU32       0.0402
     15  CG        15.7470   -6.4410    8.7600 C.3    32  GLU32       0.1161
     16  CD        15.1560   -7.5070    7.8410 C.2    32  GLU32       0.3649
     17  OE1       14.9270   -7.2200    6.6450 O.co2  32  GLU32      -0.2457
     18  OE2       14.9540   -8.6500    8.3080 O.co2  32  GLU32      -0.2457
     19  N         15.5030   -1.9860    8.2390 N.am   33  SER33      -0.1952
     20  CA        14.8510   -0.7880    7.6840 C.3    33  SER33       0.1924
     21  C         14.7050   -0.9970    6.1940 C.2    33  SER33       0.2314
     22  O         15.4180   -1.8120    5.6330 O.2    33  SER33      -0.2863
     23  CB        15.6660    0.4810    7.9590 C.3    33  SER33       0.2116
     24  OG        17.0030    0.3650    7.5320 O.3    33  SER33      -0.2180
     25  N         15.1670   -0.4060    2.3260 N.3    35  ILE35      -0.1245
     26  CA        16.1280    0.1890    1.3900 C.3    35  ILE35       0.1561
     27  C         15.5150    0.1060   -0.0000 C.2    35  ILE35       0.2260
     28  O         15.1660   -0.9790   -0.4510 O.2    35  ILE35      -0.2867
     29  CB        17.4740   -0.5800    1.3890 C.3    35  ILE35       0.0252
     30  CG1       18.4250   -0.1400    2.5200 C.3    35  ILE35       0.0019
     31  CG2       18.2040   -0.4250    0.0580 C.3    35  ILE35       0.0019
     32  CD1       17.8430   -0.1040    3.8990 C.3    35  ILE35       0.0001
     33  N         21.1120    4.0720   -3.6050 N.3    47  VAL47      -0.1245
     34  CA        20.3310    3.4580   -2.5420 C.3    47  VAL47       0.1561
     35  C         19.7330    4.5810   -1.7190 C.2    47  VAL47       0.2260
     36  O         20.3990    5.5730   -1.4240 O.2    47  VAL47      -0.2867
     37  CB        21.2110    2.5500   -1.6640 C.3    47  VAL47       0.0252
     38  CG1       20.6080    2.3280   -0.2790 C.3    47  VAL47       0.0019
     39  CG2       21.4380    1.2210   -2.3600 C.3    47  VAL47       0.0019
     40  N         18.1140    4.7840    1.8900 N.3    49  LYS49      -0.1245
     41  CA        17.8160    4.1970    3.1830 C.3    49  LYS49       0.1561
     42  C         16.7030    4.9940    3.8560 C.2    49  LYS49       0.2260
     43  O         16.9570    6.0740    4.3740 O.2    49  LYS49      -0.2867
     44  CB        19.0880    4.1980    4.0340 C.3    49  LYS49       0.0271
     45  CG        19.0070    3.3540    5.2850 C.3    49  LYS49       0.0035
     46  CD        20.2730    3.4750    6.1090 C.3    49  LYS49       0.0206
     47  CE        20.0810    2.8780    7.4920 C.3    49  LYS49       0.1093
     48  NZ        21.3270    2.8760    8.3040 N.3    49  LYS49      -0.1314
     49  N         13.0110    4.5360    9.7400 N.3    52  ARG52      -0.1241
     50  CA        11.9710    3.8120   10.4810 C.3    52  ARG52       0.1606
     51  C         10.8400    4.8020   10.8630 C.2    52  ARG52       0.2264
     52  O         11.0900    5.9950   11.0610 O.2    52  ARG52      -0.2867
     53  CB        12.5450    3.1370   11.7420 C.3    52  ARG52       0.0562
     54  CG        13.8300    2.2780   11.4950 C.2    52  ARG52       0.0159
     55  CD        13.7730    0.8390   12.0290 C.2    52  ARG52       0.1886
     56  NE        14.9010   -0.0430   11.7050 N.pl3  52  ARG52      -0.0578
     57  CZ        16.1750    0.1530   12.0750 C.cat  52  ARG52       0.5393
     58  NH1       16.5700    1.2040   12.8040 N.pl3  52  ARG52       0.1358
     59  NH2       17.0870   -0.7400   11.7130 N.pl3  52  ARG52       0.1358
     60  N         31.1050    3.7870    2.7210 N.3    80  ALA80      -0.1245
     61  CA        29.9780    4.1850    1.8710 C.3    80  ALA80       0.1562
     62  C         30.1800    5.6020    1.3900 C.2    80  ALA80       0.2260
     63  O         30.7800    6.4080    2.1010 O.2    80  ALA80      -0.2867
     64  CB        28.6670    4.0960    2.6330 C.3    80  ALA80       0.0290
     65  N         22.7460    7.4800   -1.0810 N.3   100  MET100     -0.1230
     66  CA        24.1510    7.0550   -1.2480 C.3   100  MET100      0.1702
     67  C         24.3430    6.1520   -2.4780 C.2   100  MET100      0.2592
     68  O         23.3710    5.6690   -3.0520 O.2   100  MET100     -0.2718
     69  CB        24.5970    6.2990   -0.0010 C.3   100  MET100      0.0401
     70  CG        23.8580    4.9920    0.2210 C.3   100  MET100      0.0596
     71  SD        24.4450    4.1480    1.6860 S.3   100  MET100     -0.1393
     72  CE        23.0680    4.4160    2.8180 C.3   100  MET100      0.0692
     73  N         25.5940    5.9010   -2.8580 N.am  101  ASP101     -0.1960
     74  CA        25.9010    5.0190   -3.9870 C.3   101  ASP101      0.1840
     75  C         25.6110    3.5680   -3.6180 C.2   101  ASP101      0.2622
     76  O         25.8570    3.1530   -2.4920 O.2   101  ASP101     -0.2715
     77  CB        27.3720    5.1410   -4.4070 C.3   101  ASP101      0.1450
     78  CG        27.7210    6.5050   -5.0030 C.2   101  ASP101      0.3671
     79  OD1       26.8340    7.3090   -5.3070 O.co2 101  ASP101     -0.2456
     80  OD2       28.9100    6.7830   -5.1940 O.co2 101  ASP101     -0.2456
     81  N         25.0970    2.8000   -4.5750 N.am  102  GLU102     -0.1963
     82  CA        24.8470    1.3740   -4.3740 C.3   102  GLU102      0.1733
     83  C         26.1670    0.6730   -4.4790 C.2   102  GLU102      0.2616
     84  O         26.8920    0.8810   -5.4500 O.2   102  GLU102     -0.2715
     85  CB        23.9110    0.8110   -5.4570 C.3   102  GLU102      0.0429
     86  CG        23.6120   -0.6900   -5.3370 C.3   102  GLU102      0.1163
     87  CD        22.8160   -1.2640   -6.5080 C.2   102  GLU102      0.3649
     88  OE1       23.1980   -1.0260   -7.6690 O.co2 102  GLU102     -0.2457
     89  OE2       21.8270   -1.9900   -6.2600 O.co2 102  GLU102     -0.2457
     90  N         26.4860   -0.1590   -3.4960 N.am  103  VAL103     -0.1977
     91  CA        27.5900   -1.0990   -3.6380 C.3   103  VAL103      0.1596
     92  C         26.9970   -2.3190   -4.3200 C.2   103  VAL103      0.2287
     93  O         26.3310   -3.1410   -3.6770 O.2   103  VAL103     -0.2864
     94  CB        28.2410   -1.4680   -2.2950 C.3   103  VAL103      0.0276
     95  CG1       29.4520   -2.3590   -2.5340 C.3   103  VAL103      0.0022
     96  CG2       28.6600   -0.2130   -1.5470 C.3   103  VAL103      0.0022
     97  N         26.6170   -9.1380    0.1500 N.3   107  ARG107     -0.1245
     98  CA        26.9500   -8.8090    1.5460 C.3   107  ARG107      0.1563
     99  C         28.0880   -9.7280    1.9820 C.2   107  ARG107      0.2260
    100  O         28.3500  -10.7530    1.3460 O.2   107  ARG107     -0.2867
    101  CB        25.7540   -8.9690    2.4840 C.3   107  ARG107      0.0307
    102  CG        24.4090   -8.8420    1.7620 C.3   107  ARG107      0.0489
    103  CD        23.3290   -8.1890    2.6310 C.3   107  ARG107      0.2205
    104  NE        22.8480   -8.9870    3.7410 N.pl3 107  ARG107     -0.0865
    105  CZ        21.9220   -8.5760    4.5990 C.cat 107  ARG107      0.5346
    106  NH1       21.3390   -7.3880    4.4630 N.pl3 107  ARG107      0.1354
    107  NH2       21.5630   -9.3580    5.6040 N.pl3 107  ARG107      0.1354
    108  N         26.2740   -8.1610    7.9050 N.3   160  GLY160     -0.1210
    109  CA        25.2340   -7.4220    7.1820 C.3   160  GLY160      0.1956
    110  C         25.6050   -5.9870    6.8350 C.2   160  GLY160      0.2611
    111  O         25.1430   -5.4390    5.8220 O.2   160  GLY160     -0.2717
    112  N         26.4670   -5.3900    7.6560 N.am  161  ASN161     -0.1974
    113  CA        26.9450   -4.0280    7.4380 C.3   161  ASN161      0.1688
    114  C         28.2720   -3.9230    6.6650 C.2   161  ASN161      0.2292
    115  O         28.9360   -2.8930    6.7130 O.2   161  ASN161     -0.2864
    116  CB        26.9930   -3.3310    8.7950 C.3   161  ASN161      0.1181
    117  CG        25.6230   -3.2630    9.4410 C.2   161  ASN161      0.2629
    118  OD1       24.6090   -3.3250    8.7520 O.2   161  ASN161     -0.2716
    119  ND2       25.5810   -3.1360   10.7510 N.am  161  ASN161     -0.0877
    120  N         29.4840   -4.7930    2.5920 N.3   163  VAL163     -0.1245
    121  CA        29.0470   -5.1870    1.2690 C.3   163  VAL163      0.1561
    122  C         30.2300   -5.1060    0.3120 C.2   163  VAL163      0.2260
    123  O         30.9530   -4.1140    0.3000 O.2   163  VAL163     -0.2867
    124  CB        27.9060   -4.2670    0.7960 C.3   163  VAL163      0.0252
    125  CG1       27.4110   -4.6480   -0.6000 C.3   163  VAL163      0.0019
    126  CG2       26.7600   -4.3190    1.7970 C.3   163  VAL163      0.0019
    127  N         29.1330    0.0740    5.7870 N.3   174  ILE174     -0.1231
    128  CA        27.8980    0.8640    5.7560 C.3   174  ILE174      0.1692
    129  C         27.2890    0.8670    7.1530 C.2   174  ILE174      0.2592
    130  O         27.8580    0.2810    8.0770 O.2   174  ILE174     -0.2718
    131  CB        26.9060    0.2730    4.7320 C.3   174  ILE174      0.0266
    132  CG1       26.5680   -1.1860    5.0580 C.3   174  ILE174      0.0019
    133  CG2       27.4900    0.3480    3.3250 C.3   174  ILE174      0.0020
    134  CD1       25.4180   -1.7350    4.2440 C.3   174  ILE174      0.0001
    135  N         26.1380    1.5120    7.3000 N.am  175  ASP175     -0.1974
    136  CA        25.3250    1.4350    8.5300 C.3   175  ASP175      0.1709
    137  C         26.0360    2.0640    9.7370 C.2   175  ASP175      0.2293
    138  O         26.4320    1.3810   10.6890 O.2   175  ASP175     -0.2864
    139  CB        24.8690   -0.0150    8.8200 C.3   175  ASP175      0.1436
    140  CG        23.6620   -0.0970    9.7830 C.2   175  ASP175      0.3671
    141  OD1       23.1730    0.9500   10.2590 O.co2 175  ASP175     -0.2456
    142  OD2       23.1800   -1.2220   10.0770 O.co2 175  ASP175     -0.2456
    143  N         24.3420    3.9920   11.7350 N.3   177  GLY177     -0.1225
    144  CA        23.1750    4.4160   12.4990 C.3   177  GLY177      0.1811
    145  C         23.4080    4.4450   13.9950 C.2   177  GLY177      0.2280
    146  O         22.9860    5.4020   14.6720 O.2   177  GLY177     -0.2866
@<TRIPOS>BOND
     1    88    87   ar
     2    87    89   ar
     3    87    86    1
     4    85    86    1
     5    85    82    1
     6    84    83    2
     7    79    78   ar
     8    80    78   ar
     9    78    77    1
    10    81    82    1
    11    81    75   am
    12    83    82    1
    13    83    90   am
    14    77    74    1
    15    92    93    2
    16    92    91    1
    17    74    75    1
    18    74    73    1
    19    91    90    1
    20    91    94    1
    21    75    76    2
    22    33    34    1
    23    68    67    2
    24    73    67   am
    25    34    35    1
    26    34    37    1
    27    95    94    1
    28    67    66    1
    29    39    37    1
    30    94    96    1
    31    35    36    2
    32    37    38    1
    33    66    65    1
    34    66    69    1
    35   125   124    1
    36    28    27    2
    37    69    70    1
    38    27    26    1
    39    31    29    1
    40    97    98    1
    41    70    71    1
    42   123   122    2
    43   122   121    1
    44     1     2    1
    45   124   121    1
    46   124   126    1
    47   121   120    1
    48   100    99    2
    49    29    26    1
    50    29    30    1
    51    26    25    1
    52    62    61    1
    53    62    63    2
    54    98    99    1
    55    98   101    1
    56    71    72    1
    57   102   101    1
    58   102   103    1
    59    61    64    1
    60    61    60    1
    61    40    41    1
    62     2     3    1
    63     2     5    1
    64     3     4    2
    65     5     6    1
    66     7     6    1
    67     7     8    1
    68    30    32    1
    69   103   104    1
    70    41    42    1
    71    41    44    1
    72   133   131    1
    73     8     9    1
    74   104   105    2
    75    42    43    2
    76    44    45    1
    77   134   132    1
    78   106   105    1
    79   105   107    1
    80   131   132    1
    81   131   128    1
    82    45    46    1
    83    22    21    2
    84   128   127    1
    85   128   129    1
    86   111   110    2
    87    46    47    1
    88    21    20    1
    89    17    16   ar
    90   114   115    2
    91   114   113    1
    92   110   109    1
    93   110   112   am
    94   129   135   am
    95   129   130    2
    96   109   108    1
    97   135   136    1
    98   113   112    1
    99   113   116    1
   100    47    48    1
   101    24    23    1
   102    20    23    1
   103    20    19    1
   104    16    18   ar
   105    16    15    1
   106    19    12   am
   107   136   139    1
   108   136   137    1
   109    14    15    1
   110    14    11    1
   111   118   117    2
   112   116   117    1
   113   139   140    1
   114    12    11    1
   115    12    13    2
   116   117   119   am
   117    11    10    1
   118   137   138    2
   119    49    50    1
   120   140   142   ar
   121   140   141   ar
   122    50    51    1
   123    50    53    1
   124    51    52    2
   125    54    53    1
   126    54    55    2
   127    56    55    1
   128    56    57    2
   129    59    57    1
   130   143   144    1
   131    57    58    1
   132   144   145    1
   133   145   146    2
