@<TRIPOS>MOLECULE
tmp/5ce8B00.pdb
 153 145 0 0 0
SMALL
GASTEIGER

@<TRIPOS>ATOM
      1  N         52.3620   54.9040  -17.1820 N.3    34  GLY34      -0.1225
      2  CA        53.7090   55.3090  -17.4670 C.3    34  GLY34       0.1811
      3  C         53.7550   55.3020  -18.9930 C.2    34  GLY34       0.2280
      4  O         53.4090   54.2900  -19.6300 O.2    34  GLY34      -0.2866
      5  N         48.0150   52.9350  -23.7670 N.3    52  HIS52      -0.1241
      6  CA        48.2060   53.2310  -22.3990 C.3    52  HIS52       0.1621
      7  C         46.9660   53.8920  -21.7800 C.2    52  HIS52       0.2264
      8  O         46.6490   53.6230  -20.6530 O.2    52  HIS52      -0.2867
      9  CB        49.4140   54.1330  -22.2880 C.3    52  HIS52       0.0745
     10  CG        50.7200   53.3790  -22.2710 C.ar   52  HIS52       0.0817
     11  ND1       51.1880   52.7560  -21.1360 N.ar   52  HIS52      -0.2268
     12  CD2       51.7020   53.2420  -23.2060 C.ar   52  HIS52       0.1154
     13  CE1       52.3740   52.1930  -21.4060 C.ar   52  HIS52       0.1986
     14  NE2       52.7130   52.4980  -22.6460 N.ar   52  HIS52      -0.2212
     15  N         44.3670   51.2190  -21.1790 N.3    55  ARG55      -0.1245
     16  CA        44.7600   50.5540  -19.9780 C.3    55  ARG55       0.1563
     17  C         44.4080   51.3890  -18.7240 C.2    55  ARG55       0.2260
     18  O         43.9370   50.8050  -17.6850 O.2    55  ARG55      -0.2867
     19  CB        46.2950   50.1720  -20.0260 C.3    55  ARG55       0.0307
     20  CG        46.5630   49.1720  -18.9060 C.3    55  ARG55       0.0489
     21  CD        47.9270   48.5080  -18.9870 C.3    55  ARG55       0.2205
     22  NE        48.9090   49.5340  -18.7040 N.pl3  55  ARG55      -0.0865
     23  CZ        50.1710   49.3460  -18.8640 C.cat  55  ARG55       0.5346
     24  NH1       50.6550   48.1470  -19.3060 N.pl3  55  ARG55       0.1354
     25  NH2       50.9680   50.3300  -18.5620 N.pl3  55  ARG55       0.1354
     26  N         54.6730   38.7580   -4.4820 N.3   140  ARG140     -0.1245
     27  CA        53.8820   39.6180   -5.2440 C.3   140  ARG140      0.1563
     28  C         52.4700   39.5180   -4.7560 C.2   140  ARG140      0.2260
     29  O         52.0240   38.4720   -4.3990 O.2   140  ARG140     -0.2867
     30  CB        53.9960   39.2570   -6.7700 C.3   140  ARG140      0.0307
     31  CG        52.8850   39.8790   -7.5970 C.3   140  ARG140      0.0489
     32  CD        53.0960   41.4110   -7.9140 C.3   140  ARG140      0.2205
     33  NE        52.3540   41.6080   -9.1530 N.pl3 140  ARG140     -0.0865
     34  CZ        51.7870   42.7420   -9.5900 C.cat 140  ARG140      0.5346
     35  NH1       52.0510   43.8600   -9.0050 N.pl3 140  ARG140      0.1354
     36  NH2       51.1140   42.7710  -10.7150 N.pl3 140  ARG140      0.1354
     37  N         46.8150   48.7540  -12.9080 N.3   151  LYS151     -0.1245
     38  CA        47.9260   49.6050  -12.4370 C.3   151  LYS151      0.1561
     39  C         47.4040   50.5070  -11.3620 C.2   151  LYS151      0.2260
     40  O         47.2620   51.7070  -11.5540 O.2   151  LYS151     -0.2867
     41  CB        48.6050   50.4160  -13.5520 C.3   151  LYS151      0.0271
     42  CG        50.1720   50.3590  -13.5540 C.3   151  LYS151      0.0035
     43  CD        50.6880   50.7470  -14.9620 C.3   151  LYS151      0.0206
     44  CE        52.1250   51.2350  -14.9060 C.3   151  LYS151      0.1093
     45  NZ        52.8580   50.0040  -14.5220 N.3   151  LYS151     -0.1314
     46  N         51.3450   49.1590   -5.1960 N.3   156  TYR156     -0.1298
     47  CA        52.7710   49.4790   -5.2830 C.3   156  TYR156      0.1290
     48  C         53.5280   49.5020   -3.9900 C.3   156  TYR156      0.2013
     49  O         54.8260   49.4910   -4.0290 O.3   156  TYR156     -0.2188
     50  CB        53.0620   50.6620   -6.3400 C.3   156  TYR156      0.0480
     51  CG        52.6830   50.0890   -7.6660 C.ar  156  TYR156     -0.0204
     52  CD1       51.3120   49.9990   -8.0390 C.ar  156  TYR156     -0.0009
     53  CD2       53.5930   49.4040   -8.4530 C.ar  156  TYR156     -0.0009
     54  CE1       50.9310   49.2800   -9.1450 C.ar  156  TYR156      0.0417
     55  CE2       53.1940   48.7680   -9.6840 C.ar  156  TYR156      0.0417
     56  CZ        51.8750   48.7020   -9.9740 C.ar  156  TYR156      0.1957
     57  OH        51.4340   48.0880  -11.0790 O.3   156  TYR156     -0.2866
     58  N         57.3650   39.1160  -11.7480 N.3   185  GLU185     -0.1231
     59  CA        57.7100   40.4300  -12.1370 C.3   185  GLU185      0.1699
     60  C         59.0030   40.8980  -11.4320 C.2   185  GLU185      0.2593
     61  O         59.3690   40.3880  -10.3820 O.2   185  GLU185     -0.2718
     62  CB        56.6380   41.3950  -11.5490 C.3   185  GLU185      0.0402
     63  CG        55.1690   41.3060  -11.8870 C.3   185  GLU185      0.1161
     64  CD        54.8660   42.2500  -12.9910 C.2   185  GLU185      0.3649
     65  OE1       55.7060   43.1220  -13.2530 O.co2 185  GLU185     -0.2457
     66  OE2       53.8580   42.0960  -13.6520 O.co2 185  GLU185     -0.2457
     67  N         59.5300   42.0170  -11.9490 N.am  186  GLY186     -0.1942
     68  CA        60.2770   42.9410  -11.2070 C.3   186  GLY186      0.2014
     69  C         59.3890   43.8390  -10.3290 C.2   186  GLY186      0.2640
     70  O         58.1700   43.6100  -10.1980 O.2   186  GLY186     -0.2714
     71  N         59.9600   44.8920   -9.7260 N.am  187  SER187     -0.1935
     72  CA        59.1450   45.7480   -8.8970 C.3   187  SER187      0.2055
     73  C         58.2530   46.7160   -9.7660 C.2   187  SER187      0.2644
     74  O         57.1350   46.9390   -9.3710 O.2   187  SER187     -0.2714
     75  CB        59.9600   46.4650   -7.7950 C.3   187  SER187      0.2130
     76  OG        60.9390   47.2650   -8.3840 O.3   187  SER187     -0.2179
     77  N         58.7260   47.2050  -10.9060 N.am  188  GLY188     -0.1939
     78  CA        57.9180   47.8390  -11.9830 C.3   188  GLY188      0.2014
     79  C         58.2050   47.4250  -13.4490 C.2   188  GLY188      0.2639
     80  O         57.9330   48.1970  -14.4060 O.2   188  GLY188     -0.2714
     81  N         58.6730   46.1700  -13.6370 N.am  189  GLU189     -0.1963
     82  CA        58.9810   45.6130  -14.9510 C.3   189  GLU189      0.1733
     83  C         58.4810   44.1790  -15.1010 C.2   189  GLU189      0.2616
     84  O         58.5560   43.3890  -14.1260 O.2   189  GLU189     -0.2715
     85  CB        60.4870   45.5640  -15.1460 C.3   189  GLU189      0.0429
     86  CG        61.2020   46.8260  -14.7250 C.3   189  GLU189      0.1163
     87  CD        61.5660   46.8760  -13.2150 C.2   189  GLU189      0.3649
     88  OE1       62.2590   47.8690  -12.8430 O.co2 189  GLU189     -0.2457
     89  OE2       61.2240   45.9880  -12.3750 O.co2 189  GLU189     -0.2457
     90  N         58.1210   43.8110  -16.3290 N.am  190  ASN190     -0.1972
     91  CA        57.8590   42.4100  -16.6950 C.3   190  ASN190      0.1688
     92  C         59.2040   41.7520  -16.9460 C.2   190  ASN190      0.2292
     93  O         60.2510   42.4290  -17.1660 O.2   190  ASN190     -0.2864
     94  CB        56.9350   42.3050  -17.9190 C.3   190  ASN190      0.1181
     95  CG        55.5340   42.8460  -17.6640 C.2   190  ASN190      0.2629
     96  OD1       55.1120   43.7870  -18.2990 O.2   190  ASN190     -0.2716
     97  ND2       54.8140   42.2170  -16.7390 N.am  190  ASN190     -0.0877
     98  N         51.2370   42.4080  -14.0830 N.3   209  LEU209     -0.1245
     99  CA        50.6660   43.4510  -14.9060 C.3   209  LEU209      0.1561
    100  C         51.0370   43.1580  -16.4090 C.2   209  LEU209      0.2260
    101  O         52.1920   42.8110  -16.7510 O.2   209  LEU209     -0.2867
    102  CB        51.1380   44.7810  -14.4320 C.3   209  LEU209      0.0270
    103  CG        50.2990   45.8120  -15.1640 C.3   209  LEU209      0.0019
    104  CD1       49.5950   46.5940  -14.1210 C.3   209  LEU209      0.0001
    105  CD2       51.0330   46.6230  -16.2600 C.3   209  LEU209      0.0001
    106  N         52.1410   44.2500  -19.4960 N.3   211  GLY211     -0.1210
    107  CA        52.9060   45.3680  -19.8970 C.3   211  GLY211      0.1956
    108  C         52.7430   45.5930  -21.4110 C.2   211  GLY211      0.2612
    109  O         52.4960   44.6370  -22.1760 O.2   211  GLY211     -0.2717
    110  N         52.8020   46.8640  -21.7750 N.am  212  ILE212     -0.1965
    111  CA        52.7410   47.2890  -23.1540 C.3   212  ILE212      0.1727
    112  C         54.1390   47.0790  -23.7430 C.2   212  ILE212      0.2617
    113  O         54.2540   46.8380  -24.9660 O.2   212  ILE212     -0.2715
    114  CB        52.1820   48.7300  -23.2770 C.3   212  ILE212      0.0290
    115  CG1       50.6510   48.6960  -23.1680 C.3   212  ILE212      0.0022
    116  CG2       52.5580   49.4040  -24.6160 C.3   212  ILE212      0.0023
    117  CD1       50.0120   50.0100  -22.7330 C.3   212  ILE212      0.0001
    118  N         55.1700   47.1970  -22.9200 N.am  213  THR213     -0.1937
    119  CA        56.5070   46.9130  -23.3880 C.3   213  THR213      0.2028
    120  C         56.6070   45.3750  -23.6050 C.2   213  THR213      0.2642
    121  O         57.1290   44.9440  -24.6210 O.2   213  THR213     -0.2714
    122  CB        57.5480   47.4460  -22.4520 C.3   213  THR213      0.1808
    123  OG1       57.2610   48.8450  -22.2010 O.3   213  THR213     -0.2208
    124  CG2       58.8870   47.2970  -23.0350 C.3   213  THR213      0.0379
    125  N         56.1300   44.5900  -22.6480 N.am  214  ARG214     -0.1977
    126  CA        55.8750   43.1420  -22.8570 C.3   214  ARG214      0.1597
    127  C         55.1920   42.8160  -24.2090 C.2   214  ARG214      0.2287
    128  O         55.6290   41.9370  -24.9430 O.2   214  ARG214     -0.2864
    129  CB        54.9810   42.6380  -21.6970 C.3   214  ARG214      0.0334
    130  CG        54.8300   41.1400  -21.6560 C.3   214  ARG214      0.0492
    131  CD        53.8720   40.7330  -20.5780 C.3   214  ARG214      0.2205
    132  NE        53.5920   39.2740  -20.4360 N.pl3 214  ARG214     -0.0865
    133  CZ        52.5800   38.5710  -20.9750 C.cat 214  ARG214      0.5346
    134  NH1       51.7800   39.0810  -21.8800 N.pl3 214  ARG214      0.1354
    135  NH2       52.3690   37.2890  -20.6010 N.pl3 214  ARG214      0.1354
    136  N         61.6250   44.1980  -19.0060 N.3   247  VAL247     -0.1231
    137  CA        60.9800   45.1630  -19.8980 C.3   247  VAL247      0.1692
    138  C         59.9490   46.0780  -19.2070 C.2   247  VAL247      0.2593
    139  O         59.2720   45.7100  -18.2200 O.2   247  VAL247     -0.2718
    140  CB        60.3800   44.4480  -21.1180 C.3   247  VAL247      0.0266
    141  CG1       61.2940   43.3940  -21.6350 C.3   247  VAL247      0.0020
    142  CG2       59.0370   43.7290  -20.8060 C.3   247  VAL247      0.0020
    143  N         59.9430   47.3440  -19.6000 N.am  248  GLY248     -0.1942
    144  CA        58.8330   48.2460  -19.1900 C.3   248  GLY248      0.2014
    145  C         59.0640   49.5910  -19.7470 C.2   248  GLY248      0.2639
    146  O         60.1110   49.8350  -20.4250 O.2   248  GLY248     -0.2714
    147  N         58.1040   50.4760  -19.5130 N.am  249  THR249     -0.1950
    148  CA        58.1560   51.7060  -20.1830 C.3   249  THR249      0.1897
    149  C         59.3960   52.4660  -19.7870 C.2   249  THR249      0.2313
    150  O         60.1650   52.8430  -20.6490 O.2   249  THR249     -0.2863
    151  CB        56.9120   52.5310  -19.9880 C.3   249  THR249      0.1794
    152  OG1       55.8620   51.9690  -20.7810 O.3   249  THR249     -0.2208
    153  CG2       57.1700   53.9550  -20.5250 C.3   249  THR249      0.0378
@<TRIPOS>BOND
     1   113   112    2
     2   128   127    2
     3   121   120    2
     4   116   114    1
     5   127   126    1
     6     5     6    1
     7   112   111    1
     8   112   118   am
     9   120   119    1
    10   120   125   am
    11   119   118    1
    12   119   122    1
    13   114   115    1
    14   114   111    1
    15    12    14   ar
    16    12    10   ar
    17   115   117    1
    18   111   110    1
    19   124   122    1
    20   126   125    1
    21   126   129    1
    22    14    13   ar
    23   122   123    1
    24     6     9    1
    25     6     7    1
    26     9    10    1
    27    10    11   ar
    28   109   108    2
    29   134   133    1
    30     7     8    2
    31   110   108   am
    32   129   130    1
    33   130   131    1
    34   141   140    1
    35   108   107    1
    36    13    11   ar
    37    15    16    1
    38   140   142    1
    39   140   137    1
    40   133   135    1
    41   133   132    2
    42   152   151    1
    43   150   149    2
    44   131   132    1
    45   153   151    1
    46   146   145    2
    47   148   151    1
    48   148   149    1
    49   148   147    1
    50    19    16    1
    51    19    20    1
    52    16    17    1
    53   137   138    1
    54   137   136    1
    55   107   106    1
    56   145   147   am
    57   145   144    1
    58     4     3    2
    59   143   138   am
    60   143   144    1
    61    24    23    1
    62   138   139    2
    63     3     2    1
    64    21    20    1
    65    21    22    1
    66    23    22    2
    67    23    25    1
    68    17    18    2
    69    96    95    2
    70    94    95    1
    71    94    91    1
    72    95    97   am
    73     2     1    1
    74    93    92    2
    75    92    91    1
    76   101   100    2
    77    91    90    1
    78   100    99    1
    79    90    83   am
    80   105   103    1
    81   103   102    1
    82   103   104    1
    83    85    82    1
    84    85    86    1
    85    83    82    1
    86    83    84    2
    87    43    44    1
    88    43    42    1
    89    82    81    1
    90    99   102    1
    91    99    98    1
    92    44    45    1
    93    86    87    1
    94    80    79    2
    95    66    64   ar
    96    81    79   am
    97    42    41    1
    98    41    38    1
    99    79    78    1
   100    65    64   ar
   101    87    88   ar
   102    87    89   ar
   103    64    63    1
   104    37    38    1
   105    38    39    1
   106    59    58    1
   107    59    62    1
   108    59    60    1
   109    78    77    1
   110    67    60   am
   111    67    68    1
   112    63    62    1
   113    40    39    2
   114    60    61    2
   115    68    69    1
   116    57    56    1
   117    77    73   am
   118    36    34    1
   119    69    70    2
   120    69    71   am
   121    56    55   ar
   122    56    54   ar
   123    73    74    2
   124    73    72    1
   125    71    72    1
   126    55    53   ar
   127    34    33    2
   128    34    35    1
   129    33    32    1
   130    54    52   ar
   131    72    75    1
   132    53    51   ar
   133    76    75    1
   134    52    51   ar
   135    32    31    1
   136    51    50    1
   137    31    30    1
   138    30    27    1
   139    50    47    1
   140    47    46    1
   141    47    48    1
   142    27    28    1
   143    27    26    1
   144    28    29    2
   145    49    48    1
