@<TRIPOS>MOLECULE
tmp/5cedA00.pdb
 126 120 0 0 0
SMALL
GASTEIGER

@<TRIPOS>ATOM
      1  N        -26.1250   -8.9330  -24.9490 N.3    32  ALA32      -0.1231
      2  CA       -24.7470   -8.9650  -24.5000 C.3    32  ALA32       0.1694
      3  C        -24.3950   -7.6510  -23.7500 C.2    32  ALA32       0.2592
      4  O        -25.2660   -7.0750  -23.0360 O.2    32  ALA32      -0.2718
      5  CB       -23.7980   -9.1960  -25.7140 C.3    32  ALA32       0.0304
      6  N        -23.2970   -6.9990  -23.9550 N.am   33  SER33      -0.1952
      7  CA       -22.7660   -5.9930  -23.1000 C.3    33  SER33       0.1924
      8  C        -23.3350   -4.5800  -23.3870 C.2    33  SER33       0.2314
      9  O        -23.1140   -3.7010  -22.5370 O.2    33  SER33      -0.2863
     10  CB       -21.2580   -5.8060  -23.2220 C.3    33  SER33       0.2116
     11  OG       -20.6610   -6.8960  -22.5400 O.3    33  SER33      -0.2180
     12  N        -24.9450   -3.0760  -20.3530 N.3    36  LYS36      -0.1245
     13  CA       -24.2590   -2.1250  -19.4940 C.3    36  LYS36       0.1561
     14  C        -24.8020   -0.6970  -19.6210 C.2    36  LYS36       0.2260
     15  O        -24.7080    0.0730  -18.6630 O.2    36  LYS36      -0.2867
     16  CB       -22.7540   -2.1870  -19.6810 C.3    36  LYS36       0.0271
     17  CG       -22.1690   -3.5400  -19.2960 C.3    36  LYS36       0.0035
     18  CD       -20.7020   -3.7040  -19.6540 C.3    36  LYS36       0.0206
     19  CE       -20.2930   -5.1470  -19.3230 C.3    36  LYS36       0.1093
     20  NZ       -18.8450   -5.3920  -19.4620 N.3    36  LYS36      -0.1314
     21  N        -14.5930   -0.5370  -21.9510 N.3   193  GLN193     -0.1231
     22  CA       -14.5240   -2.0040  -22.0610 C.3   193  GLN193      0.1698
     23  C        -14.3260   -2.5080  -20.6390 C.2   193  GLN193      0.2593
     24  O        -13.4950   -1.9580  -19.9420 O.2   193  GLN193     -0.2718
     25  CB       -13.3080   -2.4270  -22.8830 C.3   193  GLN193      0.0381
     26  CG       -13.0140   -3.9090  -22.9190 C.3   193  GLN193      0.0905
     27  CD       -11.9900   -4.2540  -24.0110 C.2   193  GLN193      0.2608
     28  OE1      -11.1710   -3.4020  -24.4220 O.2   193  GLN193     -0.2717
     29  NE2      -12.0340   -5.4990  -24.4950 N.am  193  GLN193     -0.0878
     30  N        -15.0260   -3.5750  -20.2570 N.am  194  SER194     -0.1938
     31  CA       -14.9280   -4.1190  -18.8890 C.3   194  SER194      0.2055
     32  C        -15.3650   -5.5470  -18.8860 C.2   194  SER194      0.2643
     33  O        -16.1280   -5.9720  -19.7500 O.2   194  SER194     -0.2714
     34  CB       -15.8000   -3.3030  -17.8880 C.3   194  SER194      0.2130
     35  OG       -17.1100   -3.1410  -18.3550 O.3   194  SER194     -0.2179
     36  N        -14.8660   -6.3070  -17.9280 N.am  195  ASN195     -0.1971
     37  CA       -15.4580   -7.5950  -17.6680 C.3   195  ASN195      0.1688
     38  C        -16.7760   -7.2980  -16.9180 C.2   195  ASN195      0.2292
     39  O        -17.2600   -6.1460  -16.8650 O.2   195  ASN195     -0.2864
     40  CB       -14.4800   -8.5200  -16.9430 C.3   195  ASN195      0.1181
     41  CG       -14.0810   -8.0330  -15.5530 C.2   195  ASN195      0.2629
     42  OD1      -14.8010   -7.2990  -14.8520 O.2   195  ASN195     -0.2716
     43  ND2      -12.9260   -8.4750  -15.1350 N.am  195  ASN195     -0.0877
     44  N        -23.8710  -10.8980  -19.5180 N.3   235  ASN235     -0.1240
     45  CA       -23.1450  -12.1490  -19.6570 C.3   235  ASN235      0.1653
     46  C        -24.0710  -13.3270  -19.2990 C.2   235  ASN235      0.2266
     47  O        -25.0110  -13.1930  -18.5230 O.2   235  ASN235     -0.2867
     48  CB       -21.9120  -12.1570  -18.7360 C.3   235  ASN235      0.1155
     49  CG       -20.7820  -11.2310  -19.2220 C.2   235  ASN235      0.2627
     50  OD1      -20.9930  -10.0800  -19.6530 O.2   235  ASN235     -0.2716
     51  ND2      -19.5770  -11.7190  -19.1260 N.am  235  ASN235     -0.0877
     52  N        -13.6780   -0.4320  -26.8180 N.3   285  THR285     -0.1218
     53  CA       -13.9660   -1.3700  -27.9210 C.3   285  THR285      0.1862
     54  C        -14.2130   -0.6550  -29.2790 C.2   285  THR285      0.2287
     55  O        -14.2280   -1.3230  -30.2830 O.2   285  THR285     -0.2866
     56  CB       -15.1740   -2.2580  -27.6220 C.3   285  THR285      0.1770
     57  OG1      -16.3480   -1.4780  -27.4570 O.3   285  THR285     -0.2211
     58  CG2      -14.9550   -3.0740  -26.3480 C.3   285  THR285      0.0375
     59  N        -21.8540    1.6290  -27.4980 N.3   300  LYS300     -0.1231
     60  CA       -21.4670    0.4800  -26.7080 C.3   300  LYS300      0.1693
     61  C        -21.6180   -0.7760  -27.5440 C.2   300  LYS300      0.2593
     62  O        -22.6110   -0.9500  -28.2010 O.2   300  LYS300     -0.2718
     63  CB       -22.3510    0.3610  -25.4500 C.3   300  LYS300      0.0285
     64  CG       -22.0180   -0.8590  -24.5710 C.3   300  LYS300      0.0035
     65  CD       -20.7890   -0.6070  -23.6850 C.3   300  LYS300      0.0206
     66  CE       -20.1760   -1.9130  -23.1890 C.3   300  LYS300      0.1093
     67  NZ       -19.3330   -2.5320  -24.2640 N.3   300  LYS300     -0.1314
     68  N        -20.6540   -1.6780  -27.4550 N.am  301  THR301     -0.1939
     69  CA       -20.6390   -2.9520  -28.2020 C.3   301  THR301      0.2028
     70  C        -21.0850   -4.0700  -27.2820 C.2   301  THR301      0.2643
     71  O        -21.0050   -3.9510  -26.0670 O.2   301  THR301     -0.2714
     72  CB       -19.1920   -3.3070  -28.6290 C.3   301  THR301      0.1808
     73  OG1      -18.3060   -3.1310  -27.5000 O.3   301  THR301     -0.2208
     74  CG2      -18.6940   -2.3960  -29.8140 C.3   301  THR301      0.0379
     75  N        -21.4750   -5.1870  -27.8760 N.am  302  GLY302     -0.1939
     76  CA       -21.6890   -6.4150  -27.1650 C.3   302  GLY302      0.2014
     77  C        -21.3580   -7.6370  -28.0060 C.2   302  GLY302      0.2640
     78  O        -21.5600   -7.6330  -29.1830 O.2   302  GLY302     -0.2714
     79  N        -20.8740   -8.6890  -27.3580 N.am  303  SER303     -0.1935
     80  CA       -20.5900   -9.9690  -28.0020 C.3   303  SER303      0.2055
     81  C        -20.9350  -11.0580  -27.0300 C.2   303  SER303      0.2642
     82  O        -20.4260  -11.0770  -25.9410 O.2   303  SER303     -0.2714
     83  CB       -19.1140  -10.0930  -28.3370 C.3   303  SER303      0.2130
     84  OG       -18.6320   -8.9480  -29.0500 O.3   303  SER303     -0.2179
     85  N        -21.7930  -11.9880  -27.4450 N.am  304  VAL304     -0.1977
     86  CA       -21.9500  -13.2830  -26.7560 C.3   304  VAL304      0.1596
     87  C        -22.1680  -14.3820  -27.8200 C.2   304  VAL304      0.2287
     88  O        -22.2530  -14.0880  -29.0270 O.2   304  VAL304     -0.2864
     89  CB       -23.1160  -13.3160  -25.7450 C.3   304  VAL304      0.0276
     90  CG1      -22.8220  -12.4560  -24.5400 C.3   304  VAL304      0.0022
     91  CG2      -24.4660  -12.9900  -26.4020 C.3   304  VAL304      0.0022
     92  N        -24.1280  -10.3660  -31.6440 N.3   308  LYS308     -0.1245
     93  CA       -23.2160   -9.2660  -31.7320 C.3   308  LYS308      0.1561
     94  C        -24.0960   -8.0190  -31.7870 C.2   308  LYS308      0.2260
     95  O        -25.0320   -7.9660  -32.5610 O.2   308  LYS308     -0.2867
     96  CB       -22.3310   -9.3210  -32.9830 C.3   308  LYS308      0.0271
     97  CG       -21.1230   -8.3740  -32.9220 C.3   308  LYS308      0.0035
     98  CD       -19.9440   -9.0240  -32.2450 C.3   308  LYS308      0.0206
     99  CE       -18.7540   -8.1100  -32.0510 C.3   308  LYS308      0.1093
    100  NZ       -19.0460   -7.0300  -31.0470 N.3   308  LYS308     -0.1314
    101  N        -21.4350  -18.2090  -32.6040 N.3   331  TYR331     -0.1241
    102  CA       -20.0220  -18.2010  -32.3040 C.3   331  TYR331      0.1605
    103  C        -19.5130  -19.5720  -31.8500 C.2   331  TYR331      0.2264
    104  O        -18.3690  -19.9540  -32.2140 O.2   331  TYR331     -0.2867
    105  CB       -19.7230  -17.0400  -31.3710 C.3   331  TYR331      0.0534
    106  CG       -18.5620  -17.1620  -30.3870 C.ar  331  TYR331     -0.0201
    107  CD1      -18.6610  -18.0140  -29.3160 C.ar  331  TYR331     -0.0009
    108  CD2      -17.4510  -16.3260  -30.4630 C.ar  331  TYR331     -0.0009
    109  CE1      -17.6700  -18.1070  -28.3760 C.ar  331  TYR331      0.0417
    110  CE2      -16.4440  -16.4050  -29.4970 C.ar  331  TYR331      0.0417
    111  CZ       -16.5840  -17.3030  -28.4570 C.ar  331  TYR331      0.1957
    112  OH       -15.6460  -17.4780  -27.4640 O.3   331  TYR331     -0.2866
    113  N        -18.3350  -13.4260  -35.0730 N.3   338  TRP338     -0.1241
    114  CA       -18.2480  -12.1180  -34.4290 C.3   338  TRP338      0.1605
    115  C        -17.6400  -11.0860  -35.3370 C.2   338  TRP338      0.2264
    116  O        -18.1850   -9.9990  -35.4820 O.2   338  TRP338     -0.2867
    117  CB       -17.5020  -12.1710  -33.1110 C.3   338  TRP338      0.0550
    118  CG       -18.2810  -12.6970  -31.9430 C.ar  338  TRP338      0.0003
    119  CD1      -19.5570  -13.2370  -31.9520 C.ar  338  TRP338      0.0946
    120  CD2      -17.7900  -12.8420  -30.6080 C.ar  338  TRP338      0.0152
    121  NE1      -19.8900  -13.6500  -30.6770 N.ar  338  TRP338     -0.2442
    122  CE2      -18.8200  -13.4340  -29.8410 C.ar  338  TRP338      0.0810
    123  CE3      -16.5620  -12.5230  -29.9750 C.ar  338  TRP338      0.0012
    124  CZ2      -18.6640  -13.7280  -28.4780 C.ar  338  TRP338      0.0191
    125  CZ3      -16.4030  -12.8110  -28.6280 C.ar  338  TRP338      0.0001
    126  CH2      -17.4770  -13.4150  -27.8920 C.ar  338  TRP338      0.0015
@<TRIPOS>BOND
     1   116   115    2
     2   115   114    1
     3   113   114    1
     4   114   117    1
     5   117   118    1
     6    96    97    1
     7    96    93    1
     8    97    98    1
     9   101   102    1
    10    95    94    2
    11   102   103    1
    12   102   105    1
    13    98    99    1
    14   104   103    2
    15    99   100    1
    16   119   118   ar
    17   119   121   ar
    18   118   120   ar
    19    94    93    1
    20    93    92    1
    21   105   106    1
    22   121   122   ar
    23   120   123   ar
    24   120   122   ar
    25   108   106   ar
    26   108   110   ar
    27   106   107   ar
    28    55    54    2
    29   123   125   ar
    30   122   124   ar
    31    74    72    1
    32   110   111   ar
    33   107   109   ar
    34    54    53    1
    35    78    77    2
    36    84    83    1
    37    88    87    2
    38    72    69    1
    39    72    73    1
    40   125   126   ar
    41   124   126   ar
    42   111   109   ar
    43   111   112    1
    44    83    80    1
    45    69    68    1
    46    69    70    1
    47    62    61    2
    48    77    79   am
    49    77    76    1
    50    80    79    1
    51    80    81    1
    52    53    56    1
    53    53    52    1
    54    75    70   am
    55    75    76    1
    56    87    86    1
    57    56    57    1
    58    56    58    1
    59    61    68   am
    60    61    60    1
    61    59    60    1
    62    85    81   am
    63    85    86    1
    64    70    71    2
    65    81    82    2
    66    86    89    1
    67    60    63    1
    68    91    89    1
    69    89    90    1
    70     5     2    1
    71    63    64    1
    72     1     2    1
    73    64    65    1
    74     2     3    1
    75    29    27   am
    76    28    27    2
    77    67    66    1
    78    27    26    1
    79     6     3   am
    80     6     7    1
    81     3     4    2
    82    65    66    1
    83     8     7    1
    84     8     9    2
    85    10     7    1
    86    10    11    1
    87    26    25    1
    88    25    22    1
    89    22    21    1
    90    22    23    1
    91    23    30   am
    92    23    24    2
    93    12    13    1
    94    30    31    1
    95    33    32    2
    96    16    13    1
    97    16    17    1
    98    45    44    1
    99    45    46    1
   100    45    48    1
   101    18    19    1
   102    18    17    1
   103    50    49    2
   104    14    13    1
   105    14    15    2
   106    20    19    1
   107    46    47    2
   108    49    51   am
   109    49    48    1
   110    31    32    1
   111    31    34    1
   112    32    36   am
   113    35    34    1
   114    36    37    1
   115    37    40    1
   116    37    38    1
   117    40    41    1
   118    38    39    2
   119    41    43   am
   120    41    42    2
