@<TRIPOS>MOLECULE
tmp/5ceeA00.pdb
 176 163 0 0 0
SMALL
GASTEIGER

@<TRIPOS>ATOM
      1  N         16.2750   14.4700  -33.9870 N.3    72  LEU72      -0.1231
      2  CA        16.9540   15.1030  -32.8640 C.3    72  LEU72       0.1693
      3  C         15.9680   15.9570  -32.1010 C.2    72  LEU72       0.2592
      4  O         14.9350   15.4820  -31.6490 O.2    72  LEU72      -0.2718
      5  CB        18.1160   15.9750  -33.3190 C.3    72  LEU72       0.0284
      6  CG        18.9630   15.5520  -34.5070 C.3    72  LEU72       0.0019
      7  CD1       19.8960   16.6900  -34.8470 C.3    72  LEU72       0.0001
      8  CD2       19.7280   14.2860  -34.2030 C.3    72  LEU72       0.0001
      9  N         16.2890   17.2400  -31.9980 N.am   73  GLY73      -0.1957
     10  CA        15.3860   18.1980  -31.4060 C.3    73  GLY73       0.1869
     11  C         14.6970   19.0170  -32.4740 C.2    73  GLY73       0.2309
     12  O         14.1250   20.0650  -32.1930 O.2    73  GLY73      -0.2863
     13  N          6.4460   10.1840  -30.6340 N.3   135  SER135     -0.1217
     14  CA         5.5910    9.6290  -29.5950 C.3   135  SER135      0.1889
     15  C          4.2520   10.3330  -29.7200 C.2   135  SER135      0.2288
     16  O          4.2240   11.5410  -29.9330 O.2   135  SER135     -0.2866
     17  CB         6.1930    9.8430  -28.2070 C.3   135  SER135      0.2089
     18  OG         5.1850    9.7820  -27.2150 O.3   135  SER135     -0.2183
     19  N         15.7790    5.3980  -29.7270 N.3   157  ASP157     -0.1239
     20  CA        15.5200    6.6580  -29.0210 C.3   157  ASP157      0.1674
     21  C         14.7260    6.4590  -27.7210 C.2   157  ASP157      0.2266
     22  O         14.6650    7.3670  -26.8970 O.2   157  ASP157     -0.2867
     23  CB        14.7730    7.6590  -29.9240 C.3   157  ASP157      0.1410
     24  CG        15.6170    8.1480  -31.1000 C.2   157  ASP157      0.3668
     25  OD1       16.4570    9.0550  -30.9340 O.co2 157  ASP157     -0.2456
     26  OD2       15.4310    7.6250  -32.2080 O.co2 157  ASP157     -0.2456
     27  N         17.8160    4.5720  -25.0060 N.3   161  THR161     -0.1218
     28  CA        17.9360    5.6090  -23.9950 C.3   161  THR161      0.1862
     29  C         17.9030    5.0100  -22.5870 C.2   161  THR161      0.2287
     30  O         18.7560    5.2980  -21.7490 O.2   161  THR161     -0.2866
     31  CB        16.8190    6.6450  -24.1350 C.3   161  THR161      0.1770
     32  OG1       16.9770    7.3550  -25.3670 O.3   161  THR161     -0.2211
     33  CG2       16.8700    7.6350  -22.9810 C.3   161  THR161      0.0375
     34  N         21.1190    3.1570  -21.1310 N.3   164  VAL164     -0.1245
     35  CA        22.1430    4.0450  -20.5970 C.3   164  VAL164      0.1561
     36  C         21.6550    4.7270  -19.3200 C.2   164  VAL164      0.2260
     37  O         22.4240    4.9340  -18.3730 O.2   164  VAL164     -0.2867
     38  CB        22.5430    5.1190  -21.6090 C.3   164  VAL164      0.0252
     39  CG1       23.9350    5.6430  -21.3080 C.3   164  VAL164      0.0019
     40  CG2       22.4840    4.5640  -23.0140 C.3   164  VAL164      0.0019
     41  N         10.3310   13.5950  -15.8590 N.3   188  ASN188     -0.1225
     42  CA         9.6270   14.7120  -16.4550 C.3   188  ASN188      0.1785
     43  C          9.5560   14.6130  -17.9750 C.2   188  ASN188      0.2598
     44  O         10.5710   14.6650  -18.6700 O.2   188  ASN188     -0.2718
     45  CB        10.2840   16.0250  -16.0340 C.3   188  ASN188      0.1169
     46  CG         9.4220   17.2200  -16.3370 C.2   188  ASN188      0.2627
     47  OD1        9.8850   18.2080  -16.9160 O.2   188  ASN188     -0.2716
     48  ND2        8.1450   17.1310  -15.9680 N.am  188  ASN188     -0.0877
     49  N          8.3370   14.4740  -18.4830 N.am  189  GLY189     -0.1942
     50  CA         8.1230   14.2400  -19.8960 C.3   189  GLY189      0.2014
     51  C          7.6790   12.8160  -20.1630 C.2   189  GLY189      0.2639
     52  O          8.4860   11.8900  -20.1200 O.2   189  GLY189     -0.2714
     53  N          6.3900   12.6370  -20.4320 N.am  190  ALA190     -0.1963
     54  CA         5.8510   11.3040  -20.6550 C.3   190  ALA190      0.1728
     55  C          5.8310   10.9920  -22.1370 C.2   190  ALA190      0.2617
     56  O          4.9040   10.3610  -22.6460 O.2   190  ALA190     -0.2715
     57  CB         4.4730   11.1820  -20.0660 C.3   190  ALA190      0.0334
     58  N          6.8640   11.4460  -22.8300 N.am  191  GLY191     -0.1940
     59  CA         7.0090   11.1360  -24.2360 C.3   191  GLY191      0.2014
     60  C          7.7460    9.8230  -24.3640 C.2   191  GLY191      0.2640
     61  O          7.8610    9.0920  -23.3870 O.2   191  GLY191     -0.2714
     62  N          8.2470    9.5430  -25.5630 N.am  192  SER192     -0.1935
     63  CA         8.9370    8.2980  -25.8730 C.3   192  SER192      0.2055
     64  C          9.9850    7.9010  -24.8430 C.2   192  SER192      0.2643
     65  O          9.9240    6.8120  -24.2810 O.2   192  SER192     -0.2714
     66  CB         9.6070    8.4040  -27.2450 C.3   192  SER192      0.2130
     67  OG         8.7970    7.8560  -28.2680 O.3   192  SER192     -0.2179
     68  N         10.9500    8.7890  -24.6150 N.am  193  ALA193     -0.1963
     69  CA        12.0870    8.4870  -23.7580 C.3   193  ALA193      0.1728
     70  C         11.6930    8.4150  -22.2900 C.2   193  ALA193      0.2616
     71  O         12.2660    7.6410  -21.5380 O.2   193  ALA193     -0.2715
     72  CB        13.1680    9.5070  -23.9540 C.3   193  ALA193      0.0334
     73  N         10.7320    9.2340  -21.8820 N.am  194  GLY194     -0.1955
     74  CA        10.2390    9.1780  -20.5220 C.3   194  GLY194      0.1869
     75  C          9.5690    7.8350  -20.3020 C.2   194  GLY194      0.2309
     76  O          9.9480    7.0710  -19.4160 O.2   194  GLY194     -0.2863
     77  N          4.0950   15.2850  -17.0060 N.3   213  ASP213     -0.1225
     78  CA         4.0830   15.8890  -18.3290 C.3   213  ASP213      0.1805
     79  C          4.0000   17.4090  -18.2280 C.2   213  ASP213      0.2597
     80  O          4.0040   17.9610  -17.1250 O.2   213  ASP213     -0.2718
     81  CB         2.9210   15.3320  -19.1530 C.3   213  ASP213      0.1424
     82  CG         3.2200   15.3170  -20.6380 C.2   213  ASP213      0.3668
     83  OD1        4.1090   14.5420  -21.0620 O.co2 213  ASP213     -0.2456
     84  OD2        2.5640   16.0740  -21.3860 O.co2 213  ASP213     -0.2456
     85  N          3.8960   18.0790  -19.3760 N.am  214  LYS214     -0.1979
     86  CA         3.9030   19.5460  -19.4370 C.3   214  LYS214      0.1596
     87  C          2.6880   20.1830  -18.7710 C.2   214  LYS214      0.2287
     88  O          2.4970   21.4000  -18.8390 O.2   214  LYS214     -0.2864
     89  CB         3.9790   20.0190  -20.8940 C.3   214  LYS214      0.0298
     90  CG         2.7500   19.6440  -21.7020 C.3   214  LYS214      0.0038
     91  CD         2.5730   20.5000  -22.9460 C.3   214  LYS214      0.0206
     92  CE         3.7290   20.3620  -23.9200 C.3   214  LYS214      0.1093
     93  NZ         4.9370   21.0950  -23.4530 N.3   214  LYS214     -0.1314
     94  N          0.4110    6.0550  -22.5080 N.3   229  GLN229     -0.1245
     95  CA         0.4240    6.7400  -21.2240 C.3   229  GLN229      0.1566
     96  C         -0.5330    6.0160  -20.2840 C.2   229  GLN229      0.2260
     97  O         -0.1840    5.7240  -19.1520 O.2   229  GLN229     -0.2867
     98  CB         0.0560    8.2200  -21.3750 C.3   229  GLN229      0.0367
     99  CG         1.2140    9.0850  -21.8730 C.3   229  GLN229      0.0905
    100  CD         0.8610   10.5590  -22.0390 C.2   229  GLN229      0.2608
    101  OE1       -0.3100   10.9350  -22.0540 O.2   229  GLN229     -0.2717
    102  NE2        1.8830   11.4000  -22.1660 N.am  229  GLN229     -0.0878
    103  N         13.6360   14.5070  -19.1790 N.3   258  VAL258     -0.1231
    104  CA        13.7540   14.3400  -20.6130 C.3   258  VAL258      0.1692
    105  C         12.6390   15.1640  -21.2450 C.2   258  VAL258      0.2593
    106  O         11.7040   14.6300  -21.8340 O.2   258  VAL258     -0.2718
    107  CB        13.6570   12.8490  -21.0370 C.3   258  VAL258      0.0266
    108  CG1       14.9340   12.1280  -20.7150 C.3   258  VAL258      0.0020
    109  CG2       12.4950   12.1500  -20.3590 C.3   258  VAL258      0.0020
    110  N         12.7260   16.4770  -21.1040 N.am  259  SER259     -0.1938
    111  CA        11.5840   17.3240  -21.4200 C.3   259  SER259      0.2055
    112  C         11.9490   18.6860  -21.9900 C.2   259  SER259      0.2642
    113  O         11.6800   18.9600  -23.1590 O.2   259  SER259     -0.2714
    114  CB        10.7180   17.5200  -20.1670 C.3   259  SER259      0.2130
    115  OG        11.5010   17.9380  -19.0630 O.3   259  SER259     -0.2179
    116  N         12.5590   19.5340  -21.1690 N.am  260  ALA260     -0.1977
    117  CA        12.6420   20.9540  -21.4870 C.3   260  ALA260      0.1597
    118  C         13.8730   21.6190  -20.8790 C.2   260  ALA260      0.2287
    119  O         14.5820   21.0100  -20.0900 O.2   260  ALA260     -0.2864
    120  CB        11.3650   21.6630  -21.0150 C.3   260  ALA260      0.0319
    121  N         13.5550   24.1500  -16.3170 N.3   263  ILE263     -0.1245
    122  CA        12.2700   24.0830  -15.6270 C.3   263  ILE263      0.1561
    123  C         12.4800   23.6680  -14.1710 C.2   263  ILE263      0.2260
    124  O         11.5340   23.6000  -13.3860 O.2   263  ILE263     -0.2867
    125  CB        11.2840   23.1010  -16.3240 C.3   263  ILE263      0.0252
    126  CG1        9.8350   23.5050  -16.0190 C.3   263  ILE263      0.0019
    127  CG2       11.5790   21.6600  -15.9250 C.3   263  ILE263      0.0019
    128  CD1        8.7760   22.4850  -16.4200 C.3   263  ILE263      0.0001
    129  N         18.7800   15.6020  -18.9840 N.3   281  LEU281     -0.1231
    130  CA        19.2200   15.0460  -20.2390 C.3   281  LEU281      0.1693
    131  C         18.6080   15.7900  -21.4170 C.2   281  LEU281      0.2592
    132  O         18.8830   15.4690  -22.5680 O.2   281  LEU281     -0.2718
    133  CB        18.8640   13.5650  -20.2880 C.3   281  LEU281      0.0284
    134  CG        19.2760   12.7910  -19.0320 C.3   281  LEU281      0.0019
    135  CD1       19.0390   11.3010  -19.2110 C.3   281  LEU281      0.0001
    136  CD2       20.7250   13.0580  -18.6390 C.3   281  LEU281      0.0001
    137  N         17.7850   16.7930  -21.1290 N.am  282  ALA282     -0.1966
    138  CA        17.2680   17.6430  -22.1840 C.3   282  ALA282      0.1728
    139  C         18.4410   18.3090  -22.8800 C.2   282  ALA282      0.2616
    140  O         19.4660   18.5820  -22.2550 O.2   282  ALA282     -0.2715
    141  CB        16.3110   18.6630  -21.6390 C.3   282  ALA282      0.0334
    142  N         18.2940   18.5500  -24.1770 N.am  283  ASN283     -0.1972
    143  CA        19.4070   18.9950  -25.0060 C.3   283  ASN283      0.1688
    144  C         18.9960   20.0830  -25.9780 C.2   283  ASN283      0.2292
    145  O         17.9120   20.0170  -26.5480 O.2   283  ASN283     -0.2864
    146  CB        19.9870   17.8170  -25.7840 C.3   283  ASN283      0.1181
    147  CG        21.0160   17.0520  -24.9980 C.2   283  ASN283      0.2629
    148  OD1       20.8440   15.8610  -24.7020 O.2   283  ASN283     -0.2716
    149  ND2       22.1090   17.7250  -24.6640 N.am  283  ASN283     -0.0877
    150  N         23.0610   15.3320  -20.7180 N.3   304  GLY304     -0.1225
    151  CA        23.2850   14.7920  -22.0430 C.3   304  GLY304      0.1811
    152  C         24.4220   15.5080  -22.7560 C.2   304  GLY304      0.2280
    153  O         24.5010   15.5010  -23.9860 O.2   304  GLY304     -0.2866
    154  N         25.0350   10.9920  -20.4150 N.3   312  VAL312     -0.1231
    155  CA        24.1750    9.9800  -20.9690 C.3   312  VAL312      0.1692
    156  C         24.3700   10.0740  -22.4730 C.2   312  VAL312      0.2592
    157  O         24.0800   11.1070  -23.0700 O.2   312  VAL312     -0.2718
    158  CB        22.7100   10.1880  -20.5520 C.3   312  VAL312      0.0266
    159  CG1       21.8050    9.1550  -21.2060 C.3   312  VAL312      0.0020
    160  CG2       22.6040   10.0840  -19.0530 C.3   312  VAL312      0.0020
    161  N         24.9230    9.0130  -23.0590 N.am  313  ASN313     -0.1960
    162  CA        25.1960    8.9440  -24.4960 C.3   313  ASN313      0.1819
    163  C         24.5350    7.7210  -25.1320 C.2   313  ASN313      0.2621
    164  O         24.7580    6.6020  -24.6880 O.2   313  ASN313     -0.2715
    165  CB        26.7070    8.9130  -24.7450 C.3   313  ASN313      0.1195
    166  CG        27.0830    9.2830  -26.1760 C.2   313  ASN313      0.2630
    167  OD1       26.5870    8.7040  -27.1480 O.2   313  ASN313     -0.2716
    168  ND2       27.9730   10.2560  -26.3070 N.am  313  ASN313     -0.0877
    169  N         23.7300    7.9300  -26.1720 N.am  314  ASN314     -0.1972
    170  CA        23.0180    6.8240  -26.8140 C.3   314  ASN314      0.1688
    171  C         23.9470    5.8100  -27.4970 C.2   314  ASN314      0.2292
    172  O         23.6360    4.6160  -27.5460 O.2   314  ASN314     -0.2864
    173  CB        21.9940    7.3680  -27.8200 C.3   314  ASN314      0.1181
    174  CG        20.7880    8.0150  -27.1350 C.2   314  ASN314      0.2629
    175  OD1       20.9340    8.9890  -26.3930 O.2   314  ASN314     -0.2716
    176  ND2       19.5920    7.4780  -27.3910 N.am  314  ASN314     -0.0877
@<TRIPOS>BOND
     1     7     6    1
     2     6     8    1
     3     6     5    1
     4     1     2    1
     5     5     2    1
     6     2     3    1
     7    11    12    2
     8    11    10    1
     9    26    24   ar
    10     3     9   am
    11     3     4    2
    12     9    10    1
    13    24    25   ar
    14    24    23    1
    15    13    14    1
    16    16    15    2
    17    23    20    1
    18    19    20    1
    19    15    14    1
    20    14    17    1
    21    20    21    1
    22    67    66    1
    23    17    18    1
    24   173   174    1
    25   173   170    1
    26    21    22    2
    27   172   171    2
    28   171   170    1
    29   176   174   am
    30    66    63    1
    31   167   166    2
    32   174   175    2
    33   170   169    1
    34   145   144    2
    35   168   166   am
    36   166   165    1
    37   169   163   am
    38   144   143    1
    39    63    62    1
    40    63    64    1
    41   146   143    1
    42   146   147    1
    43    62    60   am
    44    32    31    1
    45   163   164    2
    46   163   162    1
    47    27    28    1
    48   143   142    1
    49   147   148    2
    50   147   149   am
    51    64    68   am
    52    64    65    2
    53   165   162    1
    54    68    69    1
    55   162   161    1
    56    60    59    1
    57    60    61    2
    58    59    58    1
    59   142   139   am
    60    31    28    1
    61    31    33    1
    62    28    29    1
    63   153   152    2
    64    72    69    1
    65    92    93    1
    66    92    91    1
    67    69    70    1
    68   113   112    2
    69   157   156    2
    70   161   156   am
    71    40    38    1
    72    91    90    1
    73   139   140    2
    74   139   138    1
    75    58    55   am
    76   152   151    1
    77    56    55    2
    78    29    30    2
    79   132   131    2
    80    94    95    1
    81   156   155    1
    82    70    73   am
    83    70    71    2
    84   138   141    1
    85   138   137    1
    86   102   100   am
    87    55    54    1
    88   101   100    2
    89   151   150    1
    90   100    99    1
    91   112   111    1
    92   112   116   am
    93    73    74    1
    94    99    98    1
    95   106   105    2
    96    90    89    1
    97    38    39    1
    98    38    35    1
    99   117   116    1
   100   117   120    1
   101   117   118    1
   102   111   110    1
   103   111   114    1
   104   131   137   am
   105   131   130    1
   106    84    82   ar
   107    98    95    1
   108   105   110   am
   109   105   104    1
   110    95    96    1
   111   159   158    1
   112    34    35    1
   113    83    82   ar
   114   107   108    1
   115   107   104    1
   116   107   109    1
   117   155   158    1
   118   155   154    1
   119    89    86    1
   120   118   119    2
   121    54    53    1
   122    54    57    1
   123    82    81    1
   124   104   103    1
   125    35    36    1
   126   158   160    1
   127    74    75    1
   128    53    51   am
   129    75    76    2
   130   133   130    1
   131   133   134    1
   132    96    97    2
   133   130   129    1
   134   114   115    1
   135    51    52    2
   136    51    50    1
   137    50    49    1
   138    86    85    1
   139    86    87    1
   140    85    79   am
   141    36    37    2
   142   135   134    1
   143    81    78    1
   144   134   136    1
   145    88    87    2
   146    44    43    2
   147    49    43   am
   148    78    79    1
   149    78    77    1
   150    79    80    2
   151    43    42    1
   152    47    46    2
   153    42    45    1
   154    42    41    1
   155   128   126    1
   156    46    45    1
   157    46    48   am
   158   125   126    1
   159   125   127    1
   160   125   122    1
   161   121   122    1
   162   122   123    1
   163   123   124    2
