@<TRIPOS>MOLECULE
tmp/5cehA00.pdb
 163 157 0 0 0
SMALL
GASTEIGER

@<TRIPOS>ATOM
      1  N        123.8000  364.1190  123.0280 N.3    62  ARG62      -0.1245
      2  CA       125.0540  363.4140  123.3120 C.3    62  ARG62       0.1563
      3  C        125.9200  364.3190  124.1850 C.2    62  ARG62       0.2260
      4  O        125.5610  365.4710  124.4290 O.2    62  ARG62      -0.2867
      5  CB       125.7680  363.0260  122.0160 C.3    62  ARG62       0.0307
      6  CG       125.3460  361.6680  121.4760 C.3    62  ARG62       0.0489
      7  CD       125.5370  361.5910  119.9760 C.3    62  ARG62       0.2205
      8  NE       125.6060  360.2110  119.5020 N.pl3  62  ARG62      -0.0865
      9  CZ       126.0910  359.8510  118.3140 C.cat  62  ARG62       0.5346
     10  NH1      126.5420  360.7760  117.4690 N.pl3  62  ARG62       0.1354
     11  NH2      126.1290  358.5640  117.9710 N.pl3  62  ARG62       0.1354
     12  N        129.9730  365.6700  125.7860 N.3    64  GLN64      -0.1245
     13  CA       131.3860  365.9350  125.5200 C.3    64  GLN64       0.1566
     14  C        132.1290  366.4310  126.7610 C.2    64  GLN64       0.2260
     15  O        131.7610  367.4570  127.3460 O.2    64  GLN64      -0.2867
     16  CB       131.5080  366.9960  124.4340 C.3    64  GLN64       0.0367
     17  CG       131.2760  366.4990  123.0340 C.3    64  GLN64       0.0905
     18  CD       131.4020  367.6120  122.0250 C.2    64  GLN64       0.2608
     19  OE1      131.2280  368.7850  122.3570 O.2    64  GLN64      -0.2717
     20  NE2      131.7260  367.2590  120.7920 N.am   64  GLN64      -0.0878
     21  N        125.3920  368.3900  123.1200 N.3   221  TYR221     -0.1227
     22  CA       125.0810  368.7590  121.7450 C.3   221  TYR221      0.1736
     23  C        124.0940  367.7410  121.2180 C.2   221  TYR221      0.2596
     24  O        123.7300  366.8110  121.9350 O.2   221  TYR221     -0.2718
     25  CB       126.3440  368.7490  120.8800 C.3   221  TYR221      0.0548
     26  CG       126.9290  367.3620  120.6660 C.ar  221  TYR221     -0.0200
     27  CD1      127.7180  366.7550  121.6390 C.ar  221  TYR221     -0.0009
     28  CD2      126.6850  366.6550  119.4970 C.ar  221  TYR221     -0.0009
     29  CE1      128.2500  365.4770  121.4480 C.ar  221  TYR221      0.0417
     30  CE2      127.2090  365.3720  119.2970 C.ar  221  TYR221      0.0417
     31  CZ       127.9910  364.7880  120.2720 C.ar  221  TYR221      0.1957
     32  OH       128.5000  363.5130  120.0780 O.3   221  TYR221     -0.2866
     33  N        123.6730  367.8910  119.9680 N.am  222  GLY222     -0.1942
     34  CA       122.9690  366.8050  119.3140 C.3   222  GLY222      0.2014
     35  C        123.2030  366.8450  117.8160 C.2   222  GLY222      0.2638
     36  O        123.2750  367.9240  117.1950 O.2   222  GLY222     -0.2714
     37  N        123.2420  365.6410  117.2420 N.am  223  ALA223     -0.1977
     38  CA       123.7420  365.4070  115.8840 C.3   223  ALA223      0.1597
     39  C        123.4450  363.9600  115.5120 C.2   223  ALA223      0.2287
     40  O        122.8700  363.2150  116.3210 O.2   223  ALA223     -0.2864
     41  CB       125.2390  365.6810  115.7950 C.3   223  ALA223      0.0319
     42  N        122.6200  369.9070  113.1720 N.3   284  TYR284     -0.1227
     43  CA       123.4820  370.0330  114.3320 C.3   284  TYR284      0.1736
     44  C        122.9180  371.1000  115.2500 C.2   284  TYR284      0.2595
     45  O        122.9520  372.2980  114.9300 O.2   284  TYR284     -0.2718
     46  CB       124.8970  370.4240  113.9050 C.3   284  TYR284      0.0548
     47  CG       125.4800  369.5780  112.7950 C.ar  284  TYR284     -0.0200
     48  CD1      125.2480  369.8930  111.4650 C.ar  284  TYR284     -0.0009
     49  CD2      126.2650  368.4630  113.0720 C.ar  284  TYR284     -0.0009
     50  CE1      125.7870  369.1190  110.4340 C.ar  284  TYR284      0.0417
     51  CE2      126.8080  367.6810  112.0490 C.ar  284  TYR284      0.0417
     52  CZ       126.5680  368.0110  110.7300 C.ar  284  TYR284      0.1957
     53  OH       127.1040  367.2430  109.7110 O.3   284  TYR284     -0.2866
     54  N        122.4110  370.6740  116.3980 N.am  285  VAL285     -0.1980
     55  CA       121.9830  371.6180  117.4220 C.3   285  VAL285      0.1595
     56  C        123.1500  371.7210  118.3990 C.2   285  VAL285      0.2287
     57  O        123.7690  370.7050  118.7340 O.2   285  VAL285     -0.2864
     58  CB       120.6590  371.1750  118.1240 C.3   285  VAL285      0.0276
     59  CG1      120.8550  369.8680  118.8580 C.3   285  VAL285      0.0022
     60  CG2      120.1680  372.2360  119.0740 C.3   285  VAL285      0.0022
     61  N        130.3950  373.4580  122.6380 N.3   290  SER290     -0.1202
     62  CA       130.1740  372.2230  121.8890 C.3   290  SER290      0.2020
     63  C        131.1120  372.2950  120.6960 C.2   290  SER290      0.2619
     64  O        131.3040  373.3660  120.1230 O.2   290  SER290     -0.2717
     65  CB       128.7140  372.0740  121.4470 C.3   290  SER290      0.2103
     66  OG       128.3200  373.1200  120.5750 O.3   290  SER290     -0.2182
     67  N        131.7170  371.1650  120.3430 N.am  291  SER291     -0.1937
     68  CA       132.7940  371.1440  119.3570 C.3   291  SER291      0.2055
     69  C        132.6800  369.9650  118.4000 C.2   291  SER291      0.2643
     70  O        131.9450  369.0110  118.6470 O.2   291  SER291     -0.2714
     71  CB       134.1460  371.0850  120.0700 C.3   291  SER291      0.2130
     72  OG       134.2010  369.9800  120.9670 O.3   291  SER291     -0.2179
     73  N        133.4120  370.0440  117.2970 N.am  292  PHE292     -0.1959
     74  CA       133.5530  368.9110  116.3960 C.3   292  PHE292      0.1771
     75  C        135.0170  368.7660  115.9750 C.2   292  PHE292      0.2619
     76  O        135.6410  369.7120  115.4960 O.2   292  PHE292     -0.2715
     77  CB       132.5890  369.0120  115.1980 C.3   292  PHE292      0.0574
     78  CG       132.7410  370.2690  114.3710 C.ar  292  PHE292     -0.0200
     79  CD1      132.2860  371.4920  114.8480 C.ar  292  PHE292     -0.0042
     80  CD2      133.3260  370.2230  113.1100 C.ar  292  PHE292     -0.0042
     81  CE1      132.4280  372.6630  114.0950 C.ar  292  PHE292     -0.0003
     82  CE2      133.4750  371.3860  112.3460 C.ar  292  PHE292     -0.0003
     83  CZ       133.0190  372.6110  112.8430 C.ar  292  PHE292     -0.0000
     84  N        135.5590  367.5740  116.1980 N.am  293  CYS293     -0.1968
     85  CA       136.9760  367.3040  116.0110 C.3   293  CYS293      0.1712
     86  C        137.4040  367.3270  114.5400 C.2   293  CYS293      0.2296
     87  O        136.5730  367.2690  113.6300 O.2   293  CYS293     -0.2864
     88  CB       137.3250  365.9570  116.6500 C.3   293  CYS293      0.0983
     89  SG       136.9580  365.8770  118.4390 S.3   293  CYS293     -0.0798
     90  N        138.5410  366.4620  110.9400 N.3   295  HIS295     -0.1241
     91  CA       138.0420  365.3970  110.0900 C.3   295  HIS295      0.1621
     92  C        137.8150  365.8850  108.6800 C.2   295  HIS295      0.2264
     93  O        137.7130  367.0850  108.4250 O.2   295  HIS295     -0.2867
     94  CB       136.7040  364.8770  110.6080 C.3   295  HIS295      0.0745
     95  CG       135.5510  365.7750  110.2930 C.ar  295  HIS295      0.0817
     96  ND1      135.0910  366.7260  111.1770 N.ar  295  HIS295     -0.2268
     97  CD2      134.7680  365.8710  109.1910 C.ar  295  HIS295      0.1154
     98  CE1      134.0670  367.3660  110.6370 C.ar  295  HIS295      0.1986
     99  NE2      133.8540  366.8700  109.4310 N.ar  295  HIS295     -0.2212
    100  N        135.3540  364.7490  105.0750 N.3   297  GLU297     -0.1245
    101  CA       134.0870  364.0930  104.7800 C.3   297  GLU297      0.1567
    102  C        134.3060  362.7150  104.1110 C.2   297  GLU297      0.2260
    103  O        135.3440  362.4730  103.4910 O.2   297  GLU297     -0.2867
    104  CB       133.1990  365.0160  103.9310 C.3   297  GLU297      0.0388
    105  CG       132.9840  366.4100  104.4990 C.3   297  GLU297      0.1160
    106  CD       132.1900  366.4300  105.7920 C.2   297  GLU297      0.3649
    107  OE1      131.1190  365.7740  105.8430 O.co2 297  GLU297     -0.2457
    108  OE2      132.6270  367.1120  106.7540 O.co2 297  GLU297     -0.2457
    109  N        131.2200  369.7130  101.6960 N.3   303  SER303     -0.1217
    110  CA       130.0960  369.8400  102.6030 C.3   303  SER303      0.1889
    111  C        129.7300  371.3060  102.6550 C.2   303  SER303      0.2288
    112  O        130.5970  372.1530  102.8400 O.2   303  SER303     -0.2866
    113  CB       130.4400  369.3190  104.0010 C.3   303  SER303      0.2089
    114  OG       131.2880  370.2310  104.6840 O.3   303  SER303     -0.2183
    115  N        127.2280  374.1350  104.6550 N.3   305  ASN305     -0.1240
    116  CA       126.5950  374.2510  105.9570 C.3   305  ASN305      0.1653
    117  C        125.9150  375.6040  106.1300 C.2   305  ASN305      0.2266
    118  O        126.5600  376.6550  106.0720 O.2   305  ASN305     -0.2867
    119  CB       127.6470  374.0280  107.0510 C.3   305  ASN305      0.1155
    120  CG       127.0460  373.9890  108.4690 C.2   305  ASN305      0.2627
    121  OD1      126.2450  374.8530  108.8530 O.2   305  ASN305     -0.2716
    122  ND2      127.4530  372.9870  109.2570 N.am  305  ASN305     -0.0877
    123  N        128.9950  380.0390  114.8290 N.3   313  LYS313     -0.1245
    124  CA       129.7410  378.7850  114.7850 C.3   313  LYS313      0.1561
    125  C        131.1520  379.0290  114.2430 C.2   313  LYS313      0.2260
    126  O        131.3320  379.5030  113.1150 O.2   313  LYS313     -0.2867
    127  CB       129.0090  377.7620  113.9210 C.3   313  LYS313      0.0271
    128  CG       129.8900  376.6170  113.4100 C.3   313  LYS313      0.0035
    129  CD       129.2540  375.2410  113.5840 C.3   313  LYS313      0.0206
    130  CE       127.9000  375.1370  112.9160 C.3   313  LYS313      0.1093
    131  NZ       126.9450  374.4380  113.8120 N.3   313  LYS313     -0.1314
    132  N        134.8270  377.9920  112.8300 N.3   315  TRP315     -0.1241
    133  CA       135.4170  376.9610  111.9840 C.3   315  TRP315      0.1605
    134  C        136.9240  377.1190  111.9620 C.2   315  TRP315      0.2264
    135  O        137.4460  378.2180  112.1950 O.2   315  TRP315     -0.2867
    136  CB       134.9160  377.0950  110.5510 C.3   315  TRP315      0.0550
    137  CG       133.4640  376.7960  110.3640 C.ar  315  TRP315      0.0003
    138  CD1      132.4090  377.6300  110.6100 C.ar  315  TRP315      0.0946
    139  CD2      132.9040  375.5800  109.8740 C.ar  315  TRP315      0.0152
    140  NE1      131.2290  377.0010  110.3030 N.ar  315  TRP315     -0.2442
    141  CE2      131.5070  375.7390  109.8510 C.ar  315  TRP315      0.0810
    142  CE3      133.4490  374.3680  109.4520 C.ar  315  TRP315      0.0012
    143  CZ2      130.6530  374.7300  109.4280 C.ar  315  TRP315      0.0191
    144  CZ3      132.6010  373.3720  109.0300 C.ar  315  TRP315      0.0001
    145  CH2      131.2190  373.5560  109.0200 C.ar  315  TRP315      0.0015
    146  N        138.6650  369.9940  108.5700 N.3   383  HIS383     -0.1241
    147  CA       138.0150  371.0760  109.3030 C.3   383  HIS383      0.1621
    148  C        137.6160  370.6570  110.7130 C.2   383  HIS383      0.2264
    149  O        137.5190  369.4660  111.0260 O.2   383  HIS383     -0.2867
    150  CB       136.8170  371.6410  108.5280 C.3   383  HIS383      0.0745
    151  CG       135.7550  370.6350  108.2230 C.ar  383  HIS383      0.0817
    152  ND1      135.7590  369.8700  107.0760 N.ar  383  HIS383     -0.2268
    153  CD2      134.6400  370.2820  108.9070 C.ar  383  HIS383      0.1154
    154  CE1      134.6960  369.0840  107.0700 C.ar  383  HIS383      0.1986
    155  NE2      133.9990  369.3120  108.1700 N.ar  383  HIS383     -0.2212
    156  N        130.9720  375.8140  118.7150 N.3   387  ASN387     -0.1240
    157  CA       129.8640  376.7520  118.6590 C.3   387  ASN387      0.1653
    158  C        129.9880  377.7770  119.7890 C.2   387  ASN387      0.2266
    159  O        130.4440  377.4460  120.8980 O.2   387  ASN387     -0.2867
    160  CB       128.5360  375.9920  118.7400 C.3   387  ASN387      0.1155
    161  CG       128.3090  375.0690  117.5390 C.2   387  ASN387      0.2627
    162  OD1      127.9420  375.5270  116.4560 O.2   387  ASN387     -0.2716
    163  ND2      128.5200  373.7670  117.7320 N.am  387  ASN387     -0.0877
@<TRIPOS>BOND
     1   109   110    1
     2   110   111    1
     3   110   113    1
     4   111   112    2
     5   103   102    2
     6   104   105    1
     7   104   101    1
     8   113   114    1
     9   102   101    1
    10   105   106    1
    11   115   116    1
    12   101   100    1
    13   106   107   ar
    14   106   108   ar
    15   116   117    1
    16   116   119    1
    17   118   117    2
    18   119   120    1
    19   154   152   ar
    20   154   155   ar
    21   152   151   ar
    22   155   153   ar
    23   151   150    1
    24   151   153   ar
    25    93    92    2
    26   120   121    2
    27   120   122   am
    28   150   147    1
    29   146   147    1
    30    92    91    1
    31   145   144   ar
    32   145   143   ar
    33   144   142   ar
    34    97    99   ar
    35    97    95   ar
    36   147   148    1
    37   143   141   ar
    38    99    98   ar
    39   142   139   ar
    40    53    52    1
    41   141   139   ar
    42   141   140   ar
    43   139   137   ar
    44    91    94    1
    45    91    90    1
    46    95    94    1
    47    95    96   ar
    48   140   138   ar
    49   137   136    1
    50   137   138   ar
    51    50    52   ar
    52    50    48   ar
    53   136   133    1
    54    98    96   ar
    55   148   149    2
    56    52    51   ar
    57    48    47   ar
    58   134   133    1
    59   134   135    2
    60   133   132    1
    61    51    49   ar
    62    82    83   ar
    63    82    80   ar
    64    47    49   ar
    65    47    46    1
    66    83    81   ar
    67   130   129    1
    68   130   131    1
    69    80    78   ar
    70   126   125    2
    71    42    43    1
    72   128   129    1
    73   128   127    1
    74    87    86    2
    75    46    43    1
    76   127   124    1
    77    81    79   ar
    78   125   124    1
    79    43    44    1
    80    78    79   ar
    81    78    77    1
    82    86    85    1
    83   124   123    1
    84    45    44    2
    85    77    74    1
    86    44    54   am
    87    76    75    2
    88    39    38    1
    89    39    40    2
    90    41    38    1
    91    38    37    1
    92    75    84   am
    93    75    74    1
    94    85    84    1
    95    85    88    1
    96    74    73    1
    97    54    55    1
    98   162   161    2
    99    88    89    1
   100    36    35    2
   101    37    35   am
   102    73    69   am
   103    55    58    1
   104    55    56    1
   105    10     9    1
   106   161   163   am
   107   161   160    1
   108    35    34    1
   109    11     9    1
   110    58    59    1
   111    58    60    1
   112     9     8    2
   113    56    57    2
   114    69    70    2
   115    69    68    1
   116   157   156    1
   117   157   160    1
   118   157   158    1
   119    30    28   ar
   120    30    31   ar
   121    34    33    1
   122    68    71    1
   123    68    67    1
   124    28    26   ar
   125     8     7    1
   126   158   159    2
   127    33    23   am
   128     7     6    1
   129    71    72    1
   130    32    31    1
   131    64    63    2
   132    31    29   ar
   133    67    63   am
   134    66    65    1
   135    26    25    1
   136    26    27   ar
   137    63    62    1
   138    20    18   am
   139    25    22    1
   140    23    22    1
   141    23    24    2
   142    65    62    1
   143    29    27   ar
   144     6     5    1
   145    22    21    1
   146    62    61    1
   147     5     2    1
   148    18    19    2
   149    18    17    1
   150     1     2    1
   151    17    16    1
   152     2     3    1
   153     3     4    2
   154    16    13    1
   155    13    12    1
   156    13    14    1
   157    14    15    2
