@<TRIPOS>MOLECULE
tmp/5ceiA00.pdb
 157 150 0 0 0
SMALL
GASTEIGER

@<TRIPOS>ATOM
      1  N          2.7920   61.7320   44.7890 N.3    28  VAL28      -0.1231
      2  CA         3.6630   60.5860   44.5410 C.3    28  VAL28       0.1692
      3  C          3.1460   59.3380   45.2380 C.2    28  VAL28       0.2592
      4  O          3.5760   58.2320   44.9280 O.2    28  VAL28      -0.2718
      5  CB         5.1160   60.8570   45.0050 C.3    28  VAL28       0.0266
      6  CG1        5.7300   61.9650   44.1750 C.3    28  VAL28       0.0020
      7  CG2        5.1670   61.2060   46.4960 C.3    28  VAL28       0.0020
      8  N          2.2200   59.5200   46.1750 N.am   29  GLY29      -0.1957
      9  CA         1.6600   58.4100   46.9270 C.3    29  GLY29       0.1869
     10  C          0.2120   58.6590   47.3050 C.2    29  GLY29       0.2309
     11  O         -0.1550   59.7550   47.7030 O.2    29  GLY29      -0.2863
     12  N         -3.8110   55.8460   54.1940 N.3    33  TYR33      -0.1241
     13  CA        -3.2680   56.9000   55.0380 C.3    33  TYR33       0.1605
     14  C         -3.7170   58.2810   54.5610 C.2    33  TYR33       0.2264
     15  O         -3.9710   59.1750   55.3700 O.2    33  TYR33      -0.2867
     16  CB        -1.7410   56.8290   55.0650 C.3    33  TYR33       0.0534
     17  CG        -1.0840   56.7540   53.7020 C.ar   33  TYR33      -0.0201
     18  CD1       -0.8170   57.9060   52.9680 C.ar   33  TYR33      -0.0009
     19  CD2       -0.7090   55.5290   53.1570 C.ar   33  TYR33      -0.0009
     20  CE1       -0.2060   57.8350   51.7240 C.ar   33  TYR33       0.0417
     21  CE2       -0.1000   55.4480   51.9210 C.ar   33  TYR33       0.0417
     22  CZ         0.1520   56.6010   51.2070 C.ar   33  TYR33       0.1957
     23  OH         0.7630   56.5170   49.9740 O.3    33  TYR33      -0.2866
     24  N          0.3030   61.6800   49.5660 N.3    36  VAL36      -0.1245
     25  CA         1.6670   62.1940   49.7430 C.3    36  VAL36       0.1561
     26  C          2.1190   62.9600   48.4980 C.2    36  VAL36       0.2260
     27  O          1.9910   62.4710   47.3710 O.2    36  VAL36      -0.2867
     28  CB         2.6770   61.0570   50.0360 C.3    36  VAL36       0.0252
     29  CG1        4.0980   61.5960   50.1100 C.3    36  VAL36       0.0019
     30  CG2        2.3320   60.3720   51.3410 C.3    36  VAL36       0.0019
     31  N          8.3720   65.9680   51.5080 N.3    51  ALA51      -0.1245
     32  CA         7.2040   65.1300   51.3660 C.3    51  ALA51       0.1562
     33  C          6.0980   65.7250   52.2200 C.2    51  ALA51       0.2260
     34  O          6.2700   65.8870   53.4230 O.2    51  ALA51      -0.2867
     35  CB         7.5150   63.6860   51.7970 C.3    51  ALA51       0.0290
     36  N          2.2980   65.1770   53.5350 N.3    53  LYS53      -0.1245
     37  CA         1.3440   64.1000   53.7320 C.3    53  LYS53       0.1561
     38  C          0.0270   64.6550   54.2500 C.2    53  LYS53       0.2260
     39  O         -0.0520   65.1520   55.3720 O.2    53  LYS53      -0.2867
     40  CB         1.9250   63.0650   54.7020 C.3    53  LYS53       0.0271
     41  CG         1.0140   61.9020   55.0600 C.3    53  LYS53       0.0035
     42  CD         1.7690   60.9570   55.9910 C.3    53  LYS53       0.0206
     43  CE         0.8880   59.9020   56.5970 C.3    53  LYS53       0.1093
     44  NZ         1.7100   58.9160   57.3480 N.3    53  LYS53      -0.1314
     45  N         11.9980   58.0320   59.7040 N.3    80  ILE80      -0.1245
     46  CA        11.6220   59.2520   59.0100 C.3    80  ILE80       0.1561
     47  C         11.2510   60.3110   60.0410 C.2    80  ILE80       0.2260
     48  O         10.5660   60.0330   61.0280 O.2    80  ILE80      -0.2867
     49  CB        10.4610   59.0200   58.0250 C.3    80  ILE80       0.0252
     50  CG1       10.3540   60.2130   57.0750 C.3    80  ILE80       0.0019
     51  CG2        9.1610   58.7730   58.7740 C.3    80  ILE80       0.0019
     52  CD1        9.4020   60.0040   55.9320 C.3    80  ILE80       0.0001
     53  N          7.7120   66.0110   55.9000 N.3    98  PHE98      -0.1227
     54  CA         8.8960   65.1770   56.0660 C.3    98  PHE98       0.1736
     55  C          9.9320   65.5640   55.0260 C.2    98  PHE98       0.2595
     56  O          9.5850   66.1270   53.9860 O.2    98  PHE98      -0.2718
     57  CB         8.5700   63.6880   55.8980 C.3    98  PHE98       0.0547
     58  CG         7.4700   63.2010   56.7790 C.ar   98  PHE98      -0.0202
     59  CD1        7.7340   62.7930   58.0730 C.ar   98  PHE98      -0.0042
     60  CD2        6.1660   63.1560   56.3140 C.ar   98  PHE98      -0.0042
     61  CE1        6.7220   62.3430   58.8810 C.ar   98  PHE98      -0.0003
     62  CE2        5.1380   62.7050   57.1210 C.ar   98  PHE98      -0.0003
     63  CZ         5.4140   62.2950   58.4050 C.ar   98  PHE98      -0.0000
     64  N         11.1970   65.2490   55.2930 N.am   99  ASP99      -0.1960
     65  CA        12.2030   65.2620   54.2410 C.3    99  ASP99       0.1840
     66  C         11.7650   64.2100   53.2220 C.2    99  ASP99       0.2622
     67  O         11.1310   63.2220   53.5830 O.2    99  ASP99      -0.2715
     68  CB        13.6030   64.9700   54.7840 C.3    99  ASP99       0.1450
     69  CG        14.1480   66.0980   55.6560 C.2    99  ASP99       0.3671
     70  OD1       13.6500   67.2390   55.5550 O.co2  99  ASP99      -0.2456
     71  OD2       15.0900   65.8400   56.4360 O.co2  99  ASP99      -0.2456
     72  N         12.0760   64.4540   51.9550 N.am  100  TYR100     -0.1960
     73  CA        11.5810   63.6480   50.8500 C.3   100  TYR100      0.1771
     74  C         12.5240   62.5030   50.4990 C.2   100  TYR100      0.2619
     75  O         13.7070   62.7230   50.2440 O.2   100  TYR100     -0.2715
     76  CB        11.3850   64.5310   49.6210 C.3   100  TYR100      0.0574
     77  CG        11.0130   63.7770   48.3750 C.ar  100  TYR100     -0.0198
     78  CD1        9.7030   63.3640   48.1490 C.ar  100  TYR100     -0.0009
     79  CD2       11.9670   63.4990   47.4050 C.ar  100  TYR100     -0.0009
     80  CE1        9.3600   62.6810   46.9910 C.ar  100  TYR100      0.0417
     81  CE2       11.6360   62.8220   46.2480 C.ar  100  TYR100      0.0417
     82  CZ        10.3340   62.4130   46.0460 C.ar  100  TYR100      0.1957
     83  OH        10.0170   61.7420   44.8910 O.3   100  TYR100     -0.2866
     84  N         11.9920   61.2850   50.4690 N.am  101  ALA101     -0.1977
     85  CA        12.7790   60.1160   50.1010 C.3   101  ALA101      0.1597
     86  C         12.4920   59.6820   48.6600 C.2   101  ALA101      0.2287
     87  O         11.4280   59.1420   48.3550 O.2   101  ALA101     -0.2864
     88  CB        12.5020   58.9830   51.0650 C.3   101  ALA101      0.0319
     89  N         12.5800   53.7590   47.5430 N.3   104  ASP104     -0.1239
     90  CA        12.0690   52.8270   48.5270 C.3   104  ASP104      0.1674
     91  C         12.3630   51.4190   48.0370 C.2   104  ASP104      0.2266
     92  O         12.5920   51.1970   46.8410 O.2   104  ASP104     -0.2867
     93  CB        10.5690   53.0320   48.7260 C.3   104  ASP104      0.1410
     94  CG         9.8090   52.9360   47.4160 C.2   104  ASP104      0.3668
     95  OD1        9.6140   51.7940   46.9460 O.co2 104  ASP104     -0.2456
     96  OD2        9.4510   53.9880   46.8380 O.co2 104  ASP104     -0.2456
     97  N         10.3990   48.8690   47.6230 N.3   106  TRP106     -0.1227
     98  CA         9.4390   48.2740   46.6990 C.3   106  TRP106      0.1737
     99  C          9.9170   48.5290   45.2690 C.2   106  TRP106      0.2595
    100  O         10.0310   47.6030   44.4630 O.2   106  TRP106     -0.2718
    101  CB         8.0280   48.8400   46.9210 C.3   106  TRP106      0.0564
    102  CG         6.9530   48.1480   46.1120 C.ar  106  TRP106      0.0003
    103  CD1        6.2140   47.0580   46.4880 C.ar  106  TRP106      0.0946
    104  CD2        6.4990   48.5020   44.7980 C.ar  106  TRP106      0.0152
    105  NE1        5.3410   46.7110   45.4900 N.ar  106  TRP106     -0.2442
    106  CE2        5.4850   47.5850   44.4450 C.ar  106  TRP106      0.0810
    107  CE3        6.8530   49.4970   43.8840 C.ar  106  TRP106      0.0012
    108  CZ2        4.8250   47.6370   43.2210 C.ar  106  TRP106      0.0191
    109  CZ3        6.1930   49.5470   42.6690 C.ar  106  TRP106      0.0001
    110  CH2        5.1880   48.6260   42.3510 C.ar  106  TRP106      0.0015
    111  N         10.2250   49.7890   44.9740 N.am  107  HIS107     -0.1975
    112  CA        10.7010   50.1760   43.6460 C.3   107  HIS107      0.1656
    113  C         12.1090   49.6600   43.3370 C.2   107  HIS107      0.2291
    114  O         12.3940   49.2680   42.2110 O.2   107  HIS107     -0.2864
    115  CB        10.6630   51.6990   43.5040 C.3   107  HIS107      0.0771
    116  CG         9.2790   52.2540   43.4120 C.ar  107  HIS107      0.0820
    117  ND1        8.6410   52.8490   44.4810 N.ar  107  HIS107     -0.2267
    118  CD2        8.4000   52.2890   42.3800 C.ar  107  HIS107      0.1154
    119  CE1        7.4350   53.2410   44.1060 C.ar  107  HIS107      0.1986
    120  NE2        7.2620   52.9080   42.8390 N.ar  107  HIS107     -0.2212
    121  N          7.6910   48.7270   50.7630 N.3   151  ALA151     -0.1245
    122  CA         7.1830   50.0070   50.2990 C.3   151  ALA151      0.1562
    123  C          7.3870   51.1340   51.3020 C.2   151  ALA151      0.2260
    124  O          7.3800   52.3020   50.9030 O.2   151  ALA151     -0.2867
    125  CB         5.7240   49.8910   49.9630 C.3   151  ALA151      0.0290
    126  N         11.9800   53.4130   53.0860 N.3   154  LEU154     -0.1245
    127  CA        12.4330   54.4380   52.1720 C.3   154  LEU154      0.1561
    128  C         13.9550   54.5080   52.1630 C.2   154  LEU154      0.2260
    129  O         14.6140   54.0870   53.1180 O.2   154  LEU154     -0.2867
    130  CB        11.8400   55.7940   52.5670 C.3   154  LEU154      0.0270
    131  CG        10.3400   55.8240   52.8780 C.3   154  LEU154      0.0019
    132  CD1        9.8750   57.2640   53.0060 C.3   154  LEU154      0.0001
    133  CD2        9.5260   55.0890   51.8180 C.3   154  LEU154      0.0001
    134  N          9.3330   54.3190   57.4400 N.3   168  ALA168     -0.1231
    135  CA         8.1670   55.1970   57.4170 C.3   168  ALA168      0.1694
    136  C          6.8730   54.4130   57.5790 C.2   168  ALA168      0.2592
    137  O          6.8710   53.1720   57.6550 O.2   168  ALA168     -0.2718
    138  CB         8.1360   56.0090   56.1250 C.3   168  ALA168      0.0304
    139  N          5.7870   55.1730   57.6720 N.am  169  ASP169     -0.1974
    140  CA         4.4290   54.6520   57.6870 C.3   169  ASP169      0.1709
    141  C          4.2120   53.6270   58.7920 C.2   169  ASP169      0.2293
    142  O          3.6010   52.5850   58.5590 O.2   169  ASP169     -0.2864
    143  CB         4.0820   54.0410   56.3250 C.3   169  ASP169      0.1436
    144  CG         2.5720   53.9190   56.0980 C.2   169  ASP169      0.3671
    145  OD1        1.8120   54.8000   56.5630 O.co2 169  ASP169     -0.2456
    146  OD2        2.1450   52.9400   55.4470 O.co2 169  ASP169     -0.2456
    147  N         10.7470   59.1560   41.2600 N.3   339  ARG339     -0.1245
    148  CA         9.3050   58.8990   41.3360 C.3   339  ARG339      0.1563
    149  C          8.5250   59.6180   40.2500 C.2   339  ARG339      0.2260
    150  O          8.8160   60.7620   39.9170 O.2   339  ARG339     -0.2867
    151  CB         8.7550   59.3240   42.6920 C.3   339  ARG339      0.0307
    152  CG         9.3190   58.5390   43.8310 C.3   339  ARG339      0.0489
    153  CD         8.6850   58.9030   45.1630 C.3   339  ARG339      0.2205
    154  NE         9.4730   58.3140   46.2330 N.pl3 339  ARG339     -0.0865
    155  CZ         9.3940   57.0390   46.5880 C.cat 339  ARG339      0.5346
    156  NH1       10.1720   56.5730   47.5550 N.pl3 339  ARG339      0.1354
    157  NH2        8.5320   56.2340   45.9840 N.pl3 339  ARG339      0.1354
@<TRIPOS>BOND
     1   150   149    2
     2   149   148    1
     3   147   148    1
     4   148   151    1
     5   114   113    2
     6   110   109   ar
     7   110   108   ar
     8   118   120   ar
     9   118   116   ar
    10   109   107   ar
    11   151   152    1
    12   120   119   ar
    13   108   106   ar
    14   113   112    1
    15   116   115    1
    16   116   117   ar
    17   115   112    1
    18   112   111    1
    19   152   153    1
    20   107   104   ar
    21   119   117   ar
    22     6     5    1
    23   106   104   ar
    24   106   105   ar
    25   100    99    2
    26     2     1    1
    27     2     5    1
    28     2     3    1
    29   104   102   ar
    30    83    82    1
    31     4     3    2
    32   111    99   am
    33     5     7    1
    34   153   154    1
    35     3     8   am
    36    99    98    1
    37   105   103   ar
    38   157   155    1
    39    82    81   ar
    40    82    80   ar
    41   102   103   ar
    42   102   101    1
    43     8     9    1
    44   154   155    2
    45    81    79   ar
    46   155   156    1
    47    98   101    1
    48    98    97    1
    49    96    94   ar
    50    92    91    2
    51     9    10    1
    52    95    94   ar
    53    80    78   ar
    54    10    11    2
    55    27    26    2
    56    79    77   ar
    57    94    93    1
    58    89    90    1
    59    91    90    1
    60    78    77   ar
    61    87    86    2
    62    77    76    1
    63    26    25    1
    64    90    93    1
    65    86    85    1
    66    24    25    1
    67    76    73    1
    68    25    28    1
    69   125   122    1
    70    23    22    1
    71    28    29    1
    72    28    30    1
    73    85    84    1
    74    85    88    1
    75    75    74    2
    76   122   121    1
    77   122   123    1
    78    84    74   am
    79    74    73    1
    80    73    72    1
    81   124   123    2
    82    22    20   ar
    83    22    21   ar
    84    32    31    1
    85    32    35    1
    86    32    33    1
    87    20    18   ar
    88   133   131    1
    89    21    19   ar
    90    72    66   am
    91   128   127    1
    92   128   129    2
    93   127   130    1
    94   127   126    1
    95    33    34    2
    96   130   131    1
    97   131   132    1
    98    18    17   ar
    99    19    17   ar
   100    66    67    2
   101    66    65    1
   102    36    37    1
   103    17    16    1
   104    37    38    1
   105    37    40    1
   106    56    55    2
   107    12    13    1
   108    65    68    1
   109    65    64    1
   110    38    39    2
   111    14    13    1
   112    14    15    2
   113    40    41    1
   114    68    69    1
   115    55    64   am
   116    55    54    1
   117    13    16    1
   118    41    42    1
   119   146   144   ar
   120    70    69   ar
   121    69    71   ar
   122    57    54    1
   123    57    58    1
   124    53    54    1
   125    52    50    1
   126    42    43    1
   127   144   143    1
   128   144   145   ar
   129   138   135    1
   130    60    58   ar
   131    60    62   ar
   132   143   140    1
   133    43    44    1
   134    58    59   ar
   135    50    49    1
   136    62    63   ar
   137   135   134    1
   138   135   136    1
   139   136   137    2
   140   136   139   am
   141   139   140    1
   142   140   141    1
   143    49    51    1
   144    49    46    1
   145    59    61   ar
   146    63    61   ar
   147   142   141    2
   148    46    45    1
   149    46    47    1
   150    47    48    2
