@<TRIPOS>MOLECULE
tmp/5celA02.pdb
 189 185 0 0 0
SMALL
GASTEIGER

@<TRIPOS>ATOM
      1  N         31.5490   62.0940   74.3580 N.3    36  ASN36      -0.1225
      2  CA        30.1150   61.8910   74.0970 C.3    36  ASN36       0.1785
      3  C         29.3350   63.1670   73.8070 C.2    36  ASN36       0.2597
      4  O         28.3580   63.1360   73.0690 O.2    36  ASN36      -0.2718
      5  CB        29.4380   61.1430   75.2580 C.3    36  ASN36       0.1169
      6  CG        29.2680   59.6570   74.9940 C.2    36  ASN36       0.2627
      7  OD1       30.1280   59.0150   74.3920 O.2    36  ASN36      -0.2716
      8  ND2       28.1580   59.0940   75.4680 N.am   36  ASN36      -0.0877
      9  N         29.7670   64.2810   74.3920 N.am   37  TRP37      -0.1962
     10  CA        29.0990   65.5660   74.2010 C.3    37  TRP37       0.1771
     11  C         29.4620   66.2460   72.8760 C.2    37  TRP37       0.2619
     12  O         28.7960   67.1870   72.4600 O.2    37  TRP37      -0.2715
     13  CB        29.4660   66.5330   75.3390 C.3    37  TRP37       0.0590
     14  CG        28.6670   66.4060   76.6080 C.ar   37  TRP37       0.0006
     15  CD1       27.7890   67.3250   77.1050 C.ar   37  TRP37       0.0946
     16  CD2       28.7110   65.3380   77.5650 C.ar   37  TRP37       0.0152
     17  NE1       27.2900   66.8990   78.3110 N.ar   37  TRP37      -0.2442
     18  CE2       27.8380   65.6800   78.6180 C.ar   37  TRP37       0.0810
     19  CE3       29.4010   64.1210   77.6340 C.ar   37  TRP37       0.0012
     20  CZ2       27.6330   64.8560   79.7300 C.ar   37  TRP37       0.0191
     21  CZ3       29.2000   63.2920   78.7470 C.ar   37  TRP37       0.0001
     22  CH2       28.3200   63.6680   79.7760 C.ar   37  TRP37       0.0015
     23  N         30.5110   65.7640   72.2190 N.am   38  ARG38      -0.1963
     24  CA        31.0020   66.3700   70.9750 C.3    38  ARG38       0.1729
     25  C         30.3170   65.9520   69.6870 C.2    38  ARG38       0.2616
     26  O         29.6000   64.9570   69.6340 O.2    38  ARG38      -0.2715
     27  CB        32.4980   66.0700   70.8080 C.3    38  ARG38       0.0348
     28  CG        33.3790   66.5730   71.9190 C.3    38  ARG38       0.0492
     29  CD        34.7880   66.0290   71.7680 C.3    38  ARG38       0.2205
     30  NE        35.6310   66.4460   72.8820 N.pl3  38  ARG38      -0.0865
     31  CZ        36.1250   67.6670   73.0330 C.cat  38  ARG38       0.5346
     32  NH1       35.8770   68.6100   72.1340 N.pl3  38  ARG38       0.1354
     33  NH2       36.8230   67.9600   74.1210 N.pl3  38  ARG38       0.1354
     34  N         30.6070   66.7180   68.6390 N.am   39  TRP39      -0.1960
     35  CA        30.1170   66.4560   67.2940 C.3    39  TRP39       0.1771
     36  C         31.0300   65.3610   66.7260 C.2    39  TRP39       0.2620
     37  O         32.2570   65.4770   66.7980 O.2    39  TRP39      -0.2715
     38  CB        30.2540   67.7360   66.4620 C.3    39  TRP39       0.0590
     39  CG        29.8980   67.6180   65.0050 C.ar   39  TRP39       0.0006
     40  CD1       29.0680   66.6950   64.4230 C.ar   39  TRP39       0.0946
     41  CD2       30.3370   68.4850   63.9500 C.ar   39  TRP39       0.0152
     42  NE1       28.9620   66.9430   63.0730 N.ar   39  TRP39      -0.2442
     43  CE2       29.7280   68.0320   62.7560 C.ar   39  TRP39       0.0810
     44  CE3       31.1830   69.6000   63.9010 C.ar   39  TRP39       0.0012
     45  CZ2       29.9390   68.6620   61.5190 C.ar   39  TRP39       0.0191
     46  CZ3       31.3950   70.2300   62.6660 C.ar   39  TRP39       0.0001
     47  CH2       30.7720   69.7540   61.4940 C.ar   39  TRP39       0.0015
     48  N         30.4380   64.2690   66.2500 N.am   40  THR40      -0.1951
     49  CA        31.1930   63.1720   65.6520 C.3    40  THR40       0.1897
     50  C         30.7980   63.1610   64.1670 C.2    40  THR40       0.2313
     51  O         29.6380   62.8990   63.8330 O.2    40  THR40      -0.2863
     52  CB        30.8240   61.8040   66.2900 C.3    40  THR40       0.1794
     53  OG1       30.9920   61.8720   67.7130 O.3    40  THR40      -0.2208
     54  CG2       31.7150   60.6910   65.7450 C.3    40  THR40       0.0378
     55  N         31.3540   67.3360   56.6160 N.3    46  SER46      -0.1217
     56  CA        30.6040   67.7620   57.7980 C.3    46  SER46       0.1889
     57  C         29.4620   66.8010   58.1410 C.2    46  SER46       0.2288
     58  O         28.6380   67.0880   59.0090 O.2    46  SER46      -0.2866
     59  CB        30.0330   69.1630   57.5870 C.3    46  SER46       0.2089
     60  OG        31.0710   70.1140   57.4470 O.3    46  SER46      -0.2183
     61  N         27.5240   64.0010   59.8370 N.3    48  ASN48      -0.1240
     62  CA        27.5250   63.3340   61.1370 C.3    48  ASN48       0.1653
     63  C         27.6420   61.8230   61.0340 C.2    48  ASN48       0.2266
     64  O         27.0900   61.2010   60.1310 O.2    48  ASN48      -0.2867
     65  CB        26.2280   63.6360   61.8980 C.3    48  ASN48       0.1155
     66  CG        26.1710   65.0410   62.4320 C.2    48  ASN48       0.2627
     67  OD1       26.5040   65.9970   61.7380 O.2    48  ASN48      -0.2716
     68  ND2       25.7270   65.1780   63.6770 N.am   48  ASN48      -0.0877
     69  N         27.0490   60.2610   63.9130 N.3    50  TYR50      -0.1227
     70  CA        26.0430   60.0230   64.9410 C.3    50  TYR50       0.1736
     71  C         25.1800   61.2730   65.0000 C.2    50  TYR50       0.2595
     72  O         25.6950   62.3870   65.0790 O.2    50  TYR50      -0.2718
     73  CB        26.7080   59.8100   66.3060 C.3    50  TYR50       0.0548
     74  CG        25.7470   59.4880   67.4350 C.ar   50  TYR50      -0.0200
     75  CD1       25.3420   58.1730   67.6780 C.ar   50  TYR50      -0.0009
     76  CD2       25.2860   60.4890   68.2930 C.ar   50  TYR50      -0.0009
     77  CE1       24.5070   57.8650   68.7480 C.ar   50  TYR50       0.0417
     78  CE2       24.4510   60.1880   69.3690 C.ar   50  TYR50       0.0417
     79  CZ        24.0730   58.8780   69.5900 C.ar   50  TYR50       0.1957
     80  OH        23.2680   58.5800   70.6660 O.3    50  TYR50      -0.2866
     81  N         23.8670   61.0870   64.9650 N.am   51  ASP51      -0.1960
     82  CA        22.9440   62.2090   65.0210 C.3    51  ASP51       0.1840
     83  C         21.7230   61.7730   65.8220 C.2    51  ASP51       0.2622
     84  O         21.1760   60.6990   65.5780 O.2    51  ASP51      -0.2715
     85  CB        22.5450   62.6340   63.6070 C.3    51  ASP51       0.1450
     86  CG        22.1470   64.0930   63.5250 C.2    51  ASP51       0.3671
     87  OD1       22.1470   64.7870   64.5670 O.co2  51  ASP51      -0.2456
     88  OD2       21.8420   64.5560   62.4070 O.co2  51  ASP51      -0.2456
     89  N         21.3110   62.5990   66.7850 N.am   52  GLY52      -0.1954
     90  CA        20.1820   62.2410   67.6310 C.3    52  GLY52       0.1869
     91  C         20.6500   61.0810   68.4890 C.2    52  GLY52       0.2309
     92  O         21.5750   61.2400   69.2800 O.2    52  GLY52      -0.2863
     93  N         28.0140   76.5690   73.7140 N.3    80  THR80      -0.1203
     94  CA        27.3380   75.3010   73.4860 C.3    80  THR80       0.1994
     95  C         27.1240   74.5020   74.7670 C.2    80  THR80       0.2617
     96  O         26.0500   73.9470   74.9880 O.2    80  THR80      -0.2717
     97  CB        28.1120   74.4020   72.4740 C.3    80  THR80       0.1784
     98  OG1       28.2120   75.0640   71.2100 O.3    80  THR80      -0.2211
     99  CG2       27.3950   73.0810   72.2610 C.3    80  THR80       0.0376
    100  N         28.1260   74.4800   75.6390 N.am   81  TYR81      -0.1975
    101  CA        28.0260   73.6680   76.8450 C.3    81  TYR81       0.1639
    102  C         27.8200   74.3580   78.1890 C.2    81  TYR81       0.2290
    103  O         27.7010   73.6800   79.2130 O.2    81  TYR81      -0.2864
    104  CB        29.2200   72.7220   76.9000 C.3    81  TYR81       0.0560
    105  CG        29.3580   71.9050   75.6440 C.ar   81  TYR81      -0.0198
    106  CD1       28.5880   70.7570   75.4490 C.ar   81  TYR81      -0.0009
    107  CD2       30.2220   72.3040   74.6180 C.ar   81  TYR81      -0.0009
    108  CE1       28.6710   70.0280   74.2690 C.ar   81  TYR81       0.0417
    109  CE2       30.3070   71.5770   73.4290 C.ar   81  TYR81       0.0417
    110  CZ        29.5310   70.4450   73.2660 C.ar   81  TYR81       0.1957
    111  OH        29.6060   69.7290   72.0980 O.3    81  TYR81      -0.2866
    112  N         22.4520   76.0800   68.9020 N.3    99  ALA99      -0.1231
    113  CA        21.8270   75.5370   67.6990 C.3    99  ALA99       0.1694
    114  C         20.9390   74.3860   68.1560 C.2    99  ALA99       0.2592
    115  O         19.9110   74.0880   67.5500 O.2    99  ALA99      -0.2718
    116  CB        22.8860   75.0290   66.7440 C.3    99  ALA99       0.0304
    117  N         21.3590   73.7510   69.2460 N.am  100  GLN100     -0.1966
    118  CA        20.6420   72.6370   69.8510 C.3   100  GLN100      0.1733
    119  C         20.6350   72.8200   71.3660 C.2   100  GLN100      0.2616
    120  O         21.2660   73.7350   71.8940 O.2   100  GLN100     -0.2715
    121  CB        21.2990   71.2900   69.4900 C.3   100  GLN100      0.0408
    122  CG        22.8160   71.3200   69.1940 C.3   100  GLN100      0.0908
    123  CD        23.6660   71.8980   70.3220 C.2   100  GLN100      0.2608
    124  OE1       23.6980   71.3720   71.4420 O.2   100  GLN100     -0.2717
    125  NE2       24.3750   72.9810   70.0200 N.am  100  GLN100     -0.0878
    126  N         19.8980   71.9580   72.0520 N.am  101  LYS101     -0.1963
    127  CA        19.8160   71.9970   73.5050 C.3   101  LYS101      0.1728
    128  C         20.8830   71.0620   74.0860 C.2   101  LYS101      0.2616
    129  O         21.0850   69.9560   73.5820 O.2   101  LYS101     -0.2715
    130  CB        18.4290   71.5330   73.9460 C.3   101  LYS101      0.0311
    131  CG        18.2630   71.3230   75.4320 C.3   101  LYS101      0.0038
    132  CD        16.9370   70.6390   75.7100 C.3   101  LYS101      0.0206
    133  CE        16.7910   70.2700   77.1700 C.3   101  LYS101      0.1093
    134  NZ        15.5140   69.5400   77.3870 N.3   101  LYS101     -0.1314
    135  N         21.5940   71.5250   75.1100 N.am  102  ASN102     -0.1958
    136  CA        22.6140   70.7040   75.7680 C.3   102  ASN102      0.1819
    137  C         22.2770   70.6120   77.2440 C.2   102  ASN102      0.2621
    138  O         21.8460   71.5910   77.8480 O.2   102  ASN102     -0.2715
    139  CB        24.0180   71.3100   75.6270 C.3   102  ASN102      0.1195
    140  CG        25.0680   70.5340   76.4200 C.2   102  ASN102      0.2630
    141  OD1       25.4800   69.4470   76.0230 O.2   102  ASN102     -0.2716
    142  ND2       25.4580   71.0660   77.5700 N.am  102  ASN102     -0.0877
    143  N         22.5090   69.4440   77.8290 N.am  103  VAL103     -0.1977
    144  CA        22.2390   69.2480   79.2500 C.3   103  VAL103      0.1596
    145  C         23.5220   68.9210   80.0180 C.2   103  VAL103      0.2287
    146  O         24.0940   67.8500   79.8490 O.2   103  VAL103     -0.2864
    147  CB        21.2040   68.1150   79.4860 C.3   103  VAL103      0.0276
    148  CG1       20.9920   67.8850   80.9800 C.3   103  VAL103      0.0022
    149  CG2       19.8820   68.4700   78.8240 C.3   103  VAL103      0.0022
    150  N         26.9370   53.5360   77.3660 N.3   178  ASP178     -0.1239
    151  CA        26.4140   54.6750   76.6140 C.3   178  ASP178      0.1674
    152  C         27.4960   55.4250   75.8290 C.2   178  ASP178      0.2266
    153  O         27.1990   56.3450   75.0600 O.2   178  ASP178     -0.2867
    154  CB        25.7220   55.6600   77.5580 C.3   178  ASP178      0.1410
    155  CG        26.6820   56.3050   78.5500 C.2   178  ASP178      0.3668
    156  OD1       27.5650   55.6100   79.0860 O.co2 178  ASP178     -0.2456
    157  OD2       26.5450   57.5150   78.8040 O.co2 178  ASP178     -0.2456
    158  N         30.0950   56.3120   73.0480 N.3   180  LYS180     -0.1245
    159  CA        30.1150   56.1030   71.6050 C.3   180  LYS180      0.1561
    160  C         31.4130   55.4940   71.0830 C.2   180  LYS180      0.2260
    161  O         31.4170   54.7870   70.0760 O.2   180  LYS180     -0.2867
    162  CB        29.7640   57.4030   70.8830 C.3   180  LYS180      0.0271
    163  CG        28.2620   57.6910   70.9360 C.3   180  LYS180      0.0035
    164  CD        27.9130   59.0730   70.4460 C.3   180  LYS180      0.0206
    165  CE        28.0520   60.0840   71.5580 C.3   180  LYS180      0.1093
    166  NZ        27.4690   61.3920   71.1660 N.3   180  LYS180     -0.1314
    167  N         15.5590   59.4670   76.0160 N.3   197  ASN197     -0.1240
    168  CA        16.5620   60.4910   75.7360 C.3   197  ASN197      0.1653
    169  C         16.8650   60.5440   74.2450 C.2   197  ASN197      0.2266
    170  O         17.3630   59.5750   73.6810 O.2   197  ASN197     -0.2867
    171  CB        17.8460   60.2090   76.5250 C.3   197  ASN197      0.1155
    172  CG        18.8070   61.3890   76.5280 C.2   197  ASN197      0.2627
    173  OD1       18.9200   62.1250   75.5510 O.2   197  ASN197     -0.2716
    174  ND2       19.5060   61.5710   77.6360 N.am  197  ASN197     -0.0877
    175  N         19.2000   62.0520   72.7110 N.3   199  ASN199     -0.1225
    176  CA        20.6360   62.0700   72.4040 C.3   199  ASN199      0.1785
    177  C         21.4170   60.8160   72.7490 C.2   199  ASN199      0.2597
    178  O         22.5520   60.6760   72.3040 O.2   199  ASN199     -0.2718
    179  CB        21.3290   63.2180   73.1450 C.3   199  ASN199      0.1169
    180  CG        20.9160   64.5760   72.6470 C.2   199  ASN199      0.2627
    181  OD1       21.0480   64.8820   71.4680 O.2   199  ASN199     -0.2716
    182  ND2       20.4370   65.4180   73.5570 N.am  199  ASN199     -0.0877
    183  N         20.8320   59.9020   73.5180 N.am  200  THR200     -0.1953
    184  CA        21.5700   58.7160   73.9570 C.3   200  THR200      0.1897
    185  C         21.0990   57.3240   73.5680 C.2   200  THR200      0.2313
    186  O         20.0090   57.1350   73.0340 O.2   200  THR200     -0.2863
    187  CB        21.7160   58.7250   75.4950 C.3   200  THR200      0.1794
    188  OG1       20.4250   58.5540   76.0960 O.3   200  THR200     -0.2208
    189  CG2       22.3030   60.0400   75.9690 C.3   200  THR200      0.0378
@<TRIPOS>BOND
     1    55    56    1
     2    60    59    1
     3    59    56    1
     4    56    57    1
     5    57    58    2
     6    61    62    1
     7    64    63    2
     8    63    62    1
     9    62    65    1
    10    47    45   ar
    11    47    46   ar
    12    45    43   ar
    13    67    66    2
    14    65    66    1
    15    88    86   ar
    16    66    68   am
    17    46    44   ar
    18    43    42   ar
    19    43    41   ar
    20    42    40   ar
    21    86    85    1
    22    86    87   ar
    23    85    82    1
    24    51    50    2
    25    44    41   ar
    26    69    70    1
    27    41    39   ar
    28    50    49    1
    29    40    39   ar
    30    70    71    1
    31    70    73    1
    32    81    71   am
    33    81    82    1
    34    71    72    2
    35    39    38    1
    36    82    83    1
    37    84    83    2
    38    49    48    1
    39    49    52    1
    40    54    52    1
    41    83    89   am
    42    48    36   am
    43    52    53    1
    44    73    74    1
    45    38    35    1
    46    36    37    2
    47    36    35    1
    48   116   113    1
    49    89    90    1
    50    35    34    1
    51    74    75   ar
    52    74    76   ar
    53   115   114    2
    54    90    91    1
    55    75    77   ar
    56   113   114    1
    57   113   112    1
    58   114   117   am
    59    76    78   ar
    60    91    92    2
    61    34    25   am
    62    77    79   ar
    63   122   121    1
    64   122   123    1
    65   117   118    1
    66    78    79   ar
    67   121   118    1
    68    79    80    1
    69    26    25    2
    70    25    24    1
    71   118   119    1
    72   125   123   am
    73   161   160    2
    74   123   124    2
    75   164   163    1
    76   164   165    1
    77    27    24    1
    78    27    28    1
    79   162   163    1
    80   162   159    1
    81    24    23    1
    82   160   159    1
    83   166   165    1
    84    98    97    1
    85   119   120    2
    86   119   126   am
    87   181   180    2
    88   159   158    1
    89    29    28    1
    90    29    30    1
    91   126   127    1
    92   111   110    1
    93    32    31    1
    94    23    11   am
    95    99    97    1
    96   178   177    2
    97   176   175    1
    98   176   177    1
    99   176   179    1
   100    12    11    2
   101    97    94    1
   102   180   179    1
   103   180   182   am
   104   177   183   am
   105    11    10    1
   106    30    31    2
   107    31    33    1
   108   186   185    2
   109     4     3    2
   110   110   109   ar
   111   110   108   ar
   112   109   107   ar
   113    94    93    1
   114    94    95    1
   115   127   130    1
   116   127   128    1
   117   183   184    1
   118   185   184    1
   119   129   128    2
   120   170   169    2
   121     3     2    1
   122     3     9   am
   123   130   131    1
   124   184   187    1
   125   128   135   am
   126     2     1    1
   127     2     5    1
   128    10     9    1
   129    10    13    1
   130   169   168    1
   131   108   106   ar
   132     7     6    2
   133   107   105   ar
   134    95    96    2
   135    95   100   am
   136     6     5    1
   137     6     8   am
   138   153   152    2
   139   135   136    1
   140    13    14    1
   141   131   132    1
   142   106   105   ar
   143   187   189    1
   144   187   188    1
   145   173   172    2
   146   139   136    1
   147   139   140    1
   148   100   101    1
   149   105   104    1
   150   132   133    1
   151   168   167    1
   152   168   171    1
   153   136   137    1
   154   152   151    1
   155   141   140    2
   156   140   142   am
   157   171   172    1
   158   172   174   am
   159    14    15   ar
   160    14    16   ar
   161   151   150    1
   162   151   154    1
   163   101   104    1
   164   101   102    1
   165    15    17   ar
   166   133   134    1
   167   137   143   am
   168   137   138    2
   169   154   155    1
   170    16    19   ar
   171    16    18   ar
   172    19    21   ar
   173   143   144    1
   174   102   103    2
   175    17    18   ar
   176   155   157   ar
   177   155   156   ar
   178    18    20   ar
   179    21    22   ar
   180   149   147    1
   181   144   147    1
   182   144   145    1
   183   147   148    1
   184    20    22   ar
   185   146   145    2
