@<TRIPOS>MOLECULE
tmp/5cevA00.pdb
 132 122 0 0 0
SMALL
GASTEIGER

@<TRIPOS>ATOM
      1  N         20.9250   86.1880   38.1110 N.3    98  HIS98      -0.1241
      2  CA        21.7870   85.9430   39.2560 C.3    98  HIS98       0.1621
      3  C         22.6420   84.6840   39.2800 C.2    98  HIS98       0.2264
      4  O         23.5600   84.5880   40.1010 O.2    98  HIS98      -0.2867
      5  CB        21.0100   86.0800   40.5660 C.3    98  HIS98       0.0745
      6  CG        21.7520   86.8490   41.6170 C.ar   98  HIS98       0.0817
      7  ND1       21.1180   87.5520   42.6230 N.ar   98  HIS98      -0.2268
      8  CD2       23.0780   87.0730   41.7850 C.ar   98  HIS98       0.1154
      9  CE1       22.0190   88.1790   43.3590 C.ar   98  HIS98       0.1986
     10  NE2       23.2160   87.9060   42.8700 N.ar   98  HIS98      -0.2212
     11  N         15.3710   88.0960   47.4350 N.3   123  HIS123     -0.1241
     12  CA        15.4280   86.6470   47.6060 C.3   123  HIS123      0.1621
     13  C         16.7370   86.2150   48.2470 C.2   123  HIS123      0.2264
     14  O         17.7320   86.9290   48.1840 O.2   123  HIS123     -0.2867
     15  CB        15.3470   85.9920   46.2360 C.3   123  HIS123      0.0745
     16  CG        14.2600   86.5420   45.3700 C.ar  123  HIS123      0.0817
     17  ND1       14.4790   87.5340   44.4320 N.ar  123  HIS123     -0.2268
     18  CD2       12.9420   86.2460   45.3060 C.ar  123  HIS123      0.1154
     19  CE1       13.3360   87.8250   43.8330 C.ar  123  HIS123      0.1986
     20  NE2       12.3900   87.0570   44.3440 N.ar  123  HIS123     -0.2212
     21  N         18.3710   83.3030   47.3790 N.3   125  ASP125     -0.1239
     22  CA        19.1460   82.5880   46.3530 C.3   125  ASP125      0.1674
     23  C         19.9560   81.4070   46.9020 C.2   125  ASP125      0.2266
     24  O         21.0530   81.0750   46.4020 O.2   125  ASP125     -0.2867
     25  CB        20.0370   83.5550   45.5560 C.3   125  ASP125      0.1410
     26  CG        19.2310   84.5550   44.7230 C.2   125  ASP125      0.3668
     27  OD1       18.0500   84.2930   44.3930 O.co2 125  ASP125     -0.2456
     28  OD2       19.7890   85.6150   44.4010 O.co2 125  ASP125     -0.2456
     29  N         18.5850   78.1220   47.1880 N.3   127  ASN127     -0.1240
     30  CA        17.8560   76.9050   46.8740 C.3   127  ASN127      0.1653
     31  C         18.7840   75.8590   46.2770 C.2   127  ASN127      0.2266
     32  O         19.8800   76.1750   45.8000 O.2   127  ASN127     -0.2867
     33  CB        16.7460   77.1740   45.8560 C.3   127  ASN127      0.1155
     34  CG        15.4260   77.4630   46.5030 C.2   127  ASN127      0.2627
     35  OD1       15.0710   76.8670   47.5210 O.2   127  ASN127     -0.2716
     36  ND2       14.6790   78.3730   45.9140 N.am  127  ASN127     -0.0877
     37  N         14.3310   73.8770   45.4620 N.3   132  SER132     -0.1203
     38  CA        13.8430   74.8090   44.4660 C.3   132  SER132      0.2005
     39  C         12.4300   74.5380   43.9960 C.2   132  SER132      0.2461
     40  O         12.1050   73.4220   43.6030 O.2   132  SER132     -0.2732
     41  CB        14.7780   74.8340   43.2650 C.3   132  SER132      0.2103
     42  OG        14.2660   75.6890   42.2600 O.3   132  SER132     -0.2182
     43  N         11.5540   75.5520   44.0640 N.am  133  PRO133     -0.2717
     44  CA        10.1880   75.3340   43.6030 C.3   133  PRO133      0.1535
     45  C         10.1090   75.5610   42.0930 C.2   133  PRO133      0.2599
     46  O          9.0920   75.2710   41.4860 O.2   133  PRO133     -0.2715
     47  CB         9.4100   76.3980   44.3630 C.3   133  PRO133      0.0310
     48  CG        10.3660   77.5150   44.4290 C.3   133  PRO133      0.0237
     49  CD        11.6550   76.8210   44.8070 C.3   133  PRO133      0.0939
     50  N         11.2000   76.0220   41.4840 N.am  134  SER134     -0.1950
     51  CA        11.2150   76.3190   40.0480 C.3   134  SER134      0.1924
     52  C         12.1680   75.5110   39.1420 C.2   134  SER134      0.2314
     53  O         11.8910   75.3080   37.9470 O.2   134  SER134     -0.2863
     54  CB        11.5630   77.7820   39.8800 C.3   134  SER134      0.2116
     55  OG        12.8900   77.9650   40.2940 O.3   134  SER134     -0.2180
     56  N         15.0080   76.6700   38.5740 N.3   136  ASN136     -0.1240
     57  CA        15.7640   77.7600   37.9840 C.3   136  ASN136      0.1653
     58  C         17.0110   78.0680   38.7840 C.2   136  ASN136      0.2266
     59  O         16.9340   78.5940   39.9000 O.2   136  ASN136     -0.2867
     60  CB        14.8970   79.0120   37.8730 C.3   136  ASN136      0.1155
     61  CG        13.7750   78.8510   36.8630 C.2   136  ASN136      0.2627
     62  OD1       13.9490   78.2080   35.8310 O.2   136  ASN136     -0.2716
     63  ND2       12.6210   79.4410   37.1540 N.am  136  ASN136     -0.0877
     64  N         19.0230   80.4510   38.7760 N.3   138  HIS138     -0.1226
     65  CA        19.2470   81.8260   39.2460 C.3   138  HIS138      0.1752
     66  C         18.8300   82.0080   40.7250 C.2   138  HIS138      0.2596
     67  O         19.1010   83.0620   41.3280 O.2   138  HIS138     -0.2718
     68  CB        18.5120   82.8460   38.3530 C.3   138  HIS138      0.0759
     69  CG        17.0180   82.8220   38.4980 C.ar  138  HIS138      0.0818
     70  ND1       16.2210   83.9020   38.1820 N.ar  138  HIS138     -0.2268
     71  CD2       16.1780   81.8520   38.9380 C.ar  138  HIS138      0.1154
     72  CE1       14.9560   83.5980   38.4230 C.ar  138  HIS138      0.1986
     73  NE2       14.9040   82.3620   38.8850 N.ar  138  HIS138     -0.2212
     74  N         18.1530   80.9940   41.2830 N.am  139  GLY139     -0.1957
     75  CA        17.7030   81.0390   42.6660 C.3   139  GLY139      0.1869
     76  C         18.5180   80.1280   43.5690 C.2   139  GLY139      0.2309
     77  O         18.1040   79.8300   44.6990 O.2   139  GLY139     -0.2863
     78  N         11.3070   87.5440   50.2900 N.3   175  SER175     -0.1217
     79  CA        10.6850   86.4550   49.5510 C.3   175  SER175      0.1889
     80  C         11.5620   85.2100   49.5700 C.2   175  SER175      0.2288
     81  O         12.3340   84.9610   48.6440 O.2   175  SER175     -0.2866
     82  CB        10.4330   86.8980   48.1160 C.3   175  SER175      0.2089
     83  OG         9.8100   85.8710   47.3800 O.3   175  SER175     -0.2183
     84  N         11.7840   80.9210   50.0230 N.3   177  ASP177     -0.1239
     85  CA        11.0210   79.6840   49.9400 C.3   177  ASP177      0.1674
     86  C         11.2380   79.0160   51.2920 C.2   177  ASP177      0.2266
     87  O         12.2300   79.3180   51.9780 O.2   177  ASP177     -0.2867
     88  CB        11.5550   78.8020   48.8090 C.3   177  ASP177      0.1410
     89  CG        11.3630   79.4370   47.4510 C.2   177  ASP177      0.3668
     90  OD1       10.2420   79.9030   47.1740 O.co2 177  ASP177     -0.2456
     91  OD2       12.3200   79.5080   46.6620 O.co2 177  ASP177     -0.2456
     92  N         14.6170   77.5580   51.8860 N.3   180  GLU180     -0.1245
     93  CA        15.6160   78.5890   52.0760 C.3   180  GLU180      0.1567
     94  C         15.6100   79.1300   53.4890 C.2   180  GLU180      0.2260
     95  O         16.6680   79.3750   54.0460 O.2   180  GLU180     -0.2867
     96  CB        15.4100   79.7300   51.0980 C.3   180  GLU180      0.0388
     97  CG        15.5420   79.3260   49.6670 C.3   180  GLU180      0.1160
     98  CD        15.3940   80.5040   48.7490 C.2   180  GLU180      0.3649
     99  OE1       14.2540   80.9840   48.5730 O.co2 180  GLU180     -0.2457
    100  OE2       16.4220   80.9670   48.2200 O.co2 180  GLU180     -0.2457
    101  N         21.4110   92.5970   43.3950 N.3   225  ASP225     -0.1239
    102  CA        20.3070   92.2160   42.5150 C.3   225  ASP225      0.1674
    103  C         19.3510   93.4080   42.5580 C.2   225  ASP225      0.2266
    104  O         18.9060   93.8460   43.6310 O.2   225  ASP225     -0.2867
    105  CB        19.6260   90.9420   43.0440 C.3   225  ASP225      0.1410
    106  CG        18.4220   90.4930   42.2020 C.2   225  ASP225      0.3668
    107  OD1       17.8860   91.2780   41.3860 O.co2 225  ASP225     -0.2456
    108  OD2       17.9740   89.3410   42.3870 O.co2 225  ASP225     -0.2456
    109  N         16.3260   93.5780   41.8830 N.3   227  ASP227     -0.1239
    110  CA        15.0020   93.3010   42.4410 C.3   227  ASP227      0.1674
    111  C         14.9770   93.5180   43.9500 C.2   227  ASP227      0.2266
    112  O         13.9450   93.3350   44.5880 O.2   227  ASP227     -0.2867
    113  CB        14.4340   91.9220   42.0310 C.3   227  ASP227      0.1410
    114  CG        15.1120   90.7380   42.7140 C.2   227  ASP227      0.3668
    115  OD1       15.5930   90.8210   43.8740 O.co2 227  ASP227     -0.2456
    116  OD2       15.1080   89.6600   42.0920 O.co2 227  ASP227     -0.2456
    117  N         11.7320   88.7630   38.6740 N.3   239  THR239     -0.1218
    118  CA        10.8830   88.3470   39.7770 C.3   239  THR239      0.1862
    119  C         10.7700   89.4700   40.8100 C.2   239  THR239      0.2287
    120  O         11.4280   89.4500   41.8480 O.2   239  THR239     -0.2866
    121  CB        11.3710   87.0070   40.4520 C.3   239  THR239      0.1770
    122  OG1       12.6890   87.1810   40.9540 O.3   239  THR239     -0.2211
    123  CG2       11.4390   85.8630   39.4670 C.3   239  THR239      0.0375
    124  N         20.2260   90.9670   37.2450 N.3   270  GLU270     -0.1245
    125  CA        18.7910   90.8890   36.9840 C.3   270  GLU270      0.1567
    126  C         18.1390   92.0590   36.2710 C.2   270  GLU270      0.2260
    127  O         16.9140   92.1880   36.2560 O.2   270  GLU270     -0.2867
    128  CB        18.0190   90.5560   38.2650 C.3   270  GLU270      0.0388
    129  CG        18.4100   89.2380   38.9430 C.3   270  GLU270      0.1160
    130  CD        17.9460   88.0130   38.2020 C.2   270  GLU270      0.3649
    131  OE1       17.3340   88.1640   37.1320 O.co2 270  GLU270     -0.2457
    132  OE2       18.1870   86.8930   38.7030 O.co2 270  GLU270     -0.2457
@<TRIPOS>BOND
     1    62    61    2
     2   127   126    2
     3   126   125    1
     4    61    63   am
     5    61    60    1
     6   125   124    1
     7   125   128    1
     8   131   130   ar
     9    60    57    1
    10    53    52    2
    11    57    56    1
    12    57    58    1
    13     1     2    1
    14    70    72   ar
    15    70    69   ar
    16   130   132   ar
    17   130   129    1
    18   128   129    1
    19    68    69    1
    20    68    65    1
    21    72    73   ar
    22    69    71   ar
    23   117   118    1
    24    64    65    1
    25    58    59    2
    26    73    71   ar
    27    52    51    1
    28    65    66    1
    29     2     3    1
    30     2     5    1
    31     3     4    2
    32   123   121    1
    33   118   121    1
    34   118   119    1
    35    54    51    1
    36    54    55    1
    37    51    50    1
    38   121   122    1
    39     5     6    1
    40    66    74   am
    41    66    67    2
    42   119   120    2
    43    74    75    1
    44   107   106   ar
    45    50    45   am
    46    46    45    2
    47     6     8   ar
    48     6     7   ar
    49     8    10   ar
    50   109   110    1
    51   113   110    1
    52   113   114    1
    53   116   114   ar
    54    45    44    1
    55   106   108   ar
    56   106   105    1
    57    42    41    1
    58   110   111    1
    59   102   103    1
    60   102   105    1
    61   102   101    1
    62   103   104    2
    63     7     9   ar
    64    75    76    1
    65   114   115   ar
    66    10     9   ar
    67    41    38    1
    68    76    77    2
    69    44    43    1
    70    44    47    1
    71    40    39    2
    72    19    20   ar
    73    19    17   ar
    74   111   112    2
    75    39    43   am
    76    39    38    1
    77    43    49    1
    78    20    18   ar
    79    47    48    1
    80    27    26   ar
    81    28    26   ar
    82    48    49    1
    83    17    16   ar
    84    38    37    1
    85    26    25    1
    86    18    16   ar
    87    16    15    1
    88    25    22    1
    89    32    31    2
    90    33    34    1
    91    33    30    1
    92    36    34   am
    93    15    12    1
    94    31    30    1
    95    22    23    1
    96    22    21    1
    97    24    23    2
    98    34    35    2
    99    91    89   ar
   100    30    29    1
   101    90    89   ar
   102    83    82    1
   103    11    12    1
   104    89    88    1
   105    12    13    1
   106    82    79    1
   107    14    13    2
   108   100    98   ar
   109    99    98   ar
   110    81    80    2
   111    98    97    1
   112    88    85    1
   113    79    80    1
   114    79    78    1
   115    97    96    1
   116    85    84    1
   117    85    86    1
   118    96    93    1
   119    86    87    2
   120    92    93    1
   121    93    94    1
   122    94    95    2
