@<TRIPOS>MOLECULE
tmp/5cewA00.pdb
 165 157 0 0 0
SMALL
GASTEIGER

@<TRIPOS>ATOM
      1  N         26.7010   79.9270   61.1780 N.3   117  VAL117     -0.1231
      2  CA        27.6690   79.7960   60.0960 C.3   117  VAL117      0.1692
      3  C         27.4130   78.4630   59.4030 C.2   117  VAL117      0.2592
      4  O         27.3180   77.4410   60.0720 O.2   117  VAL117     -0.2718
      5  CB        29.1430   79.8100   60.5820 C.3   117  VAL117      0.0266
      6  CG1       30.0940   79.9240   59.3700 C.3   117  VAL117      0.0020
      7  CG2       29.3990   80.9400   61.5530 C.3   117  VAL117      0.0020
      8  N         27.2970   78.4750   58.0760 N.am  118  VAL118     -0.1966
      9  CA        26.9290   77.2650   57.3310 C.3   118  VAL118      0.1712
     10  C         27.6630   77.2040   55.9930 C.2   118  VAL118      0.2458
     11  O         27.9390   78.2450   55.3970 O.2   118  VAL118     -0.2730
     12  CB        25.4040   77.1960   57.0390 C.3   118  VAL118      0.0289
     13  CG1       24.6100   76.9350   58.3220 C.3   118  VAL118      0.0023
     14  CG2       24.9320   78.4580   56.3420 C.3   118  VAL118      0.0023
     15  N         27.9830   75.9780   55.5270 N.am  119  PRO119     -0.2727
     16  CA        28.6910   75.7790   54.2670 C.3   119  PRO119      0.1402
     17  C         27.8090   76.2070   53.1120 C.2   119  PRO119      0.2269
     18  O         26.6630   75.7730   53.0230 O.2   119  PRO119     -0.2865
     19  CB        28.9290   74.2640   54.2300 C.3   119  PRO119      0.0296
     20  CG        27.9440   73.6920   55.1440 C.3   119  PRO119      0.0237
     21  CD        27.7940   74.7030   56.2410 C.3   119  PRO119      0.0939
     22  N         36.3890   77.6770   55.5860 N.3   273  ASP273     -0.1225
     23  CA        36.7720   76.4580   56.2930 C.3   273  ASP273      0.1805
     24  C         35.7030   75.3780   56.4690 C.2   273  ASP273      0.2598
     25  O         36.0430   74.2410   56.8180 O.2   273  ASP273     -0.2718
     26  CB        37.4090   76.8030   57.6490 C.3   273  ASP273      0.1424
     27  CG        38.8860   77.1470   57.5270 C.2   273  ASP273      0.3668
     28  OD1       39.4330   77.0460   56.4020 O.co2 273  ASP273     -0.2456
     29  OD2       39.5030   77.5050   58.5510 O.co2 273  ASP273     -0.2456
     30  N         34.4280   75.6990   56.2380 N.am  274  SER274     -0.1952
     31  CA        33.4140   74.6500   56.3250 C.3   274  SER274      0.1924
     32  C         33.1050   73.9610   54.9830 C.2   274  SER274      0.2314
     33  O         32.2880   73.0470   54.9230 O.2   274  SER274     -0.2863
     34  CB        32.1360   75.1310   57.0310 C.3   274  SER274      0.2116
     35  OG        31.4030   76.0440   56.2330 O.3   274  SER274     -0.2180
     36  N         31.5050   84.6510   54.0480 N.3   328  ARG328     -0.1245
     37  CA        32.9120   84.5450   54.4130 C.3   328  ARG328      0.1563
     38  C         33.7270   84.1260   53.1960 C.2   328  ARG328      0.2260
     39  O         33.5990   82.9910   52.7090 O.2   328  ARG328     -0.2867
     40  CB        33.1260   83.5430   55.5720 C.3   328  ARG328      0.0307
     41  CG        34.5870   83.4190   56.0140 C.3   328  ARG328      0.0489
     42  CD        34.7420   82.8370   57.4410 C.3   328  ARG328      0.2205
     43  NE        34.4830   81.3950   57.5110 N.pl3 328  ARG328     -0.0865
     44  CZ        34.8690   80.6070   58.5150 C.cat 328  ARG328      0.5346
     45  NH1       35.5550   81.1120   59.5300 N.pl3 328  ARG328      0.1354
     46  NH2       34.6000   79.3040   58.4900 N.pl3 328  ARG328      0.1354
     47  N         38.0470   88.7370   61.3320 N.3   419  MET419     -0.1245
     48  CA        38.3030   87.6440   62.2560 C.3   419  MET419      0.1570
     49  C         39.6350   87.8850   62.9110 C.2   419  MET419      0.2261
     50  O         40.6350   88.0790   62.2160 O.2   419  MET419     -0.2867
     51  CB        38.3810   86.3350   61.5020 C.3   419  MET419      0.0387
     52  CG        37.3230   86.2620   60.4920 C.3   419  MET419      0.0595
     53  SD        35.9500   85.4780   61.2850 S.3   419  MET419     -0.1393
     54  CE        36.3520   83.8720   60.6760 C.3   419  MET419      0.0692
     55  N         41.9170   85.8250   64.5720 N.3   421  GLU421     -0.1245
     56  CA        42.1800   84.4070   64.7080 C.3   421  GLU421      0.1567
     57  C         43.6400   84.0860   64.4020 C.2   421  GLU421      0.2260
     58  O         44.0100   82.9330   64.2320 O.2   421  GLU421     -0.2867
     59  CB        41.2110   83.5700   63.8510 C.3   421  GLU421      0.0388
     60  CG        41.3160   83.7280   62.3400 C.3   421  GLU421      0.1160
     61  CD        40.2320   82.9300   61.5910 C.2   421  GLU421      0.3649
     62  OE1       39.9730   83.2330   60.4080 O.co2 421  GLU421     -0.2457
     63  OE2       39.6360   82.0030   62.1830 O.co2 421  GLU421     -0.2457
     64  N         37.6740   82.9850   68.5380 N.3   446  GLY446     -0.1210
     65  CA        37.3770   81.5710   68.4110 C.3   446  GLY446      0.1956
     66  C         38.4710   80.7900   69.1150 C.2   446  GLY446      0.2612
     67  O         39.3750   81.3810   69.6910 O.2   446  GLY446     -0.2717
     68  N         38.3940   79.4650   69.0680 N.am  447  PHE447     -0.1962
     69  CA        39.3710   78.6310   69.7510 C.3   447  PHE447      0.1771
     70  C         40.3230   77.9640   68.7590 C.2   447  PHE447      0.2619
     71  O         41.5420   78.0550   68.8980 O.2   447  PHE447     -0.2715
     72  CB        38.6590   77.5830   70.6290 C.3   447  PHE447      0.0574
     73  CG        39.5720   76.4880   71.1530 C.ar  447  PHE447     -0.0200
     74  CD1       40.7270   76.7980   71.8520 C.ar  447  PHE447     -0.0042
     75  CD2       39.2530   75.1520   70.9640 C.ar  447  PHE447     -0.0042
     76  CE1       41.5630   75.8090   72.3320 C.ar  447  PHE447     -0.0003
     77  CE2       40.0830   74.1450   71.4440 C.ar  447  PHE447     -0.0003
     78  CZ        41.2480   74.4780   72.1280 C.ar  447  PHE447     -0.0000
     79  N         39.7620   77.3170   67.7420 N.am  448  LEU448     -0.1963
     80  CA        40.5250   76.3590   66.9670 C.3   448  LEU448      0.1728
     81  C         41.6340   77.0090   66.1440 C.2   448  LEU448      0.2616
     82  O         42.7910   76.6410   66.3050 O.2   448  LEU448     -0.2715
     83  CB        39.5890   75.5020   66.1040 C.3   448  LEU448      0.0311
     84  CG        39.1680   74.0710   66.4970 C.3   448  LEU448      0.0022
     85  CD1       39.4310   73.6840   67.9680 C.3   448  LEU448      0.0001
     86  CD2       37.7140   73.8000   66.1200 C.3   448  LEU448      0.0001
     87  N         41.2930   77.9670   65.2760 N.am  449  ASP449     -0.1971
     88  CA        42.2820   78.5750   64.3640 C.3   449  ASP449      0.1709
     89  C         43.3660   79.3350   65.1200 C.2   449  ASP449      0.2293
     90  O         44.5490   79.1710   64.8510 O.2   449  ASP449     -0.2864
     91  CB        41.6150   79.5400   63.3690 C.3   449  ASP449      0.1436
     92  CG        41.5670   78.9910   61.9350 C.2   449  ASP449      0.3671
     93  OD1       42.4320   78.1640   61.5680 O.co2 449  ASP449     -0.2456
     94  OD2       40.6560   79.3930   61.1740 O.co2 449  ASP449     -0.2456
     95  N         32.3800   79.4680   68.1990 N.3   502  MET502     -0.1245
     96  CA        31.3820   78.4430   67.9500 C.3   502  MET502      0.1570
     97  C         31.2520   77.4390   69.0880 C.2   502  MET502      0.2261
     98  O         32.2520   76.9980   69.6480 O.2   502  MET502     -0.2867
     99  CB        31.7340   77.6910   66.6600 C.3   502  MET502      0.0387
    100  CG        30.8360   76.5190   66.3650 C.3   502  MET502      0.0595
    101  SD        29.2220   76.9880   65.7300 S.3   502  MET502     -0.1393
    102  CE        29.6470   77.6230   64.1100 C.3   502  MET502      0.0692
    103  N         30.6960   73.7930   69.4350 N.3   504  THR504     -0.1218
    104  CA        30.8560   72.6780   68.5040 C.3   504  THR504      0.1862
    105  C         30.1180   71.3960   68.8930 C.2   504  THR504      0.2287
    106  O         29.8830   70.5410   68.0470 O.2   504  THR504     -0.2866
    107  CB        32.3470   72.3700   68.3150 C.3   504  THR504      0.1770
    108  OG1       32.9410   72.1130   69.5910 O.3   504  THR504     -0.2211
    109  CG2       33.0430   73.5710   67.6760 C.3   504  THR504      0.0375
    110  N         28.6960   82.4330   67.7460 N.3   528  TRP528     -0.1241
    111  CA        28.4370   81.4250   66.7210 C.3   528  TRP528      0.1605
    112  C         27.7780   80.1520   67.2440 C.2   528  TRP528      0.2264
    113  O         28.2070   79.5750   68.2630 O.2   528  TRP528     -0.2867
    114  CB        29.7410   81.0790   65.9730 C.3   528  TRP528      0.0550
    115  CG        30.2010   82.1600   65.0260 C.ar  528  TRP528      0.0003
    116  CD1       29.6090   83.3660   64.8190 C.ar  528  TRP528      0.0946
    117  CD2       31.3330   82.1080   64.1300 C.ar  528  TRP528      0.0152
    118  NE1       30.3020   84.0760   63.8560 N.ar  528  TRP528     -0.2442
    119  CE2       31.3630   83.3250   63.4260 C.ar  528  TRP528      0.0810
    120  CE3       32.3130   81.1460   63.8570 C.ar  528  TRP528      0.0012
    121  CZ2       32.3390   83.6090   62.4650 C.ar  528  TRP528      0.0191
    122  CZ3       33.2910   81.4330   62.9030 C.ar  528  TRP528      0.0001
    123  CH2       33.2930   82.6540   62.2220 C.ar  528  TRP528      0.0015
    124  N         25.9570   76.2360   65.8330 N.3   530  PRO530     -0.2116
    125  CA        26.1360   75.2610   64.7500 C.3   530  PRO530      0.1372
    126  C         24.8500   74.8410   64.0360 C.2   530  PRO530      0.2244
    127  O         24.9390   74.1440   63.0270 O.2   530  PRO530     -0.2868
    128  CB        26.7060   74.0480   65.4880 C.3   530  PRO530      0.0268
    129  CG        26.0160   74.1070   66.8200 C.3   530  PRO530      0.0207
    130  CD        25.9780   75.5850   67.1580 C.3   530  PRO530      0.0892
    131  N         32.1240   70.1540   56.5050 N.3   606  ALA606     -0.1245
    132  CA        31.4790   70.2420   57.8180 C.3   606  ALA606      0.1562
    133  C         30.3230   69.2560   57.9170 C.2   606  ALA606      0.2260
    134  O         29.5950   69.0300   56.9470 O.2   606  ALA606     -0.2867
    135  CB        30.9920   71.6640   58.1170 C.3   606  ALA606      0.0290
    136  N         30.6080   69.4760   65.5030 N.3   618  MET618     -0.1230
    137  CA        30.5560   70.1230   64.1990 C.3   618  MET618      0.1702
    138  C         31.6120   71.2130   64.1280 C.2   618  MET618      0.2592
    139  O         31.3520   72.3700   64.4620 O.2   618  MET618     -0.2718
    140  CB        29.1740   70.6970   63.8840 C.3   618  MET618      0.0401
    141  CG        29.0930   71.3360   62.4950 C.3   618  MET618      0.0596
    142  SD        27.4160   71.5870   61.8730 S.3   618  MET618     -0.1393
    143  CE        27.0360   69.9310   61.3110 C.3   618  MET618      0.0692
    144  N         32.8110   70.8210   63.7130 N.am  619  GLU619     -0.1966
    145  CA        33.9260   71.7410   63.5980 C.3   619  GLU619      0.1733
    146  C         34.2320   71.9220   62.1140 C.2   619  GLU619      0.2616
    147  O         33.8450   71.0860   61.2830 O.2   619  GLU619     -0.2715
    148  CB        35.1590   71.1660   64.3210 C.3   619  GLU619      0.0429
    149  CG        34.8440   70.3700   65.5870 C.3   619  GLU619      0.1163
    150  CD        36.0720   69.6850   66.2010 C.2   619  GLU619      0.3649
    151  OE1       36.6310   68.7500   65.5710 O.co2 619  GLU619     -0.2457
    152  OE2       36.4680   70.0760   67.3260 O.co2 619  GLU619     -0.2457
    153  N         34.9180   73.0080   61.7650 N.am  620  ASP620     -0.1971
    154  CA        35.4050   73.1390   60.3970 C.3   620  ASP620      0.1709
    155  C         36.8650   72.7240   60.2900 C.2   620  ASP620      0.2293
    156  O         37.3960   72.0530   61.1760 O.2   620  ASP620     -0.2864
    157  CB        35.1730   74.5470   59.8380 C.3   620  ASP620      0.1436
    158  CG        36.0150   75.6160   60.5200 C.2   620  ASP620      0.3671
    159  OD1       36.8970   75.3100   61.3590 O.co2 620  ASP620     -0.2456
    160  OD2       35.7680   76.8010   60.2110 O.co2 620  ASP620     -0.2456
    161  N         39.5990   74.2580   60.7980 N.3   622  ALA622     -0.1245
    162  CA        40.5010   74.6820   61.8700 C.3   622  ALA622      0.1562
    163  C         40.8330   73.5630   62.8750 C.2   622  ALA622      0.2260
    164  O         41.9110   73.5630   63.4790 O.2   622  ALA622     -0.2867
    165  CB        39.9550   75.9100   62.5800 C.3   622  ALA622      0.0290
@<TRIPOS>BOND
     1    39    38    2
     2    18    17    2
     3    17    16    1
     4    38    37    1
     5    36    37    1
     6    19    16    1
     7    19    20    1
     8    16    15    1
     9    37    40    1
    10    33    32    2
    11    32    31    1
    12    20    21    1
    13    11    10    2
    14    15    10   am
    15    15    21    1
    16    40    41    1
    17    22    23    1
    18    10     9    1
    19    41    42    1
    20    35    34    1
    21    30    31    1
    22    30    24   am
    23    23    24    1
    24    23    26    1
    25    31    34    1
    26    14    12    1
    27    28    27   ar
    28    24    25    2
    29   131   132    1
    30   134   133    2
    31    12     9    1
    32    12    13    1
    33     9     8    1
    34    42    43    1
    35    43    44    2
    36    27    26    1
    37    27    29   ar
    38   132   133    1
    39   132   135    1
    40     8     3   am
    41    46    44    1
    42    44    45    1
    43     6     5    1
    44     3     4    2
    45     3     2    1
    46   157   154    1
    47   157   158    1
    48     2     5    1
    49     2     1    1
    50   160   158   ar
    51   155   154    1
    52   155   156    2
    53   154   153    1
    54    62    61   ar
    55    52    53    1
    56    52    51    1
    57   158   159   ar
    58     5     7    1
    59    54    53    1
    60   161   162    1
    61    94    92   ar
    62   147   146    2
    63   143   142    1
    64    47    48    1
    65    51    48    1
    66    93    92   ar
    67    61    63   ar
    68    61    60    1
    69   153   146   am
    70   162   165    1
    71   162   163    1
    72   142   141    1
    73    92    91    1
    74   146   145    1
    75    50    49    2
    76   123   121   ar
    77   123   122   ar
    78    48    49    1
    79    60    59    1
    80   121   119   ar
    81   141   140    1
    82   163   164    2
    83   122   120   ar
    84   127   126    2
    85    91    88    1
    86   119   118   ar
    87   119   117   ar
    88   145   144    1
    89   145   148    1
    90   144   138   am
    91    59    56    1
    92   118   116   ar
    93   120   117   ar
    94   140   137    1
    95   126   125    1
    96   102   101    1
    97   138   137    1
    98   138   139    2
    99   117   115   ar
   100   137   136    1
   101    58    57    2
   102   148   149    1
   103    88    89    1
   104    88    87    1
   105    57    56    1
   106    55    56    1
   107   125   128    1
   108   125   124    1
   109   116   115   ar
   110    90    89    2
   111   115   114    1
   112    87    81   am
   113   128   129    1
   114   151   150   ar
   115   149   150    1
   116   101   100    1
   117   124   130    1
   118   114   111    1
   119    83    84    1
   120    83    80    1
   121    86    84    1
   122    81    82    2
   123    81    80    1
   124   150   152   ar
   125   100    99    1
   126    84    85    1
   127    99    96    1
   128   111   112    1
   129   111   110    1
   130   129   130    1
   131    80    79    1
   132   112   113    2
   133   109   107    1
   134    79    70   am
   135    96    95    1
   136    96    97    1
   137   106   105    2
   138   107   104    1
   139   107   108    1
   140    65    64    1
   141    65    66    1
   142   104   105    1
   143   104   103    1
   144    70    71    2
   145    70    69    1
   146    68    66   am
   147    68    69    1
   148    97    98    2
   149    66    67    2
   150    69    72    1
   151    72    73    1
   152    75    73   ar
   153    75    77   ar
   154    73    74   ar
   155    77    78   ar
   156    74    76   ar
   157    78    76   ar
