@<TRIPOS>MOLECULE
tmp/5cexB00.pdb
 128 124 0 0 0
SMALL
GASTEIGER

@<TRIPOS>ATOM
      1  N        -10.8800   32.7790    4.8350 N.3    39  GLN39      -0.1245
      2  CA       -12.1360   33.5050    4.9080 C.3    39  GLN39       0.1566
      3  C        -11.9500   34.7950    5.6890 C.2    39  GLN39       0.2260
      4  O        -11.5910   34.7600    6.8530 O.2    39  GLN39      -0.2867
      5  CB       -13.2120   32.6330    5.5570 C.3    39  GLN39       0.0367
      6  CG       -14.5940   33.2330    5.5500 C.3    39  GLN39       0.0905
      7  CD       -15.6080   32.2460    6.0520 C.2    39  GLN39       0.2608
      8  OE1      -15.2900   31.3950    6.8810 O.2    39  GLN39      -0.2717
      9  NE2      -16.8240   32.3010    5.5010 N.am   39  GLN39      -0.0878
     10  N        -13.3850   38.1690    7.5590 N.3    41  PRO41      -0.2116
     11  CA       -14.5990   38.3790    8.3600 C.3    41  PRO41       0.1372
     12  C        -15.7930   38.8200    7.5180 C.2    41  PRO41       0.2244
     13  O        -15.7140   39.7980    6.7830 O.2    41  PRO41      -0.2868
     14  CB       -14.1730   39.4770    9.3400 C.3    41  PRO41       0.0268
     15  CG       -12.7060   39.2450    9.5190 C.3    41  PRO41       0.0207
     16  CD       -12.2260   38.8780    8.1340 C.3    41  PRO41       0.0892
     17  N         -5.8180   39.4740    6.4540 N.3    90  SER90      -0.1202
     18  CA        -6.3950   39.0450    7.7350 C.3    90  SER90       0.2020
     19  C         -7.5670   38.1170    7.4820 C.2    90  SER90       0.2619
     20  O         -8.4670   38.4470    6.7250 O.2    90  SER90      -0.2717
     21  CB        -6.8560   40.2410    8.5720 C.3    90  SER90       0.2103
     22  OG        -5.7360   40.9010    9.1220 O.3    90  SER90      -0.2182
     23  N         -7.5290   36.9330    8.0750 N.am   91  ALA91      -0.1965
     24  CA        -8.5770   35.9530    7.8130 C.3    91  ALA91       0.1728
     25  C         -8.4320   34.7650    8.7370 C.2    91  ALA91       0.2616
     26  O         -7.4380   34.6360    9.4690 O.2    91  ALA91      -0.2715
     27  CB        -8.5480   35.4790    6.3250 C.3    91  ALA91       0.0334
     28  N         -9.4330   33.8940    8.6990 N.am   92  ILE92      -0.1977
     29  CA        -9.2550   32.5580    9.2200 C.3    92  ILE92       0.1596
     30  C         -8.6710   31.6990    8.0880 C.2    92  ILE92       0.2287
     31  O         -9.1560   31.7530    6.9650 O.2    92  ILE92      -0.2864
     32  CB       -10.5610   31.9500    9.7080 C.3    92  ILE92       0.0276
     33  CG1      -11.2670   32.9070   10.6860 C.3    92  ILE92       0.0022
     34  CG2      -10.2730   30.5930   10.3280 C.3    92  ILE92       0.0022
     35  CD1      -12.4390   32.2780   11.3860 C.3    92  ILE92       0.0001
     36  N         -7.7980   27.8760    6.7730 N.3    94  TYR94      -0.1241
     37  CA        -8.1240   26.4600    6.9650 C.3    94  TYR94       0.1605
     38  C         -7.2040   25.5990    6.1260 C.2    94  TYR94       0.2264
     39  O         -6.8000   25.9900    5.0290 O.2    94  TYR94      -0.2867
     40  CB        -9.5780   26.1240    6.5630 C.3    94  TYR94       0.0534
     41  CG       -10.6860   26.9910    7.1490 C.ar   94  TYR94      -0.0201
     42  CD1      -11.3370   26.6260    8.3210 C.ar   94  TYR94      -0.0009
     43  CD2      -11.1160   28.1380    6.4860 C.ar   94  TYR94      -0.0009
     44  CE1      -12.3730   27.4110    8.8450 C.ar   94  TYR94       0.0417
     45  CE2      -12.1390   28.9330    7.0000 C.ar   94  TYR94       0.0417
     46  CZ       -12.7610   28.5640    8.1730 C.ar   94  TYR94       0.1957
     47  OH       -13.7760   29.3550    8.6590 O.3    94  TYR94      -0.2866
     48  N        -10.3940   23.0760   11.8220 N.3   124  GLN124     -0.1231
     49  CA       -11.2520   24.1210   12.3810 C.3   124  GLN124      0.1698
     50  C        -10.7730   25.5350   12.0220 C.2   124  GLN124      0.2592
     51  O        -11.5350   26.4970   12.1370 O.2   124  GLN124     -0.2718
     52  CB       -11.3840   23.9610   13.9000 C.3   124  GLN124      0.0381
     53  CG       -12.1490   22.6890   14.3040 C.3   124  GLN124      0.0905
     54  CD       -12.2210   22.4850   15.8270 C.2   124  GLN124      0.2608
     55  OE1      -11.3680   22.9770   16.5750 O.2   124  GLN124     -0.2717
     56  NE2      -13.2450   21.7590   16.2860 N.am  124  GLN124     -0.0878
     57  N         -9.5280   25.6640   11.5790 N.am  125  GLY125     -0.1957
     58  CA        -9.0450   26.9540   11.1090 C.3   125  GLY125      0.1869
     59  C         -8.2400   27.7140   12.1600 C.2   125  GLY125      0.2309
     60  O         -8.4150   27.4910   13.3600 O.2   125  GLY125     -0.2863
     61  N         -7.0040   31.7940   13.1520 N.3   127  PRO127     -0.2102
     62  CA        -7.2000   33.2000   12.7820 C.3   127  PRO127      0.1504
     63  C         -5.8760   33.9450   12.5990 C.2   127  PRO127      0.2576
     64  O         -4.9190   33.7140   13.3310 O.2   127  PRO127     -0.2718
     65  CB        -8.0200   33.7590   13.9600 C.3   127  PRO127      0.0282
     66  CG        -7.6390   32.9270   15.0920 C.3   127  PRO127      0.0208
     67  CD        -7.3390   31.5480   14.5680 C.3   127  PRO127      0.0893
     68  N         -5.8080   34.7960   11.5870 N.am  128  VAL128     -0.1966
     69  CA        -4.6040   35.5830   11.3610 C.3   128  VAL128      0.1727
     70  C         -4.9440   37.0360   11.2960 C.2   128  VAL128      0.2616
     71  O         -5.7520   37.4660   10.4840 O.2   128  VAL128     -0.2715
     72  CB        -3.8630   35.2060   10.0640 C.3   128  VAL128      0.0290
     73  CG1       -2.6510   36.1580    9.8540 C.3   128  VAL128      0.0023
     74  CG2       -3.4000   33.7630   10.1290 C.3   128  VAL128      0.0023
     75  N         -4.3260   37.7990   12.1810 N.am  129  THR129     -0.1951
     76  CA        -4.5510   39.2280   12.2050 C.3   129  THR129      0.1897
     77  C         -3.2720   39.9820   11.7790 C.2   129  THR129      0.2313
     78  O         -2.2400   39.8800   12.4360 O.2   129  THR129     -0.2863
     79  CB        -5.0130   39.6520   13.6100 C.3   129  THR129      0.1794
     80  OG1       -6.1870   38.8970   13.9630 O.3   129  THR129     -0.2208
     81  CG2       -5.2960   41.1170   13.6500 C.3   129  THR129      0.0378
     82  N         -5.2430   40.7660   22.8170 N.3   165  PHE165     -0.1241
     83  CA        -5.0420   40.9820   21.3880 C.3   165  PHE165      0.1605
     84  C         -3.9080   40.0550   20.9110 C.2   165  PHE165      0.2264
     85  O         -2.9410   39.8640   21.6370 O.2   165  PHE165     -0.2867
     86  CB        -4.7110   42.4460   21.1120 C.3   165  PHE165      0.0534
     87  CG        -4.6640   42.7940   19.6510 C.ar  165  PHE165     -0.0203
     88  CD1       -5.8300   43.0470   18.9620 C.ar  165  PHE165     -0.0042
     89  CD2       -3.4690   42.8570   18.9740 C.ar  165  PHE165     -0.0042
     90  CE1       -5.8100   43.3610   17.6270 C.ar  165  PHE165     -0.0003
     91  CE2       -3.4370   43.1660   17.6320 C.ar  165  PHE165     -0.0003
     92  CZ        -4.5980   43.4250   16.9550 C.ar  165  PHE165     -0.0000
     93  N         -7.1170   37.7970   18.4860 N.3   167  GLU167     -0.1231
     94  CA        -7.8010   36.5040   18.6220 C.3   167  GLU167      0.1684
     95  C         -6.8060   35.4020   18.2700 C.2   167  GLU167      0.2434
     96  O         -5.8690   35.6600   17.5230 O.2   167  GLU167     -0.2733
     97  CB        -9.0280   36.4280   17.7060 C.3   167  GLU167      0.0402
     98  CG       -10.1440   37.3970   18.0600 C.3   167  GLU167      0.1161
     99  CD       -11.1100   36.8230   19.0990 C.2   167  GLU167      0.3649
    100  OE1      -12.3310   36.9730   18.9160 O.co2 167  GLU167     -0.2457
    101  OE2      -10.6440   36.2260   20.0970 O.co2 167  GLU167     -0.2457
    102  N         -7.0090   34.1710   18.7820 N.am  168  PRO168     -0.2729
    103  CA        -8.1490   33.7000   19.5810 C.3   168  PRO168      0.1401
    104  C         -7.8200   33.4570   21.0520 C.2   168  PRO168      0.2269
    105  O         -6.6530   33.3310   21.4440 O.2   168  PRO168     -0.2865
    106  CB        -8.4810   32.3640   18.9160 C.3   168  PRO168      0.0296
    107  CG        -7.0820   31.8160   18.6080 C.3   168  PRO168      0.0237
    108  CD        -6.1830   33.0330   18.3470 C.3   168  PRO168      0.0939
    109  N        -15.1230   43.2240   20.3280 N.3   189  LEU189     -0.1245
    110  CA       -14.0030   44.0770   19.9360 C.3   189  LEU189      0.1561
    111  C        -14.2640   45.4890   20.4490 C.2   189  LEU189      0.2260
    112  O        -15.1520   46.1700   19.9740 O.2   189  LEU189     -0.2867
    113  CB       -13.8040   44.0570   18.4160 C.3   189  LEU189      0.0270
    114  CG       -12.6590   44.8570   17.7820 C.3   189  LEU189      0.0019
    115  CD1      -11.3540   44.6520   18.5240 C.3   189  LEU189      0.0001
    116  CD2      -12.4890   44.4540   16.3150 C.3   189  LEU189      0.0001
    117  N         -9.7440   42.9480   22.6600 N.3   195  TYR195     -0.1241
    118  CA       -10.8810   42.0390   22.8170 C.3   195  TYR195      0.1605
    119  C        -11.1550   41.7130   24.2740 C.2   195  TYR195      0.2264
    120  O        -10.2390   41.7060   25.0920 O.2   195  TYR195     -0.2867
    121  CB       -10.6640   40.7200   22.0840 C.3   195  TYR195      0.0534
    122  CG       -10.5800   40.8150   20.5880 C.ar  195  TYR195     -0.0201
    123  CD1       -9.3630   41.0660   19.9730 C.ar  195  TYR195     -0.0009
    124  CD2      -11.7020   40.6350   19.7880 C.ar  195  TYR195     -0.0009
    125  CE1       -9.2540   41.1430   18.6180 C.ar  195  TYR195      0.0417
    126  CE2      -11.6050   40.7110   18.4020 C.ar  195  TYR195      0.0417
    127  CZ       -10.3620   40.9760   17.8300 C.ar  195  TYR195      0.1957
    128  OH       -10.2010   41.0570   16.4680 O.3   195  TYR195     -0.2866
@<TRIPOS>BOND
     1     1     2    1
     2     2     5    1
     3     2     3    1
     4    39    38    2
     5     9     7   am
     6     6     5    1
     7     6     7    1
     8     3     4    2
     9     7     8    2
    10    38    37    1
    11    27    24    1
    12    17    18    1
    13    43    45   ar
    14    43    41   ar
    15    40    37    1
    16    40    41    1
    17    20    19    2
    18    36    37    1
    19    13    12    2
    20    31    30    2
    21    45    46   ar
    22    41    42   ar
    23    19    18    1
    24    19    23   am
    25    12    11    1
    26    10    16    1
    27    10    11    1
    28    18    21    1
    29    24    23    1
    30    24    25    1
    31    30    29    1
    32    16    15    1
    33    46    47    1
    34    46    44   ar
    35    42    44   ar
    36    11    14    1
    37    21    22    1
    38    28    25   am
    39    28    29    1
    40    25    26    2
    41    29    32    1
    42    14    15    1
    43    32    34    1
    44    32    33    1
    45    73    72    1
    46    72    74    1
    47    72    69    1
    48    71    70    2
    49    33    35    1
    50    58    57    1
    51    58    59    1
    52    70    69    1
    53    70    75   am
    54    69    68    1
    55    57    50   am
    56    68    63   am
    57    77    76    1
    58    77    78    2
    59    48    49    1
    60    50    51    2
    61    50    49    1
    62    59    60    2
    63    75    76    1
    64    76    79    1
    65    49    52    1
    66    63    62    1
    67    63    64    2
    68    62    61    1
    69    62    65    1
    70    61    67    1
    71    79    81    1
    72    79    80    1
    73    52    53    1
    74    65    66    1
    75    53    54    1
    76    67    66    1
    77    54    56   am
    78    54    55    2
    79   116   114    1
    80   128   127    1
    81    92    90   ar
    82    92    91   ar
    83    96    95    2
    84    90    88   ar
    85    91    89   ar
    86    97    98    1
    87    97    94    1
    88   114   113    1
    89   114   115    1
    90   127   126   ar
    91   127   125   ar
    92    98    99    1
    93    95    94    1
    94    95   102   am
    95   108   107    1
    96   108   102    1
    97   126   124   ar
    98   113   110    1
    99    93    94    1
   100   107   106    1
   101   125   123   ar
   102   102   103    1
   103   106   103    1
   104   100    99   ar
   105    88    87   ar
   106    89    87   ar
   107    99   101   ar
   108   103   104    1
   109    87    86    1
   110   124   122   ar
   111   110   109    1
   112   110   111    1
   113   123   122   ar
   114   112   111    2
   115   122   121    1
   116    84    83    1
   117    84    85    2
   118   104   105    2
   119    86    83    1
   120    83    82    1
   121   121   118    1
   122   117   118    1
   123   118   119    1
   124   119   120    2
