@<TRIPOS>MOLECULE
tmp/5cexC00.pdb
 146 139 0 0 0
SMALL
GASTEIGER

@<TRIPOS>ATOM
      1  N        -15.9200   -5.1950    8.8830 N.3    33  GLN33      -0.1245
      2  CA       -15.0800   -5.7850    9.9030 C.3    33  GLN33       0.1566
      3  C        -15.9170   -6.2450   11.0960 C.2    33  GLN33       0.2260
      4  O        -16.7230   -5.4770   11.6310 O.2    33  GLN33      -0.2867
      5  CB       -14.0260   -4.7780   10.3710 C.3    33  GLN33       0.0367
      6  CG       -13.1900   -5.2710   11.5200 C.3    33  GLN33       0.0905
      7  CD       -12.3970   -4.1560   12.1610 C.2    33  GLN33       0.2608
      8  OE1      -12.9690   -3.2370   12.7540 O.2    33  GLN33      -0.2717
      9  NE2      -11.0680   -4.2190   12.0280 N.am   33  GLN33      -0.0878
     10  N        -15.1470   -7.9100   14.7870 N.3    35  LYS35      -0.1231
     11  CA       -14.2340   -8.4070   15.8240 C.3    35  LYS35       0.1678
     12  C        -14.9840   -9.3960   16.7260 C.2    35  LYS35       0.2434
     13  O        -16.2090   -9.3840   16.7460 O.2    35  LYS35      -0.2733
     14  CB       -13.6730   -7.2350   16.6320 C.3    35  LYS35       0.0284
     15  CG       -12.7910   -6.2850   15.8010 C.3    35  LYS35       0.0035
     16  CD       -12.3300   -5.0670   16.5740 C.3    35  LYS35       0.0206
     17  CE       -11.7010   -4.0330   15.6230 C.3    35  LYS35       0.1093
     18  NZ       -10.9200   -3.0160   16.3700 N.3    35  LYS35      -0.1314
     19  N        -14.2550  -10.2890   17.4230 N.am   36  PRO36      -0.2718
     20  CA       -14.8970  -11.2750   18.3070 C.3    36  PRO36       0.1535
     21  C        -15.8720  -10.6130   19.2780 C.2    36  PRO36       0.2599
     22  O        -15.5140   -9.6370   19.9370 O.2    36  PRO36      -0.2715
     23  CB       -13.7210  -11.8850   19.0620 C.3    36  PRO36       0.0310
     24  CG       -12.5780  -11.7540   18.1270 C.3    36  PRO36       0.0237
     25  CD       -12.7870  -10.4280   17.4320 C.3    36  PRO36       0.0939
     26  N        -17.1010  -11.1120   19.3220 N.am   37  GLY37      -0.1941
     27  CA       -18.1210  -10.5890   20.2120 C.3    37  GLY37       0.2014
     28  C        -18.6380   -9.2020   19.8860 C.2    37  GLY37       0.2638
     29  O        -19.2160   -8.5540   20.7400 O.2    37  GLY37      -0.2714
     30  N        -18.4510   -8.7330   18.6560 N.am   38  GLN38      -0.1977
     31  CA       -18.9250   -7.3940   18.2950 C.3    38  GLN38       0.1601
     32  C        -19.7840   -7.4190   17.0460 C.2    38  GLN38       0.2287
     33  O        -19.7670   -8.3960   16.2930 O.2    38  GLN38      -0.2864
     34  CB       -17.7540   -6.4280   18.0690 C.3    38  GLN38       0.0394
     35  CG       -16.9310   -6.0730   19.3260 C.3    38  GLN38       0.0908
     36  CD       -15.7570   -5.1760   18.9760 C.2    38  GLN38       0.2608
     37  OE1      -15.7810   -4.4990   17.9490 O.2    38  GLN38      -0.2717
     38  NE2      -14.7110   -5.1830   19.8110 N.am   38  GLN38      -0.0878
     39  N        -18.6280   -3.6450   11.4590 N.3    41  VAL41      -0.1245
     40  CA       -18.2270   -2.2590   11.3170 C.3    41  VAL41       0.1561
     41  C        -17.8560   -2.0030    9.8510 C.2    41  VAL41       0.2260
     42  O        -17.0780   -2.7740    9.2890 O.2    41  VAL41      -0.2867
     43  CB       -17.0010   -1.9790   12.2410 C.3    41  VAL41       0.0252
     44  CG1      -16.4610   -0.5940   12.0520 C.3    41  VAL41       0.0019
     45  CG2      -17.3580   -2.2610   13.7230 C.3    41  VAL41       0.0019
     46  N        -15.6720   -0.6180    7.0450 N.3    43  VAL43      -0.1245
     47  CA       -14.3030   -0.1580    7.0020 C.3    43  VAL43       0.1561
     48  C        -13.9600    0.5400    5.6610 C.2    43  VAL43       0.2260
     49  O        -13.1530    1.4660    5.6180 O.2    43  VAL43      -0.2867
     50  CB       -13.3780   -1.3670    7.3290 C.3    43  VAL43       0.0252
     51  CG1      -12.0750   -1.3330    6.5910 C.3    43  VAL43       0.0019
     52  CG2      -13.2490   -1.5360    8.8850 C.3    43  VAL43       0.0019
     53  N        -13.6760    7.8080   11.3450 N.3    53  GLY53      -0.1210
     54  CA       -13.2640    6.9990   12.4760 C.3    53  GLY53       0.1956
     55  C        -12.4440    5.7720   12.0890 C.2    53  GLY53       0.2612
     56  O        -11.8620    5.1140   12.9360 O.2    53  GLY53      -0.2717
     57  N        -12.4390    5.4110   10.8140 N.am   54  ILE54      -0.1966
     58  CA       -11.6310    4.2740   10.3970 C.3    54  ILE54       0.1712
     59  C        -10.1990    4.7050   10.0900 C.2    54  ILE54       0.2458
     60  O         -9.9820    5.6240    9.3000 O.2    54  ILE54      -0.2730
     61  CB       -12.2550    3.5750    9.1740 C.3    54  ILE54       0.0289
     62  CG1      -13.6520    3.0770    9.5300 C.3    54  ILE54       0.0022
     63  CG2      -11.3550    2.4470    8.6810 C.3    54  ILE54       0.0023
     64  CD1      -13.6730    2.2000   10.7390 C.3    54  ILE54       0.0001
     65  N         -9.2140    4.0440   10.7120 N.am   55  PRO55      -0.2727
     66  CA        -7.8040    4.3490   10.4110 C.3    55  PRO55       0.1402
     67  C         -7.4510    4.2320    8.9230 C.2    55  PRO55       0.2269
     68  O         -7.9700    3.3520    8.2370 O.2    55  PRO55      -0.2865
     69  CB        -7.0420    3.2910   11.2170 C.3    55  PRO55       0.0296
     70  CG        -7.9760    2.9630   12.3770 C.3    55  PRO55       0.0237
     71  CD        -9.3630    3.0430   11.7880 C.3    55  PRO55       0.0939
     72  N         -4.8300    3.0790    7.8760 N.3    57  ARG57      -0.1231
     73  CA        -4.1610    1.7790    7.7460 C.3    57  ARG57       0.1694
     74  C         -5.0070    0.8060    6.9120 C.2    57  ARG57       0.2592
     75  O         -4.4700   -0.1110    6.2820 O.2    57  ARG57      -0.2718
     76  CB        -3.9080    1.1460    9.1120 C.3    57  ARG57       0.0321
     77  CG        -2.9740    1.9040   10.0220 C.3    57  ARG57       0.0489
     78  CD        -2.6280    1.0700   11.2740 C.3    57  ARG57       0.2205
     79  NE        -3.7710    0.7560   12.1420 N.pl3  57  ARG57      -0.0865
     80  CZ        -4.3380   -0.4440   12.2840 C.cat  57  ARG57       0.5346
     81  NH1       -5.3550   -0.5870   13.1380 N.pl3  57  ARG57       0.1354
     82  NH2       -3.9000   -1.5050   11.5960 N.pl3  57  ARG57       0.1354
     83  N         -6.3250    1.0060    6.9300 N.am   58  PHE58      -0.1976
     84  CA        -7.2350    0.1950    6.1260 C.3    58  PHE58       0.1639
     85  C         -7.3890    0.8500    4.7600 C.2    58  PHE58       0.2290
     86  O         -7.8110    2.0030    4.6640 O.2    58  PHE58      -0.2864
     87  CB        -8.5980    0.0330    6.8170 C.3    58  PHE58       0.0560
     88  CG        -8.5390   -0.7450    8.1100 C.ar   58  PHE58      -0.0200
     89  CD1       -8.0510   -0.1720    9.2630 C.ar   58  PHE58      -0.0042
     90  CD2       -8.9470   -2.0760    8.1520 C.ar   58  PHE58      -0.0042
     91  CE1       -7.9840   -0.9110   10.4560 C.ar   58  PHE58      -0.0003
     92  CE2       -8.8820   -2.8070    9.3330 C.ar   58  PHE58      -0.0003
     93  CZ        -8.3940   -2.2230   10.4790 C.ar   58  PHE58      -0.0000
     94  N         -2.3340   -4.6280   13.8880 N.3    78  GLU78      -0.1245
     95  CA        -2.2770   -4.7570   15.3590 C.3    78  GLU78       0.1567
     96  C         -3.1980   -5.8750   15.8180 C.2    78  GLU78       0.2260
     97  O         -4.1310   -6.2510   15.0850 O.2    78  GLU78      -0.2867
     98  CB        -2.7220   -3.4760   16.0710 C.3    78  GLU78       0.0388
     99  CG        -2.1550   -2.1900   15.5320 C.3    78  GLU78       0.1160
    100  CD        -2.9200   -0.9750   16.0220 C.2    78  GLU78       0.3649
    101  OE1       -3.9150   -1.1500   16.7650 O.co2  78  GLU78      -0.2457
    102  OE2       -2.5330    0.1560   15.6570 O.co2  78  GLU78      -0.2457
    103  N         -5.5650   -5.6280   17.8220 N.3    80  GLY80      -0.1210
    104  CA        -6.9210   -5.1130   17.7850 C.3    80  GLY80       0.1956
    105  C         -7.6120   -5.2890   16.4310 C.2    80  GLY80       0.2611
    106  O         -8.8230   -5.1540   16.3510 O.2    80  GLY80      -0.2717
    107  N         -6.8520   -5.5830   15.3720 N.am   81  ASP81      -0.1973
    108  CA        -7.4230   -5.7560   14.0310 C.3    81  ASP81       0.1709
    109  C         -7.9950   -7.1680   13.7760 C.2    81  ASP81       0.2293
    110  O         -8.6750   -7.3900   12.7630 O.2    81  ASP81      -0.2864
    111  CB        -6.3720   -5.4580   12.9550 C.3    81  ASP81       0.1436
    112  CG        -5.7780   -4.0540   13.0650 C.2    81  ASP81       0.3671
    113  OD1       -6.4430   -3.1290   13.5860 O.co2  81  ASP81      -0.2456
    114  OD2       -4.6220   -3.8870   12.6320 O.co2  81  ASP81      -0.2456
    115  N        -11.9350  -13.7260   22.9990 N.3   169  LYS169     -0.1231
    116  CA       -11.0710  -12.5640   23.0900 C.3   169  LYS169      0.1693
    117  C        -11.6630  -11.4320   23.9380 C.2   169  LYS169      0.2592
    118  O        -12.8490  -11.1230   23.8370 O.2   169  LYS169     -0.2718
    119  CB       -10.7520  -12.0460   21.6820 C.3   169  LYS169      0.0285
    120  CG        -9.4930  -11.2100   21.6070 C.3   169  LYS169      0.0035
    121  CD        -9.2250  -10.7250   20.1750 C.3   169  LYS169      0.0206
    122  CE        -8.1020   -9.7380   20.1860 C.3   169  LYS169      0.1093
    123  NZ        -7.8890   -9.0470   18.8900 N.3   169  LYS169     -0.1314
    124  N        -10.8210  -10.8330   24.7740 N.am  170  GLN170     -0.1966
    125  CA       -11.1980   -9.6720   25.5760 C.3   170  GLN170      0.1733
    126  C        -10.8430   -8.3920   24.8380 C.2   170  GLN170      0.2617
    127  O        -10.1000   -8.4190   23.8520 O.2   170  GLN170     -0.2715
    128  CB       -10.4890   -9.6650   26.9410 C.3   170  GLN170      0.0408
    129  CG       -10.5040  -10.9880   27.7070 C.3   170  GLN170      0.0908
    130  CD        -9.5350  -10.9780   28.9070 C.2   170  GLN170      0.2608
    131  OE1       -9.5910  -11.8490   29.7680 O.2   170  GLN170     -0.2717
    132  NE2       -8.6490   -9.9880   28.9530 N.am  170  GLN170     -0.0878
    133  N        -11.3680   -7.2710   25.3250 N.am  171  SER171     -0.1950
    134  CA       -11.0840   -5.9660   24.7350 C.3   171  SER171      0.1924
    135  C         -9.6290   -5.5240   24.8970 C.2   171  SER171      0.2314
    136  O         -9.1920   -4.6160   24.1970 O.2   171  SER171     -0.2863
    137  CB       -12.0070   -4.8940   25.3300 C.3   171  SER171      0.2116
    138  OG       -11.8070   -4.7790   26.7230 O.3   171  SER171     -0.2180
    139  N         -7.2230   -7.5230   24.1680 N.3   173  ASN173     -0.1240
    140  CA        -6.6110   -8.4420   23.2100 C.3   173  ASN173      0.1653
    141  C         -6.0500   -9.7110   23.8390 C.2   173  ASN173      0.2266
    142  O         -5.3990  -10.4960   23.1590 O.2   173  ASN173     -0.2867
    143  CB        -5.5220   -7.7240   22.3940 C.3   173  ASN173      0.1155
    144  CG        -6.1090   -6.6720   21.4480 C.2   173  ASN173      0.2627
    145  OD1       -7.0210   -6.9570   20.6730 O.2   173  ASN173     -0.2716
    146  ND2       -5.6070   -5.4450   21.5360 N.am  173  ASN173     -0.0877
@<TRIPOS>BOND
     1    86    85    2
     2    85    84    1
     3    49    48    2
     4    48    47    1
     5    84    87    1
     6    84    83    1
     7    75    74    2
     8    51    50    1
     9    87    88    1
    10    74    83   am
    11    74    73    1
    12    47    46    1
    13    47    50    1
    14    50    52    1
    15    73    72    1
    16    73    76    1
    17    88    90   ar
    18    88    89   ar
    19    90    92   ar
    20    68    67    2
    21    63    61    1
    22     1     2    1
    23    67    66    1
    24    76    77    1
    25    61    62    1
    26    61    58    1
    27    89    91   ar
    28    42    41    2
    29    60    59    2
    30    92    93   ar
    31    62    64    1
    32    41    40    1
    33     2     5    1
    34     2     3    1
    35    77    78    1
    36    59    58    1
    37    59    65   am
    38     5     6    1
    39    58    57    1
    40    66    65    1
    41    66    69    1
    42    91    93   ar
    43    65    71    1
    44    57    55   am
    45     3     4    2
    46    69    70    1
    47    78    79    1
    48    40    39    1
    49    40    43    1
    50    53    54    1
    51     6     7    1
    52    82    80    1
    53    71    70    1
    54     9     7   am
    55    44    43    1
    56    55    54    1
    57    55    56    2
    58    79    80    2
    59     7     8    2
    60    43    45    1
    61    80    81    1
    62   114   112   ar
    63   110   109    2
    64   111   112    1
    65   111   108    1
    66   112   113   ar
    67   109   108    1
    68    94    95    1
    69   108   107    1
    70    10    11    1
    71    97    96    2
    72    95    96    1
    73    95    98    1
    74   107   105   am
    75    99   100    1
    76    99    98    1
    77    17    18    1
    78    17    16    1
    79   102   100   ar
    80    15    16    1
    81    15    14    1
    82    11    14    1
    83    11    12    1
    84   100   101   ar
    85    33    32    2
    86   106   105    2
    87   105   104    1
    88    12    13    2
    89    12    19   am
    90    32    31    1
    91    19    25    1
    92    19    20    1
    93    25    24    1
    94   104   103    1
    95    37    36    2
    96    34    31    1
    97    34    35    1
    98    24    23    1
    99    31    30    1
   100    20    23    1
   101    20    21    1
   102    30    28   am
   103   123   122    1
   104    36    35    1
   105    36    38   am
   106    21    26   am
   107    21    22    2
   108    26    27    1
   109    28    27    1
   110    28    29    2
   111   121   122    1
   112   121   120    1
   113   145   144    2
   114   144   146   am
   115   144   143    1
   116   120   119    1
   117   119   116    1
   118   143   140    1
   119   115   116    1
   120   116   117    1
   121   142   141    2
   122   140   141    1
   123   140   139    1
   124   118   117    2
   125   127   126    2
   126   117   124   am
   127   136   135    2
   128   134   135    1
   129   134   133    1
   130   134   137    1
   131   124   125    1
   132   126   133   am
   133   126   125    1
   134   137   138    1
   135   125   128    1
   136   128   129    1
   137   129   130    1
   138   130   132   am
   139   130   131    2
