@<TRIPOS>MOLECULE
tmp/5ceyD00.pdb
 99 89 0 0 0
SMALL
GASTEIGER

@<TRIPOS>ATOM
      1  N         -8.7860  -36.5780  -17.5820 N.3    16  THR16      -0.1218
      2  CA        -9.0400  -35.2290  -18.0530 C.3    16  THR16       0.1862
      3  C         -9.8390  -34.3710  -17.0780 C.2    16  THR16       0.2287
      4  O        -10.9630  -34.6840  -16.7330 O.2    16  THR16      -0.2866
      5  CB        -9.7960  -35.2620  -19.3890 C.3    16  THR16       0.1770
      6  OG1       -9.0480  -36.0170  -20.3380 O.3    16  THR16      -0.2211
      7  CG2       -9.9980  -33.8710  -19.9210 C.3    16  THR16       0.0375
      8  N        -12.0930  -31.3450  -16.2290 N.3    18  SER18      -0.1217
      9  CA       -13.0290  -30.4930  -16.9350 C.3    18  SER18       0.1889
     10  C        -13.7430  -29.5560  -15.9690 C.2    18  SER18       0.2288
     11  O        -14.4260  -30.0070  -15.0680 O.2    18  SER18      -0.2866
     12  CB       -14.0380  -31.3580  -17.6920 C.3    18  SER18       0.2089
     13  OG       -14.6460  -30.6630  -18.7540 O.3    18  SER18      -0.2183
     14  N          0.3450  -27.4750  -24.6250 N.3    64  SER64      -0.1202
     15  CA         0.0800  -28.7950  -25.1740 C.3    64  SER64       0.2020
     16  C         -1.1540  -29.4650  -24.5760 C.2    64  SER64       0.2619
     17  O         -1.8750  -30.1570  -25.2720 O.2    64  SER64      -0.2717
     18  CB         1.3010  -29.6930  -25.0100 C.3    64  SER64       0.2103
     19  OG         1.8990  -29.5020  -23.7540 O.3    64  SER64      -0.2182
     20  N         -1.3660  -29.2860  -23.2790 N.am   65  ARG65      -0.1965
     21  CA        -2.4130  -29.9860  -22.5500 C.3    65  ARG65       0.1729
     22  C         -3.7280  -29.2560  -22.3010 C.2    65  ARG65       0.2616
     23  O         -4.5670  -29.7670  -21.5910 O.2    65  ARG65      -0.2715
     24  CB        -1.8800  -30.4490  -21.2040 C.3    65  ARG65       0.0348
     25  CG        -0.5580  -31.1670  -21.2790 C.3    65  ARG65       0.0492
     26  CD        -0.2360  -31.8290  -19.9580 C.3    65  ARG65       0.2205
     27  NE        -0.0100  -30.8630  -18.8960 N.pl3  65  ARG65      -0.0865
     28  CZ        -0.7060  -30.8210  -17.7710 C.cat  65  ARG65       0.5346
     29  NH1       -1.6750  -31.6880  -17.5650 N.pl3  65  ARG65       0.1354
     30  NH2       -0.4290  -29.9150  -16.8550 N.pl3  65  ARG65       0.1354
     31  N         -3.9100  -28.0630  -22.8420 N.am   66  VAL66      -0.1963
     32  CA        -5.0870  -27.2740  -22.5040 C.3    66  VAL66       0.1727
     33  C         -5.9870  -26.9200  -23.6740 C.2    66  VAL66       0.2616
     34  O         -5.5110  -26.5480  -24.7190 O.2    66  VAL66      -0.2715
     35  CB        -4.6760  -25.9620  -21.8230 C.3    66  VAL66       0.0290
     36  CG1       -5.9000  -25.1730  -21.4170 C.3    66  VAL66       0.0023
     37  CG2       -3.8010  -26.2400  -20.6230 C.3    66  VAL66       0.0023
     38  N         -7.2920  -27.0530  -23.4890 N.am   67  VAL67      -0.1977
     39  CA        -8.2610  -26.4960  -24.4210 C.3    67  VAL67       0.1596
     40  C         -9.2820  -25.6140  -23.7150 C.2    67  VAL67       0.2287
     41  O         -9.8780  -26.0130  -22.7330 O.2    67  VAL67      -0.2864
     42  CB        -8.9790  -27.5810  -25.2510 C.3    67  VAL67       0.0276
     43  CG1       -9.5350  -28.6670  -24.3570 C.3    67  VAL67       0.0022
     44  CG2      -10.0840  -26.9710  -26.0940 C.3    67  VAL67       0.0022
     45  N        -12.7960  -23.4040  -24.4480 N.3    69  SER69      -0.1217
     46  CA       -13.8510  -23.3200  -25.4340 C.3    69  SER69       0.1889
     47  C        -15.0820  -22.5940  -24.9270 C.2    69  SER69       0.2288
     48  O        -15.2480  -22.4080  -23.7420 O.2    69  SER69      -0.2866
     49  CB       -14.2020  -24.7000  -25.9890 C.3    69  SER69       0.2089
     50  OG       -14.6770  -25.5690  -24.9900 O.3    69  SER69      -0.2183
     51  N        -19.3930  -22.0730  -25.1520 N.3    71  ASP71      -0.1239
     52  CA       -20.6930  -22.5370  -25.6100 C.3    71  ASP71       0.1674
     53  C        -21.7230  -21.4260  -25.4970 C.2    71  ASP71       0.2266
     54  O        -22.2080  -21.1280  -24.4160 O.2    71  ASP71      -0.2867
     55  CB       -21.1450  -23.7560  -24.8090 C.3    71  ASP71       0.1410
     56  CG       -22.2650  -24.5050  -25.4820 C.2    71  ASP71       0.3668
     57  OD1      -23.1980  -23.8620  -25.9750 O.co2  71  ASP71      -0.2456
     58  OD2      -22.2120  -25.7440  -25.5260 O.co2  71  ASP71      -0.2456
     59  N        -25.5710  -22.4050  -24.2340 N.3    74  LYS74      -0.1245
     60  CA       -25.6650  -22.5830  -22.7980 C.3    74  LYS74       0.1561
     61  C        -25.0960  -21.3930  -22.0310 C.2    74  LYS74       0.2260
     62  O        -25.2640  -21.2940  -20.8240 O.2    74  LYS74      -0.2867
     63  CB       -24.9540  -23.8620  -22.3790 C.3    74  LYS74       0.0271
     64  CG       -25.2820  -25.0700  -23.2340 C.3    74  LYS74       0.0035
     65  CD       -25.0730  -26.3550  -22.4570 C.3    74  LYS74       0.0206
     66  CE       -24.3750  -27.4020  -23.2960 C.3    74  LYS74       0.1093
     67  NZ       -22.9520  -27.5860  -22.8940 N.3    74  LYS74      -0.1314
     68  N        -21.9560  -20.7240  -21.4030 N.3    76  GLN76      -0.1245
     69  CA       -20.9590  -21.2150  -20.4790 C.3    76  GLN76       0.1566
     70  C        -19.6130  -21.3690  -21.1460 C.2    76  GLN76       0.2260
     71  O        -19.5180  -21.4660  -22.3470 O.2    76  GLN76      -0.2867
     72  CB       -21.4070  -22.5340  -19.8670 C.3    76  GLN76       0.0367
     73  CG       -21.5090  -23.6660  -20.8630 C.3    76  GLN76       0.0905
     74  CD       -21.8690  -24.9840  -20.2150 C.2    76  GLN76       0.2608
     75  OE1      -22.7600  -25.0550  -19.3720 O.2    76  GLN76      -0.2717
     76  NE2      -21.1730  -26.0360  -20.6080 N.am   76  GLN76      -0.0878
     77  N        -15.6560  -23.2910  -21.0170 N.3    78  SER78      -0.1217
     78  CA       -15.0840  -24.5610  -20.6150 C.3    78  SER78       0.1889
     79  C        -13.5700  -24.5480  -20.6430 C.2    78  SER78       0.2288
     80  O        -12.9780  -23.8990  -21.4790 O.2    78  SER78      -0.2866
     81  CB       -15.6210  -25.6730  -21.5140 C.3    78  SER78       0.2089
     82  OG       -14.7800  -26.8050  -21.5130 O.3    78  SER78      -0.2183
     83  N        -10.4710  -27.6130  -20.4140 N.3    80  LYS80      -0.1245
     84  CA       -10.1180  -29.0200  -20.2800 C.3    80  LYS80       0.1561
     85  C         -8.6090  -29.2030  -20.1700 C.2    80  LYS80       0.2260
     86  O         -7.8370  -28.5960  -20.9110 O.2    80  LYS80      -0.2867
     87  CB       -10.6710  -29.8290  -21.4540 C.3    80  LYS80       0.0271
     88  CG       -12.1890  -29.8650  -21.5040 C.3    80  LYS80       0.0035
     89  CD       -12.6910  -30.7710  -22.6130 C.3    80  LYS80       0.0206
     90  CE       -14.2100  -30.7760  -22.6650 C.3    80  LYS80       0.1093
     91  NZ       -14.7280  -31.6870  -23.7210 N.3    80  LYS80      -0.1314
     92  N         -5.6830  -32.2550  -19.8700 N.3    82  ASN82      -0.1240
     93  CA        -5.5160  -33.6910  -20.0070 C.3    82  ASN82       0.1653
     94  C         -4.2170  -34.1940  -19.4160 C.2    82  ASN82       0.2266
     95  O         -3.2790  -33.4380  -19.2480 O.2    82  ASN82      -0.2867
     96  CB        -5.6860  -34.1560  -21.4560 C.3    82  ASN82       0.1155
     97  CG        -4.6490  -33.5830  -22.3910 C.2    82  ASN82       0.2627
     98  OD1       -3.9300  -32.6530  -22.0400 O.2    82  ASN82      -0.2716
     99  ND2       -4.5900  -34.1080  -23.5980 N.am   82  ASN82      -0.0877
@<TRIPOS>BOND
     1    44    42    1
     2    49    46    1
     3    49    50    1
     4    57    56   ar
     5    52    53    1
     6    52    51    1
     7    52    55    1
     8    58    56   ar
     9    53    54    2
    10    56    55    1
    11    46    47    1
    12    46    45    1
    13    17    16    2
    14    42    39    1
    15    42    43    1
    16    15    18    1
    17    15    14    1
    18    15    16    1
    19    18    19    1
    20    47    48    2
    21    34    33    2
    22    16    20   am
    23    39    40    1
    24    39    38    1
    25    59    60    1
    26    91    90    1
    27    40    41    2
    28    33    38   am
    29    33    32    1
    30    99    97   am
    31    66    67    1
    32    66    65    1
    33    20    21    1
    34    64    65    1
    35    64    63    1
    36    31    32    1
    37    31    22   am
    38    60    63    1
    39    60    61    1
    40    90    89    1
    41    89    88    1
    42    21    22    1
    43    21    24    1
    44    32    35    1
    45    97    98    2
    46    97    96    1
    47    71    70    2
    48    22    23    2
    49    61    62    2
    50    35    36    1
    51    35    37    1
    52    81    82    1
    53    81    78    1
    54    88    87    1
    55    80    79    2
    56    96    93    1
    57    87    84    1
    58    68    69    1
    59    25    24    1
    60    25    26    1
    61    70    69    1
    62    77    78    1
    63    86    85    2
    64    73    74    1
    65    73    72    1
    66    79    78    1
    67    76    74   am
    68    69    72    1
    69    83    84    1
    70     6     5    1
    71    84    85    1
    72    74    75    2
    73    93    92    1
    74    93    94    1
    75    26    27    1
    76     7     5    1
    77    94    95    2
    78     5     2    1
    79    27    28    2
    80    13    12    1
    81     2     1    1
    82     2     3    1
    83    28    29    1
    84    28    30    1
    85    12     9    1
    86     3     4    2
    87     9     8    1
    88     9    10    1
    89    10    11    2
