@<TRIPOS>MOLECULE
tmp/5cf0A00.pdb
 170 159 0 0 0
SMALL
GASTEIGER

@<TRIPOS>ATOM
      1  N          0.2760  -11.9720  -32.3880 N.3    32  LEU32      -0.1245
      2  CA         0.6760  -12.5200  -31.0890 C.3    32  LEU32       0.1561
      3  C          1.9630  -11.8610  -30.6160 C.2    32  LEU32       0.2260
      4  O          2.1170  -11.5680  -29.4300 O.2    32  LEU32      -0.2867
      5  CB         0.8470  -14.0370  -31.1770 C.3    32  LEU32       0.0270
      6  CG        -0.4800  -14.7410  -31.4790 C.3    32  LEU32       0.0019
      7  CD1       -0.2730  -16.2570  -31.6020 C.3    32  LEU32       0.0001
      8  CD2       -1.5060  -14.4280  -30.3960 C.3    32  LEU32       0.0001
      9  N          1.1360   -8.5460  -29.2190 N.3    35  ASN35      -0.1225
     10  CA         0.6060   -8.6320  -27.8620 C.3    35  ASN35       0.1785
     11  C          1.7220   -8.8070  -26.8300 C.2    35  ASN35       0.2597
     12  O          1.7130   -8.1660  -25.7780 O.2    35  ASN35      -0.2718
     13  CB        -0.4130   -9.7710  -27.7160 C.3    35  ASN35       0.1169
     14  CG        -1.7420   -9.4650  -28.4100 C.2    35  ASN35       0.2627
     15  OD1       -1.9850   -8.3370  -28.8370 O.2    35  ASN35      -0.2716
     16  ND2       -2.6040  -10.4670  -28.5100 N.am   35  ASN35      -0.0877
     17  N          2.6790   -9.6720  -27.1440 N.am   36  SER36      -0.1952
     18  CA         3.8010   -9.9080  -26.2450 C.3    36  SER36       0.1924
     19  C          4.5890   -8.6150  -26.0350 C.2    36  SER36       0.2314
     20  O          5.0070   -8.2970  -24.9150 O.2    36  SER36      -0.2863
     21  CB         4.7270  -10.9720  -26.8230 C.3    36  SER36       0.2116
     22  OG         4.0890  -12.2410  -26.8500 O.3    36  SER36      -0.2180
     23  N          3.5050   -5.5630  -26.2340 N.3    38  ASP38      -0.1225
     24  CA         2.7570   -4.6880  -25.3380 C.3    38  ASP38       0.1805
     25  C          2.9430   -5.0880  -23.8710 C.2    38  ASP38       0.2597
     26  O          3.0690   -4.2320  -22.9930 O.2    38  ASP38      -0.2718
     27  CB         1.2670   -4.6800  -25.6920 C.3    38  ASP38       0.1424
     28  CG         0.9860   -4.0310  -27.0340 C.2    38  ASP38       0.3668
     29  OD1        1.9130   -3.4270  -27.6210 O.co2  38  ASP38      -0.2456
     30  OD2       -0.1650   -4.1480  -27.5130 O.co2  38  ASP38      -0.2456
     31  N          2.9620   -6.3890  -23.6010 N.am   39  ALA39      -0.1979
     32  CA         3.0740   -6.8630  -22.2220 C.3    39  ALA39       0.1597
     33  C          4.4700   -6.5710  -21.7020 C.2    39  ALA39       0.2287
     34  O          4.6500   -6.2640  -20.5150 O.2    39  ALA39      -0.2864
     35  CB         2.7900   -8.3550  -22.1340 C.3    39  ALA39       0.0319
     36  N          4.8490   -3.0280  -20.7410 N.3    42  LYS42      -0.1245
     37  CA         4.2340   -2.7040  -19.4700 C.3    42  LYS42       0.1561
     38  C          5.1450   -3.0290  -18.2950 C.2    42  LYS42       0.2260
     39  O          5.2860   -2.2230  -17.3690 O.2    42  LYS42      -0.2867
     40  CB         2.8780   -3.3830  -19.2950 C.3    42  LYS42       0.0271
     41  CG         2.1630   -2.8630  -18.0670 C.3    42  LYS42       0.0035
     42  CD         0.7080   -3.2730  -18.0450 C.3    42  LYS42       0.0206
     43  CE        -0.0440   -2.4810  -16.9890 C.3    42  LYS42       0.1093
     44  NZ        -1.4990   -2.6900  -17.1580 N.3    42  LYS42      -0.1314
     45  N          6.5770  -14.9850  -23.8890 N.3    77  ASP77      -0.1239
     46  CA         7.1670  -13.6900  -23.5510 C.3    77  ASP77       0.1674
     47  C          7.3850  -13.5750  -22.0590 C.2    77  ASP77       0.2266
     48  O          6.7680  -14.2990  -21.2790 O.2    77  ASP77      -0.2867
     49  CB         6.3130  -12.5140  -24.0800 C.3    77  ASP77       0.1410
     50  CG         4.9630  -12.4150  -23.4150 C.2    77  ASP77       0.3668
     51  OD1        4.9160  -12.0950  -22.2130 O.co2  77  ASP77      -0.2456
     52  OD2        3.9340  -12.6140  -24.1090 O.co2  77  ASP77      -0.2456
     53  N          4.5070   -8.6140  -18.5470 N.3    80  ILE80      -0.1231
     54  CA         3.9530   -8.4130  -17.2200 C.3    80  ILE80       0.1692
     55  C          3.1220   -9.5990  -16.7260 C.2    80  ILE80       0.2593
     56  O          2.9660   -9.7910  -15.5220 O.2    80  ILE80      -0.2718
     57  CB         3.1160   -7.1160  -17.1800 C.3    80  ILE80       0.0266
     58  CG1        2.7360   -6.7610  -15.7400 C.3    80  ILE80       0.0019
     59  CG2        1.8710   -7.2410  -18.0690 C.3    80  ILE80       0.0020
     60  CD1        2.4060   -5.2920  -15.5640 C.3    80  ILE80       0.0001
     61  N          2.5890  -10.3940  -17.6480 N.am   81  GLY81      -0.1942
     62  CA         1.7190  -11.4930  -17.2590 C.3    81  GLY81       0.2014
     63  C          0.3000  -11.0560  -16.9180 C.2    81  GLY81       0.2638
     64  O          0.0130   -9.8610  -16.7550 O.2    81  GLY81      -0.2714
     65  N         -0.5980  -12.0280  -16.7990 N.am   82  MET82      -0.1976
     66  CA        -2.0030  -11.7330  -16.5330 C.3    82  MET82       0.1605
     67  C         -2.5070  -12.3560  -15.2390 C.2    82  MET82       0.2287
     68  O         -2.0560  -13.4340  -14.8210 O.2    82  MET82      -0.2864
     69  CB        -2.8780  -12.1780  -17.7010 C.3    82  MET82       0.0413
     70  CG        -2.6930  -11.2830  -18.9330 C.3    82  MET82       0.0598
     71  SD        -3.4840  -11.9180  -20.4070 S.3    82  MET82      -0.1393
     72  CE        -2.5220  -13.3770  -20.7450 C.3    82  MET82       0.0692
     73  N         -7.8380  -10.7020  -15.3390 N.3    86  ASP86      -0.1225
     74  CA        -7.5300  -10.4290  -16.7380 C.3    86  ASP86       0.1805
     75  C         -8.1550  -11.5130  -17.6260 C.2    86  ASP86       0.2597
     76  O         -8.8490  -11.2290  -18.6030 O.2    86  ASP86      -0.2718
     77  CB        -6.0140  -10.4170  -16.9690 C.3    86  ASP86       0.1424
     78  CG        -5.3440   -9.1200  -16.5150 C.2    86  ASP86       0.3668
     79  OD1       -6.0100   -8.0600  -16.4620 O.co2  86  ASP86      -0.2456
     80  OD2       -4.1270   -9.1660  -16.2300 O.co2  86  ASP86      -0.2456
     81  N         -7.8910  -12.7680  -17.2800 N.am   87  LEU87      -0.1979
     82  CA        -8.2870  -13.8940  -18.1180 C.3    87  LEU87       0.1596
     83  C         -9.8000  -14.0500  -18.2200 C.2    87  LEU87       0.2287
     84  O        -10.3380  -14.3590  -19.2860 O.2    87  LEU87      -0.2864
     85  CB        -7.6860  -15.1880  -17.5760 C.3    87  LEU87       0.0297
     86  CG        -6.1630  -15.2810  -17.5950 C.3    87  LEU87       0.0022
     87  CD1       -5.7280  -16.5740  -16.9250 C.3    87  LEU87       0.0001
     88  CD2       -5.6420  -15.1980  -19.0190 C.3    87  LEU87       0.0001
     89  N         -9.6880   -8.8390  -20.3020 N.3    91  LEU91      -0.1245
     90  CA        -9.3500   -8.9990  -21.7130 C.3    91  LEU91       0.1561
     91  C        -10.6070   -8.8520  -22.5590 C.2    91  LEU91       0.2260
     92  O        -10.5980   -8.2020  -23.6120 O.2    91  LEU91      -0.2867
     93  CB        -8.7380  -10.3780  -21.9750 C.3    91  LEU91       0.0270
     94  CG        -7.3200  -10.6700  -21.4940 C.3    91  LEU91       0.0019
     95  CD1       -7.0410  -12.1680  -21.6230 C.3    91  LEU91       0.0001
     96  CD2       -6.3090   -9.8610  -22.2900 C.3    91  LEU91       0.0001
     97  N        -12.1210   -5.0440  -22.3360 N.3    94  ILE94      -0.1245
     98  CA       -11.3890   -4.0280  -23.0880 C.3    94  ILE94       0.1561
     99  C        -11.3720   -4.3120  -24.5860 C.2    94  ILE94       0.2260
    100  O        -10.9390   -3.4730  -25.3810 O.2    94  ILE94      -0.2867
    101  CB        -9.9540   -3.8160  -22.5610 C.3    94  ILE94       0.0252
    102  CG1       -9.0780   -5.0340  -22.8190 C.3    94  ILE94       0.0019
    103  CG2       -9.9690   -3.5000  -21.0740 C.3    94  ILE94       0.0019
    104  CD1       -7.7110   -4.9430  -22.1280 C.3    94  ILE94       0.0001
    105  N         -7.4080   -4.0160  -31.9600 N.3   119  GLY119     -0.1225
    106  CA        -6.9510   -4.4890  -30.6630 C.3   119  GLY119      0.1811
    107  C         -7.3940   -5.8930  -30.2900 C.2   119  GLY119      0.2280
    108  O         -7.3920   -6.2670  -29.1140 O.2   119  GLY119     -0.2866
    109  N         -6.3210   -8.7080  -32.1940 N.3   121  GLY121     -0.1210
    110  CA        -5.4780   -9.5670  -33.0090 C.3   121  GLY121      0.1956
    111  C         -5.2870  -10.9780  -32.4740 C.2   121  GLY121      0.2612
    112  O         -5.0650  -11.8970  -33.2580 O.2   121  GLY121     -0.2717
    113  N         -5.3790  -11.1540  -31.1570 N.am  122  PHE122     -0.1962
    114  CA        -5.1660  -12.4660  -30.5470 C.3   122  PHE122      0.1771
    115  C         -6.0130  -13.5260  -31.2330 C.2   122  PHE122      0.2619
    116  O         -5.5570  -14.6360  -31.4960 O.2   122  PHE122     -0.2715
    117  CB        -5.5200  -12.4630  -29.0500 C.3   122  PHE122      0.0574
    118  CG        -5.5860  -13.8460  -28.4470 C.ar  122  PHE122     -0.0200
    119  CD1       -4.4340  -14.4650  -27.9790 C.ar  122  PHE122     -0.0042
    120  CD2       -6.7970  -14.5360  -28.3580 C.ar  122  PHE122     -0.0042
    121  CE1       -4.4740  -15.7320  -27.4400 C.ar  122  PHE122     -0.0003
    122  CE2       -6.8460  -15.8020  -27.8170 C.ar  122  PHE122     -0.0003
    123  CZ        -5.6840  -16.4050  -27.3560 C.ar  122  PHE122     -0.0000
    124  N         -7.2540  -13.1720  -31.5400 N.am  123  TYR123     -0.1974
    125  CA        -8.1930  -14.1790  -32.0130 C.3   123  TYR123      0.1639
    126  C         -7.8620  -14.6890  -33.4100 C.2   123  TYR123      0.2290
    127  O         -8.3790  -15.7220  -33.8190 O.2   123  TYR123     -0.2864
    128  CB        -9.6380  -13.6820  -31.8740 C.3   123  TYR123      0.0560
    129  CG        -9.9280  -13.3380  -30.4350 C.ar  123  TYR123     -0.0198
    130  CD1      -10.2370  -14.3330  -29.5150 C.ar  123  TYR123     -0.0009
    131  CD2       -9.8090  -12.0280  -29.9760 C.ar  123  TYR123     -0.0009
    132  CE1      -10.4540  -14.0290  -28.1860 C.ar  123  TYR123      0.0417
    133  CE2      -10.0200  -11.7190  -28.6560 C.ar  123  TYR123      0.0417
    134  CZ       -10.3510  -12.7160  -27.7670 C.ar  123  TYR123      0.1957
    135  OH       -10.5690  -12.3970  -26.4520 O.3   123  TYR123     -0.2866
    136  N         -2.9380  -21.1370  -22.9940 N.3   134  VAL134     -0.1245
    137  CA        -2.0800  -20.0270  -22.5860 C.3   134  VAL134      0.1561
    138  C         -1.7650  -20.1580  -21.1110 C.2   134  VAL134      0.2260
    139  O         -2.6740  -20.2060  -20.2780 O.2   134  VAL134     -0.2867
    140  CB        -2.7750  -18.6710  -22.8200 C.3   134  VAL134      0.0252
    141  CG1       -1.8600  -17.5040  -22.4210 C.3   134  VAL134      0.0019
    142  CG2       -3.2110  -18.5450  -24.2790 C.3   134  VAL134      0.0019
    143  N         -5.2160  -20.7600  -19.3060 N.3   146  TRP146     -0.1241
    144  CA        -6.4310  -20.4150  -20.0440 C.3   146  TRP146      0.1605
    145  C         -6.4510  -21.3430  -21.2450 C.2   146  TRP146      0.2264
    146  O         -5.4050  -21.6570  -21.8040 O.2   146  TRP146     -0.2867
    147  CB        -6.2930  -18.9610  -20.5220 C.3   146  TRP146      0.0550
    148  CG        -7.3890  -18.3920  -21.4170 C.ar  146  TRP146      0.0003
    149  CD1       -8.3890  -17.5460  -21.0410 C.ar  146  TRP146      0.0946
    150  CD2       -7.5380  -18.5810  -22.8320 C.ar  146  TRP146      0.0152
    151  NE1       -9.1560  -17.2050  -22.1250 N.ar  146  TRP146     -0.2442
    152  CE2       -8.6630  -17.8360  -23.2360 C.ar  146  TRP146      0.0810
    153  CE3       -6.8360  -19.3140  -23.7930 C.ar  146  TRP146      0.0012
    154  CZ2       -9.1030  -17.7990  -24.5620 C.ar  146  TRP146      0.0191
    155  CZ3       -7.2790  -19.2830  -25.1170 C.ar  146  TRP146      0.0001
    156  CH2       -8.4040  -18.5250  -25.4850 C.ar  146  TRP146      0.0015
    157  N          3.9370  -14.7360  -20.3150 N.3   168  THR168     -0.1218
    158  CA         2.8150  -15.4180  -20.9610 C.3   168  THR168      0.1862
    159  C          3.3150  -16.3460  -22.0560 C.2   168  THR168      0.2287
    160  O          4.1960  -15.9920  -22.8410 O.2   168  THR168     -0.2866
    161  CB         1.8320  -14.3780  -21.5300 C.3   168  THR168      0.1770
    162  OG1        1.2800  -13.6300  -20.4470 O.3   168  THR168     -0.2211
    163  CG2        0.7040  -15.0440  -22.2910 C.3   168  THR168      0.0375
    164  N          1.9050  -18.6990  -25.0870 N.3   170  VAL170     -0.1245
    165  CA         0.7590  -19.0450  -25.9270 C.3   170  VAL170      0.1561
    166  C          1.0780  -20.2660  -26.7680 C.2   170  VAL170      0.2260
    167  O          1.9890  -20.2550  -27.5960 O.2   170  VAL170     -0.2867
    168  CB         0.3610  -17.8720  -26.8360 C.3   170  VAL170      0.0252
    169  CG1       -0.7510  -18.2910  -27.8090 C.3   170  VAL170      0.0019
    170  CG2       -0.0920  -16.6950  -25.9840 C.3   170  VAL170      0.0019
@<TRIPOS>BOND
     1   127   126    2
     2   126   125    1
     3   112   111    2
     4   110   111    1
     5   110   109    1
     6   111   113   am
     7     1     2    1
     8   125   128    1
     9   125   124    1
    10   105   106    1
    11   128   129    1
    12     7     6    1
    13   124   115   am
    14   116   115    2
    15     6     5    1
    16     6     8    1
    17   115   114    1
    18     5     2    1
    19   113   114    1
    20     2     3    1
    21   106   107    1
    22     3     4    2
    23   114   117    1
    24   129   131   ar
    25   129   130   ar
    26   107   108    2
    27   131   133   ar
    28   130   132   ar
    29     9    10    1
    30   117   118    1
    31    15    14    2
    32   133   134   ar
    33    16    14   am
    34   118   120   ar
    35   118   119   ar
    36    14    13    1
    37   120   122   ar
    38   132   134   ar
    39   119   121   ar
    40    10    13    1
    41    10    11    1
    42   122   123   ar
    43   169   168    1
    44   134   135    1
    45    29    28   ar
    46   167   166    2
    47    30    28   ar
    48   121   123   ar
    49    17    11   am
    50    17    18    1
    51    28    27    1
    52    22    21    1
    53   168   170    1
    54   168   165    1
    55    11    12    2
    56    21    18    1
    57   166   165    1
    58    18    19    1
    59    23    24    1
    60    19    20    2
    61   165   164    1
    62    27    24    1
    63   156   155   ar
    64   156   154   ar
    65   100    99    2
    66    24    25    1
    67   155   153   ar
    68    99    98    1
    69   154   152   ar
    70   142   140    1
    71    52    50   ar
    72    49    46    1
    73    49    50    1
    74    45    46    1
    75    25    31   am
    76    25    26    2
    77   153   150   ar
    78    92    91    2
    79    31    32    1
    80    46    47    1
    81    50    51   ar
    82   152   150   ar
    83   152   151   ar
    84    98   101    1
    85    98    97    1
    86   136   137    1
    87   160   159    2
    88   150   148   ar
    89   140   137    1
    90   140   141    1
    91   102   101    1
    92   102   104    1
    93   137   138    1
    94   101   103    1
    95    91    90    1
    96   163   161    1
    97    96    94    1
    98    32    35    1
    99    32    33    1
   100   151   149   ar
   101    47    48    2
   102   159   158    1
   103    93    90    1
   104    93    94    1
   105   146   145    2
   106    90    89    1
   107    33    34    2
   108    95    94    1
   109   161   158    1
   110   161   162    1
   111   148   149   ar
   112   148   147    1
   113   145   144    1
   114   138   139    2
   115   158   157    1
   116    72    71    1
   117    36    37    1
   118   147   144    1
   119    71    70    1
   120   144   143    1
   121    37    40    1
   122    37    38    1
   123    40    41    1
   124    84    83    2
   125    88    86    1
   126    70    69    1
   127    76    75    2
   128    53    54    1
   129    38    39    2
   130    83    82    1
   131    82    85    1
   132    82    81    1
   133    59    57    1
   134    41    42    1
   135    42    43    1
   136    69    66    1
   137    61    62    1
   138    61    55   am
   139    75    81   am
   140    75    74    1
   141    86    85    1
   142    86    87    1
   143    62    63    1
   144    54    57    1
   145    54    55    1
   146    57    58    1
   147    44    43    1
   148    77    74    1
   149    77    78    1
   150    63    65   am
   151    63    64    2
   152    65    66    1
   153    74    73    1
   154    55    56    2
   155    66    67    1
   156    78    79   ar
   157    78    80   ar
   158    58    60    1
   159    67    68    2
