@<TRIPOS>MOLECULE
tmp/5cf4B00.pdb
 193 184 0 0 0
SMALL
GASTEIGER

@<TRIPOS>ATOM
      1  N         40.2750   -7.8830   16.3280 N.3    15  GLN15      -0.1245
      2  CA        40.7040   -6.6310   16.9440 C.3    15  GLN15       0.1566
      3  C         39.5400   -5.6670   17.1070 C.2    15  GLN15       0.2260
      4  O         38.4900   -5.8400   16.4900 O.2    15  GLN15      -0.2867
      5  CB        41.8200   -5.9680   16.1240 C.3    15  GLN15       0.0367
      6  CG        41.3770   -5.5580   14.7310 C.3    15  GLN15       0.0905
      7  CD        42.4870   -4.9000   14.0000 C.2    15  GLN15       0.2608
      8  OE1       43.1960   -5.5480   13.2380 O.2    15  GLN15      -0.2717
      9  NE2       42.6430   -3.5940   14.2120 N.am   15  GLN15      -0.0878
     10  N         37.8800   -2.1410   16.4000 N.3    17  LEU17      -0.1231
     11  CA        37.9040   -1.1820   15.2830 C.3    17  LEU17       0.1693
     12  C         37.6860    0.2300   15.7640 C.2    17  LEU17       0.2593
     13  O         38.4130    1.1380   15.3640 O.2    17  LEU17      -0.2718
     14  CB        36.9550   -1.5440   14.1370 C.3    17  LEU17       0.0284
     15  CG        37.2330   -2.8360   13.3840 C.3    17  LEU17       0.0019
     16  CD1       36.1660   -3.0870   12.3420 C.3    17  LEU17       0.0001
     17  CD2       38.6360   -2.8550   12.7610 C.3    17  LEU17       0.0001
     18  N         36.7130    0.4270   16.6180 N.am   18  GLY18      -0.1942
     19  CA        36.4970    1.7640   17.1380 C.3    18  GLY18       0.2014
     20  C         35.3740    1.8050   18.1200 C.2    18  GLY18       0.2639
     21  O         34.6620    0.8140   18.2780 O.2    18  GLY18      -0.2714
     22  N         35.2020    2.9530   18.7610 N.am   19  LYS19      -0.1963
     23  CA        34.1380    3.0850   19.7250 C.3    19  LYS19       0.1728
     24  C         33.4870    4.4330   19.7030 C.2    19  LYS19       0.2616
     25  O         34.1040    5.4210   19.3270 O.2    19  LYS19      -0.2715
     26  CB        34.6010    2.6900   21.1450 C.3    19  LYS19       0.0311
     27  CG        35.6460    3.5830   21.8300 C.3    19  LYS19       0.0038
     28  CD        36.4140    2.8280   22.9430 C.3    19  LYS19       0.0206
     29  CE        35.5790    2.3790   24.1360 C.3    19  LYS19       0.1093
     30  NZ        35.1080    0.9670   24.0180 N.3    19  LYS19      -0.1314
     31  N         32.2150    4.4260   20.0560 N.am   20  GLY20      -0.1955
     32  CA        31.3760    5.5950   20.2160 C.3    20  GLY20       0.1869
     33  C         31.1080    5.8360   21.6940 C.2    20  GLY20       0.2309
     34  O         31.7670    5.2350   22.5630 O.2    20  GLY20      -0.2863
     35  N         28.6450    2.5540   22.3770 N.3    23  GLY23      -0.1210
     36  CA        28.7970    1.4170   21.4810 C.3    23  GLY23       0.1956
     37  C         30.2160    1.2220   20.9840 C.2    23  GLY23       0.2613
     38  O         31.0650    2.1160   21.1280 O.2    23  GLY23      -0.2717
     39  N         30.4900    0.0250   20.4210 N.am   24  SER24      -0.1938
     40  CA        31.8060   -0.2810   19.8450 C.3    24  SER24       0.2055
     41  C         31.7060   -1.2530   18.6750 C.2    24  SER24       0.2642
     42  O         30.7660   -2.0610   18.5900 O.2    24  SER24      -0.2714
     43  CB        32.8060   -0.7480   20.9040 C.3    24  SER24       0.2130
     44  OG        32.8600   -2.1620   20.9970 O.3    24  SER24      -0.2179
     45  N         32.6620   -1.1420   17.7530 N.am   25  VAL25      -0.1977
     46  CA        32.7430   -2.0270   16.5850 C.3    25  VAL25       0.1596
     47  C         34.0460   -2.8210   16.6480 C.2    25  VAL25       0.2287
     48  O         35.0880   -2.2900   17.0100 O.2    25  VAL25      -0.2864
     49  CB        32.5480   -1.2610   15.2310 C.3    25  VAL25       0.0276
     50  CG1       32.7090   -2.2060   14.0240 C.3    25  VAL25       0.0022
     51  CG2       31.1930   -0.5730   15.1910 C.3    25  VAL25       0.0022
     52  N         36.4570   -6.1680   14.6560 N.3    27  MET27      -0.1245
     53  CA        36.7710   -7.0320   13.5310 C.3    27  MET27       0.1570
     54  C         36.8190   -8.4710   14.0530 C.2    27  MET27       0.2261
     55  O         37.5210   -8.7650   15.0230 O.2    27  MET27      -0.2867
     56  CB        38.1110   -6.6060   12.9190 C.3    27  MET27       0.0387
     57  CG        38.5040   -7.3590   11.6890 C.3    27  MET27       0.0595
     58  SD        40.2060   -6.9110   11.3610 S.3    27  MET27      -0.1393
     59  CE        40.5260   -7.8880    9.9220 C.3    27  MET27       0.0692
     60  N         32.4030   -7.0350   10.4060 N.3    42  ALA42      -0.1245
     61  CA        32.4210   -5.9590   11.4080 C.3    42  ALA42       0.1562
     62  C         31.2510   -6.2360   12.3550 C.2    42  ALA42       0.2260
     63  O         30.1440   -6.5340   11.9060 O.2    42  ALA42      -0.2867
     64  CB        32.2740   -4.5980   10.7530 C.3    42  ALA42       0.0290
     65  N         29.1250   -4.8450   15.6950 N.3    44  LYS44      -0.1245
     66  CA        28.7830   -3.7150   16.5650 C.3    44  LYS44       0.1561
     67  C         28.0190   -4.1910   17.7940 C.2    44  LYS44       0.2260
     68  O         27.0670   -4.9630   17.6890 O.2    44  LYS44      -0.2867
     69  CB        27.9880   -2.6280   15.8170 C.3    44  LYS44       0.0271
     70  CG        27.6940   -1.4230   16.6880 C.3    44  LYS44       0.0035
     71  CD        26.9550   -0.3540   15.9720 C.3    44  LYS44       0.0206
     72  CE        26.9620    0.8800   16.8250 C.3    44  LYS44       0.1093
     73  NZ        26.2670    2.0010   16.1510 N.3    44  LYS44      -0.1314
     74  N         26.8020    0.7130    4.1450 N.3    73  VAL73      -0.1245
     75  CA        27.4160   -0.4940    4.6940 C.3    73  VAL73       0.1561
     76  C         26.3670   -1.6220    4.7760 C.2    73  VAL73       0.2260
     77  O         25.2410   -1.3820    5.2090 O.2    73  VAL73      -0.2867
     78  CB        28.1320   -0.2080    6.0480 C.3    73  VAL73       0.0252
     79  CG1       27.1410    0.1330    7.1620 C.3    73  VAL73       0.0019
     80  CG2       29.0600   -1.3510    6.4560 C.3    73  VAL73       0.0019
     81  N         27.8250   -6.7790   10.2420 N.3    90  MET90      -0.1230
     82  CA        27.8950   -6.0210    8.9980 C.3    90  MET90       0.1702
     83  C         29.0810   -6.4810    8.2000 C.2    90  MET90       0.2592
     84  O         29.9570   -7.1430    8.7320 O.2    90  MET90      -0.2718
     85  CB        28.0960   -4.5250    9.2900 C.3    90  MET90       0.0401
     86  CG        26.9280   -3.8760    9.9620 C.3    90  MET90       0.0596
     87  SD        27.3940   -2.2490   10.5520 S.3    90  MET90      -0.1393
     88  CE        28.2640   -2.6720   12.0810 C.3    90  MET90       0.0692
     89  N         29.1540   -6.0710    6.9380 N.am   91  GLU91      -0.1966
     90  CA        30.3420   -6.3560    6.1070 C.3    91  GLU91       0.1733
     91  C         31.5450   -5.5600    6.6330 C.2    91  GLU91       0.2616
     92  O         31.3880   -4.4710    7.2070 O.2    91  GLU91      -0.2715
     93  CB        30.1050   -5.9720    4.6470 C.3    91  GLU91       0.0429
     94  CG        29.8930   -4.4820    4.4330 C.3    91  GLU91       0.1163
     95  CD        29.7190   -4.0800    2.9930 C.2    91  GLU91       0.3649
     96  OE1       29.0880   -3.0260    2.7510 O.co2  91  GLU91      -0.2457
     97  OE2       30.1450   -4.8560    2.1080 O.co2  91  GLU91      -0.2457
     98  N         32.7460   -6.0840    6.3770 N.am   92  TYR92      -0.1960
     99  CA        33.9880   -5.4470    6.7680 C.3    92  TYR92       0.1771
    100  C         34.5040   -4.6550    5.5810 C.2    92  TYR92       0.2619
    101  O         34.6380   -5.2010    4.4780 O.2    92  TYR92      -0.2715
    102  CB        34.9950   -6.5310    7.2170 C.3    92  TYR92       0.0574
    103  CG        36.3950   -6.0230    7.4680 C.ar   92  TYR92      -0.0198
    104  CD1       36.6970   -5.2970    8.6130 C.ar   92  TYR92      -0.0009
    105  CD2       37.4300   -6.3040    6.5750 C.ar   92  TYR92      -0.0009
    106  CE1       37.9790   -4.7960    8.8310 C.ar   92  TYR92       0.0417
    107  CE2       38.7240   -5.8350    6.8000 C.ar   92  TYR92       0.0417
    108  CZ        38.9880   -5.0700    7.9200 C.ar   92  TYR92       0.1957
    109  OH        40.2590   -4.6190    8.1240 O.3    92  TYR92      -0.2866
    110  N         34.7900   -3.3580    5.8190 N.am   93  LEU93      -0.1964
    111  CA        35.3320   -2.4430    4.8090 C.3    93  LEU93       0.1713
    112  C         36.8050   -2.1820    5.1640 C.2    93  LEU93       0.2458
    113  O         37.1000   -1.6230    6.2170 O.2    93  LEU93      -0.2730
    114  CB        34.4690   -1.1700    4.6300 C.3    93  LEU93       0.0310
    115  CG        33.0070   -1.4260    4.1640 C.3    93  LEU93       0.0022
    116  CD1       32.2020   -0.1380    4.0970 C.3    93  LEU93       0.0001
    117  CD2       32.9690   -2.1290    2.8260 C.3    93  LEU93       0.0001
    118  N         37.7460   -2.7180    4.3570 N.am   94  PRO94      -0.2716
    119  CA        39.1660   -2.6950    4.7700 C.3    94  PRO94       0.1536
    120  C         39.8610   -1.3460    4.8470 C.2    94  PRO94       0.2599
    121  O         40.8680   -1.2650    5.5430 O.2    94  PRO94      -0.2715
    122  CB        39.8550   -3.6110    3.7510 C.3    94  PRO94       0.0310
    123  CG        38.9650   -3.5780    2.5390 C.3    94  PRO94       0.0237
    124  CD        37.5610   -3.4660    3.0920 C.3    94  PRO94       0.0939
    125  N         39.3560   -0.2960    4.1980 N.am   95  TYR95      -0.1960
    126  CA        40.0880    0.9620    4.2940 C.3    95  TYR95       0.1771
    127  C         39.6140    1.8770    5.4540 C.2    95  TYR95       0.2620
    128  O         40.1530    2.9650    5.6240 O.2    95  TYR95      -0.2715
    129  CB        40.1120    1.6770    2.9270 C.3    95  TYR95       0.0574
    130  CG        40.9160    0.9230    1.8870 C.ar   95  TYR95      -0.0198
    131  CD1       40.3370   -0.0920    1.1280 C.ar   95  TYR95      -0.0009
    132  CD2       42.2670    1.1970    1.6890 C.ar   95  TYR95      -0.0009
    133  CE1       41.0780   -0.8150    0.1970 C.ar   95  TYR95       0.0417
    134  CE2       43.0180    0.4920    0.7460 C.ar   95  TYR95       0.0417
    135  CZ        42.4190   -0.5190    0.0040 C.ar   95  TYR95       0.1957
    136  OH        43.1500   -1.2340   -0.9170 O.3    95  TYR95      -0.2866
    137  N         38.6550    1.4030    6.2590 N.am   96  GLY96      -0.1940
    138  CA        38.1590    2.0880    7.4540 C.3    96  GLY96       0.2014
    139  C         37.4790    3.4070    7.2040 C.2    96  GLY96       0.2639
    140  O         36.9260    3.6040    6.1220 O.2    96  GLY96      -0.2714
    141  N         37.5420    4.3430    8.1830 N.am   97  SER97      -0.1949
    142  CA        36.8820    5.6490    8.0460 C.3    97  SER97       0.1924
    143  C         37.4780    6.5420    6.9790 C.2    97  SER97       0.2314
    144  O         38.6900    6.5280    6.7720 O.2    97  SER97      -0.2863
    145  CB        36.8040    6.3910    9.3800 C.3    97  SER97       0.2116
    146  OG        38.0180    7.0330    9.7380 O.3    97  SER97      -0.2180
    147  N         40.0820    9.0320    8.5020 N.3   100  ASP100     -0.1239
    148  CA        41.4460    8.4790    8.5960 C.3   100  ASP100      0.1674
    149  C         42.1130    8.2940    7.2220 C.2   100  ASP100      0.2266
    150  O         43.2730    8.6750    7.0530 O.2   100  ASP100     -0.2867
    151  CB        41.4780    7.1730    9.4310 C.3   100  ASP100      0.1410
    152  CG        41.2790    7.3470   10.9380 C.2   100  ASP100      0.3668
    153  OD1       41.3050    8.5070   11.4210 O.co2 100  ASP100     -0.2456
    154  OD2       41.1020    6.3200   11.6370 O.co2 100  ASP100     -0.2456
    155  N         33.9450   10.7170    9.9340 N.3   141  ARG141     -0.1231
    156  CA        34.2540    9.6230   10.8810 C.3   141  ARG141      0.1694
    157  C         33.2130    8.4800   10.8040 C.2   141  ARG141      0.2592
    158  O         33.4680    7.3620   11.2840 O.2   141  ARG141     -0.2718
    159  CB        34.3570   10.1570   12.3370 C.3   141  ARG141      0.0321
    160  CG        33.0510   10.6910   12.8930 C.3   141  ARG141      0.0489
    161  CD        33.0670   11.1500   14.3470 C.3   141  ARG141      0.2205
    162  NE        32.2730   12.3750   14.4510 N.pl3 141  ARG141     -0.0865
    163  CZ        30.9640   12.4250   14.6970 C.cat 141  ARG141      0.5346
    164  NH1       30.2980   11.3210   15.0200 N.pl3 141  ARG141      0.1354
    165  NH2       30.3290   13.5900   14.7000 N.pl3 141  ARG141      0.1354
    166  N         32.0500    8.7810   10.2160 N.am  142  ASN142     -0.1974
    167  CA        30.9310    7.8540   10.0550 C.3   142  ASN142      0.1688
    168  C         30.7900    7.3130    8.6460 C.2   142  ASN142      0.2292
    169  O         29.8840    6.5160    8.3800 O.2   142  ASN142     -0.2864
    170  CB        29.6150    8.5050   10.5360 C.3   142  ASN142      0.1181
    171  CG        29.5720    8.6950   12.0260 C.2   142  ASN142      0.2629
    172  OD1       29.9160    7.8020   12.8100 O.2   142  ASN142     -0.2716
    173  ND2       29.1510    9.8700   12.4490 N.am  142  ASN142     -0.0877
    174  N         32.6870    5.1880    5.6510 N.3   144  LEU144     -0.1245
    175  CA        33.7130    4.1710    5.5100 C.3   144  LEU144      0.1561
    176  C         34.1300    4.0180    4.0660 C.2   144  LEU144      0.2260
    177  O         33.3560    4.3350    3.1710 O.2   144  LEU144     -0.2867
    178  CB        33.2630    2.8360    6.1080 C.3   144  LEU144      0.0270
    179  CG        32.9310    2.8120    7.6020 C.3   144  LEU144      0.0019
    180  CD1       32.0800    1.6280    7.9100 C.3   144  LEU144      0.0001
    181  CD2       34.1730    2.8140    8.4390 C.3   144  LEU144      0.0001
    182  N         28.6360    4.4160    7.0180 N.3   154  GLY154     -0.1210
    183  CA        29.0380    3.2670    7.8160 C.3   154  GLY154      0.1956
    184  C         28.4880    3.0600    9.2010 C.2   154  GLY154      0.2611
    185  O         28.9120    2.1210    9.8760 O.2   154  GLY154     -0.2717
    186  N         27.5450    3.9080    9.6260 N.am  155  ASP155     -0.1973
    187  CA        26.9260    3.8190   10.9380 C.3   155  ASP155      0.1709
    188  C         25.5930    4.5100   10.9220 C.2   155  ASP155      0.2293
    189  O         25.4540    5.5440   10.2700 O.2   155  ASP155     -0.2864
    190  CB        27.8140    4.4540   12.0220 C.3   155  ASP155      0.1436
    191  CG        27.3260    4.1180   13.4120 C.2   155  ASP155      0.3671
    192  OD1       27.6000    2.9860   13.8790 O.co2 155  ASP155     -0.2456
    193  OD2       26.5960    4.9460   13.9970 O.co2 155  ASP155     -0.2456
@<TRIPOS>BOND
     1   136   135    1
     2   135   133   ar
     3   135   134   ar
     4   133   131   ar
     5   134   132   ar
     6   131   130   ar
     7   132   130   ar
     8   130   129    1
     9    97    95   ar
    10   123   124    1
    11   123   122    1
    12    96    95   ar
    13   117   115    1
    14   129   126    1
    15    95    94    1
    16   124   118    1
    17   177   176    2
    18   122   119    1
    19   176   175    1
    20   116   115    1
    21    74    75    1
    22   115   114    1
    23   125   126    1
    24   125   120   am
    25   126   127    1
    26   118   119    1
    27   118   112   am
    28    94    93    1
    29   101   100    2
    30   114   111    1
    31    93    90    1
    32    75    76    1
    33    75    78    1
    34   119   120    1
    35    76    77    2
    36   111   112    1
    37   111   110    1
    38   120   121    2
    39   112   113    2
    40   127   128    2
    41   127   137   am
    42   175   174    1
    43   175   178    1
    44   100   110   am
    45   100    99    1
    46    78    80    1
    47    78    79    1
    48    90    91    1
    49    90    89    1
    50   178   179    1
    51   140   139    2
    52   137   138    1
    53    98    91   am
    54    98    99    1
    55   105   107   ar
    56   105   103   ar
    57    91    92    2
    58    99   102    1
    59   144   143    2
    60   107   108   ar
    61    89    83   am
    62   143   142    1
    63   182   183    1
    64   150   149    2
    65   139   138    1
    66   139   141   am
    67   102   103    1
    68   149   148    1
    69   103   104   ar
    70   179   180    1
    71   179   181    1
    72   183   184    1
    73   108   109    1
    74   108   106   ar
    75   142   141    1
    76   142   145    1
    77    83    84    2
    78    83    82    1
    79   169   168    2
    80   147   148    1
    81   148   151    1
    82   104   106   ar
    83   168   167    1
    84    82    85    1
    85    82    81    1
    86   184   186   am
    87   184   185    2
    88    85    86    1
    89   145   146    1
    90   151   152    1
    91   186   187    1
    92    59    58    1
    93   155   156    1
    94    86    87    1
    95   167   166    1
    96   167   170    1
    97   166   157   am
    98   189   188    2
    99    60    61    1
   100   170   171    1
   101    87    88    1
   102    64    61    1
   103   157   156    1
   104   157   158    2
   105   156   159    1
   106   188   187    1
   107   187   190    1
   108   152   153   ar
   109   152   154   ar
   110    58    57    1
   111    61    62    1
   112    57    56    1
   113    63    62    2
   114   190   191    1
   115   171   173   am
   116   171   172    2
   117   159   160    1
   118    16    15    1
   119    17    15    1
   120   160   161    1
   121    56    53    1
   122     8     7    2
   123    15    14    1
   124   191   192   ar
   125   191   193   ar
   126    53    54    1
   127    53    52    1
   128     7     9   am
   129     7     6    1
   130    50    49    1
   131    54    55    2
   132    14    11    1
   133   161   162    1
   134   162   163    2
   135   163   165    1
   136   163   164    1
   137     6     5    1
   138    51    49    1
   139    49    46    1
   140    11    12    1
   141    11    10    1
   142    13    12    2
   143    65    66    1
   144    12    18   am
   145    69    66    1
   146    69    70    1
   147    71    70    1
   148    71    72    1
   149     5     2    1
   150    73    72    1
   151     1     2    1
   152     4     3    2
   153    66    67    1
   154    46    47    1
   155    46    45    1
   156    18    19    1
   157    47    48    2
   158     2     3    1
   159    19    20    1
   160    68    67    2
   161    45    41   am
   162    20    21    2
   163    20    22   am
   164    42    41    2
   165    41    40    1
   166    22    23    1
   167    25    24    2
   168    24    23    1
   169    24    31   am
   170    23    26    1
   171    40    39    1
   172    40    43    1
   173    31    32    1
   174    32    33    1
   175    39    37   am
   176    43    44    1
   177    37    38    2
   178    37    36    1
   179    26    27    1
   180    36    35    1
   181    33    34    2
   182    27    28    1
   183    28    29    1
   184    30    29    1
