@<TRIPOS>MOLECULE
tmp/5cf5A00.pdb
 188 180 0 0 0
SMALL
GASTEIGER

@<TRIPOS>ATOM
      1  N         -6.8530   51.9700    9.3280 N.3    12  GLN12      -0.1231
      2  CA        -5.3960   52.0750    9.2060 C.3    12  GLN12       0.1698
      3  C         -4.9100   52.2330    7.7880 C.2    12  GLN12       0.2592
      4  O         -5.6170   51.8940    6.8460 O.2    12  GLN12      -0.2718
      5  CB        -4.6440   50.9210    9.8930 C.3    12  GLN12       0.0381
      6  CG        -4.9100   49.5480    9.3230 C.3    12  GLN12       0.0905
      7  CD        -4.0090   48.5250    9.9690 C.2    12  GLN12       0.2608
      8  OE1       -4.4640   47.6420   10.7190 O.2    12  GLN12      -0.2717
      9  NE2       -2.7150   48.6050    9.6720 N.am   12  GLN12      -0.0878
     10  N         -3.7020   52.7690    7.6440 N.am   13  GLN13      -0.1966
     11  CA        -3.0310   52.9240    6.3680 C.3    13  GLN13       0.1733
     12  C         -2.3890   51.5480    6.0740 C.2    13  GLN13       0.2616
     13  O         -1.7870   50.9480    6.9780 O.2    13  GLN13      -0.2715
     14  CB        -1.9880   54.0580    6.4780 C.3    13  GLN13       0.0408
     15  CG        -1.1490   54.3300    5.2040 C.3    13  GLN13       0.0908
     16  CD        -1.8990   54.9440    4.0430 C.2    13  GLN13       0.2608
     17  OE1       -1.4520   54.8560    2.8940 O.2    13  GLN13      -0.2717
     18  NE2       -3.0350   55.5970    4.2970 N.am   13  GLN13      -0.0878
     19  N         -2.5940   51.0110    4.8490 N.am   14  LEU14      -0.1963
     20  CA        -2.0620   49.6910    4.4730 C.3    14  LEU14       0.1731
     21  C         -0.7900   49.8230    3.6830 C.2    14  LEU14       0.2656
     22  O          0.1770   49.1070    3.9350 O.2    14  LEU14      -0.2711
     23  CB        -3.0870   48.8060    3.7350 C.3    14  LEU14       0.0311
     24  CG        -4.3680   48.4200    4.4890 C.3    14  LEU14       0.0022
     25  CD1       -5.3610   47.7070    3.5680 C.3    14  LEU14       0.0001
     26  CD2       -4.0760   47.6270    5.7630 C.3    14  LEU14       0.0001
     27  N         -0.7820   50.7660    2.7570 N.am   15  GLY15      -0.1716
     28  CA         0.3920   51.0280    1.9500 C.2    15  GLY15       0.1480
     29  C          0.2570   52.1750    0.9800 C.2    15  GLY15       0.2820
     30  O         -0.8220   52.7360    0.7880 O.2    15  GLY15      -0.2669
     31  N          1.3810   52.5130    0.3630 N.am   16  LYS16      -0.1929
     32  CA         1.4850   53.5790   -0.6210 C.3    16  LYS16       0.1731
     33  C          2.1600   53.1040   -1.9090 C.2    16  LYS16       0.2616
     34  O          3.0280   52.2130   -1.8990 O.2    16  LYS16      -0.2715
     35  CB         2.2490   54.7830   -0.0430 C.3    16  LYS16       0.0312
     36  CG         1.4410   55.5830    0.9660 C.3    16  LYS16       0.0038
     37  CD         2.0240   56.9630    1.1740 C.3    16  LYS16       0.0206
     38  CE         2.3680   57.2110    2.6210 C.3    16  LYS16       0.1093
     39  NZ         3.6190   56.5090    3.0210 N.3    16  LYS16      -0.1314
     40  N          1.7030   53.6910   -3.0030 N.am   17  GLY17      -0.1955
     41  CA         2.2570   53.5600   -4.3440 C.3    17  GLY17       0.1869
     42  C          2.9180   54.8980   -4.6490 C.2    17  GLY17       0.2309
     43  O          3.0760   55.7390   -3.7360 O.2    17  GLY17      -0.2863
     44  N         -0.9260   56.4820   -5.7530 N.3    20  GLY20      -0.1225
     45  CA        -2.0950   55.9560   -5.0480 C.3    20  GLY20       0.1811
     46  C         -1.7950   55.3860   -3.6690 C.2    20  GLY20       0.2280
     47  O         -0.7610   54.7380   -3.4970 O.2    20  GLY20      -0.2866
     48  N         -3.4840   53.1090   -0.1220 N.3    22  VAL22      -0.1245
     49  CA        -4.5050   52.1110    0.2390 C.3    22  VAL22       0.1561
     50  C         -4.7000   52.0740    1.7380 C.2    22  VAL22       0.2260
     51  O         -3.7320   51.9640    2.4910 O.2    22  VAL22      -0.2867
     52  CB        -4.2750   50.6780   -0.3730 C.3    22  VAL22       0.0252
     53  CG1       -5.3960   49.7050    0.0220 C.3    22  VAL22       0.0019
     54  CG2       -4.1450   50.7350   -1.8890 C.3    22  VAL22       0.0019
     55  N        -10.8960   47.5020    1.6620 N.3    39  ALA39      -0.1245
     56  CA        -9.6600   48.1890    1.3410 C.3    39  ALA39       0.1562
     57  C        -10.0640   49.2990    0.3910 C.2    39  ALA39       0.2260
     58  O        -10.8640   49.0710   -0.5280 O.2    39  ALA39      -0.2867
     59  CB        -8.6820   47.2340    0.6690 C.3    39  ALA39       0.0290
     60  N         -8.6240   52.4270   -2.0840 N.3    41  LYS41      -0.1245
     61  CA        -7.5100   53.0580   -2.7870 C.3    41  LYS41       0.1561
     62  C         -7.9110   54.4900   -3.1680 C.2    41  LYS41       0.2260
     63  O         -9.0080   54.7170   -3.7000 O.2    41  LYS41      -0.2867
     64  CB        -7.0760   52.2550   -4.0290 C.3    41  LYS41       0.0271
     65  CG        -5.7910   52.7860   -4.6530 C.3    41  LYS41       0.0035
     66  CD        -5.3480   51.9940   -5.8610 C.3    41  LYS41       0.0206
     67  CE        -3.9520   52.4080   -6.2510 C.3    41  LYS41       0.1093
     68  NZ        -3.4910   51.7190   -7.4830 N.3    41  LYS41      -0.1314
     69  N         -7.7900   40.4490   -6.9890 N.3    70  VAL70      -0.1245
     70  CA        -8.4850   41.1750   -5.9140 C.3    70  VAL70       0.1561
     71  C         -9.8690   41.6580   -6.4020 C.2    70  VAL70       0.2260
     72  O         -9.9950   42.1150   -7.5400 O.2    70  VAL70      -0.2867
     73  CB        -7.5990   42.3010   -5.3040 C.3    70  VAL70       0.0252
     74  CG1       -7.4220   43.4860   -6.2670 C.3    70  VAL70       0.0019
     75  CG2       -8.1100   42.7480   -3.9270 C.3    70  VAL70       0.0019
     76  N        -12.3420   47.9360   -2.6430 N.3    85  MET85      -0.1230
     77  CA       -11.9730   46.5550   -2.9270 C.3    85  MET85       0.1702
     78  C        -12.2230   45.7120   -1.7100 C.2    85  MET85       0.2592
     79  O        -12.3790   46.2380   -0.5980 O.2    85  MET85      -0.2718
     80  CB       -10.4820   46.4520   -3.3080 C.3    85  MET85       0.0401
     81  CG       -10.1460   47.0800   -4.6420 C.3    85  MET85       0.0596
     82  SD        -8.3760   47.2030   -4.8690 S.3    85  MET85      -0.1393
     83  CE        -7.9850   48.6650   -3.8220 C.3    85  MET85       0.0692
     84  N        -12.2190   44.3940   -1.8940 N.am   86  GLU86      -0.1966
     85  CA       -12.3290   43.4810   -0.7480 C.3    86  GLU86       0.1733
     86  C        -11.0350   43.6040    0.1130 C.2    86  GLU86       0.2616
     87  O         -9.9590   43.9280   -0.4330 O.2    86  GLU86      -0.2715
     88  CB       -12.4920   42.0330   -1.2360 C.3    86  GLU86       0.0429
     89  CG       -11.2910   41.5270   -2.0100 C.3    86  GLU86       0.1163
     90  CD       -11.3110   40.0560   -2.3410 C.2    86  GLU86       0.3649
     91  OE1      -10.5990   39.6690   -3.2910 O.co2  86  GLU86      -0.2457
     92  OE2      -12.0510   39.2960   -1.6780 O.co2  86  GLU86      -0.2457
     93  N        -11.1420   43.3490    1.4260 N.am   87  TYR87      -0.1960
     94  CA        -9.9710   43.4100    2.2920 C.3    87  TYR87       0.1771
     95  C         -9.3670   42.0110    2.3980 C.2    87  TYR87       0.2619
     96  O        -10.1050   41.0490    2.6310 O.2    87  TYR87      -0.2715
     97  CB       -10.3120   44.0250    3.6800 C.3    87  TYR87       0.0574
     98  CG        -9.1750   43.8910    4.6690 C.ar   87  TYR87      -0.0198
     99  CD1       -8.0160   44.6570    4.5370 C.ar   87  TYR87      -0.0009
    100  CD2       -9.2260   42.9470    5.6930 C.ar   87  TYR87      -0.0009
    101  CE1       -6.9240   44.4670    5.3870 C.ar   87  TYR87       0.0417
    102  CE2       -8.1590   42.7710    6.5640 C.ar   87  TYR87       0.0417
    103  CZ        -6.9990   43.5170    6.3910 C.ar   87  TYR87       0.1957
    104  OH        -5.9470   43.3470    7.2540 O.3    87  TYR87      -0.2866
    105  N         -8.0280   41.8910    2.1930 N.am   88  LEU88      -0.1964
    106  CA        -7.3100   40.6060    2.2750 C.3    88  LEU88       0.1713
    107  C         -6.4600   40.6340    3.5180 C.2    88  LEU88       0.2458
    108  O         -5.6480   41.5440    3.6720 O.2    88  LEU88      -0.2730
    109  CB        -6.5360   40.2770    0.9800 C.3    88  LEU88       0.0310
    110  CG        -7.4310   40.1400   -0.2820 C.3    88  LEU88       0.0022
    111  CD1       -6.6080   39.8690   -1.5100 C.3    88  LEU88       0.0001
    112  CD2       -8.5000   39.0600   -0.1150 C.3    88  LEU88       0.0001
    113  N         -6.7350   39.7240    4.4730 N.am   89  PRO89      -0.2716
    114  CA        -6.1400   39.8530    5.8200 C.3    89  PRO89       0.1536
    115  C         -4.6580   39.5290    6.0190 C.2    89  PRO89       0.2599
    116  O         -4.1230   39.8970    7.0780 O.2    89  PRO89      -0.2715
    117  CB        -7.0090   38.9160    6.6720 C.3    89  PRO89       0.0310
    118  CG        -7.5330   37.8930    5.7220 C.3    89  PRO89       0.0237
    119  CD        -7.7510   38.6420    4.4360 C.3    89  PRO89       0.0939
    120  N         -3.9820   38.8830    5.0470 N.am   90  TYR90      -0.1960
    121  CA        -2.5670   38.5630    5.2420 C.3    90  TYR90       0.1771
    122  C         -1.5940   39.5300    4.5480 C.2    90  TYR90       0.2620
    123  O         -0.3800   39.2800    4.5670 O.2    90  TYR90      -0.2715
    124  CB        -2.2740   37.1010    4.8540 C.3    90  TYR90       0.0574
    125  CG        -2.9060   36.0670    5.7550 C.ar   90  TYR90      -0.0198
    126  CD1       -4.2120   35.6460    5.5540 C.ar   90  TYR90      -0.0009
    127  CD2       -2.2050   35.5270    6.8260 C.ar   90  TYR90      -0.0009
    128  CE1       -4.8000   34.6980    6.3790 C.ar   90  TYR90       0.0417
    129  CE2       -2.7670   34.5390    7.6350 C.ar   90  TYR90       0.0417
    130  CZ        -4.0710   34.1360    7.4150 C.ar   90  TYR90       0.1957
    131  OH        -4.6490   33.1920    8.2310 O.3    90  TYR90      -0.2866
    132  N         -2.1060   40.6160    3.9610 N.am   91  GLY91      -0.1940
    133  CA        -1.2820   41.6200    3.2850 C.3    91  GLY91       0.2014
    134  C         -0.5540   41.1450    2.0540 C.2    91  GLY91       0.2639
    135  O         -0.9900   40.1960    1.4110 O.2    91  GLY91      -0.2714
    136  N          0.5610   41.8060    1.7170 N.am   92  SER92      -0.1949
    137  CA         1.3550   41.4360    0.5330 C.3    92  SER92       0.1924
    138  C          2.0920   40.1230    0.6930 C.2    92  SER92       0.2314
    139  O          2.5320   39.7920    1.7950 O.2    92  SER92      -0.2863
    140  CB         2.3290   42.5410    0.1310 C.3    92  SER92       0.2116
    141  OG         3.4720   42.5420    0.9590 O.3    92  SER92      -0.2180
    142  N          5.5840   40.6080    2.2700 N.3    95  ASP95      -0.1239
    143  CA         5.6310   40.6440    3.7280 C.3    95  ASP95       0.1674
    144  C          5.2950   39.3170    4.3430 C.2    95  ASP95       0.2266
    145  O          5.9720   38.9150    5.2770 O.2    95  ASP95      -0.2867
    146  CB         4.7550   41.7660    4.2810 C.3    95  ASP95       0.1410
    147  CG         5.2610   43.1490    3.9020 C.2    95  ASP95       0.3668
    148  OD1        6.4890   43.2880    3.6330 O.co2  95  ASP95      -0.2456
    149  OD2        4.4330   44.0930    3.8600 O.co2  95  ASP95      -0.2456
    150  N          5.4080   42.4730   -3.9730 N.3   136  ARG136     -0.1182
    151  CA         4.8280   43.5850   -3.2130 C.3   136  ARG136      0.1910
    152  C          3.3760   43.8940   -3.7040 C.2   136  ARG136      0.2634
    153  O          2.5830   44.5060   -2.9680 O.2   136  ARG136     -0.2714
    154  CB         5.7470   44.8490   -3.3020 C.2   136  ARG136      0.0007
    155  CG         5.5320   45.7620   -4.5200 C.2   136  ARG136      0.0176
    156  CD         6.5720   46.8750   -4.7110 C.3   136  ARG136      0.2464
    157  NE         7.5340   46.5520   -5.7760 N.pl3 136  ARG136     -0.0815
    158  CZ         7.4500   46.9630   -7.0450 C.cat 136  ARG136      0.5349
    159  NH1        6.4520   47.7550   -7.4310 N.pl3 136  ARG136      0.1354
    160  NH2        8.3720   46.5950   -7.9340 N.pl3 136  ARG136      0.1354
    161  N          3.0480   43.4680   -4.9520 N.am  137  ASN137     -0.1972
    162  CA         1.7620   43.7500   -5.5790 C.3   137  ASN137      0.1688
    163  C          0.8310   42.5490   -5.5990 C.2   137  ASN137      0.2292
    164  O         -0.2840   42.6250   -6.1250 O.2   137  ASN137     -0.2864
    165  CB         1.9620   44.3560   -6.9710 C.3   137  ASN137      0.1181
    166  CG         2.6990   45.6710   -6.9600 C.2   137  ASN137      0.2629
    167  OD1        2.5230   46.5030   -6.0810 O.2   137  ASN137     -0.2716
    168  ND2        3.5740   45.8770   -7.9210 N.am  137  ASN137     -0.0877
    169  N         -1.2840   39.9640   -3.1300 N.3   139  LEU139     -0.1245
    170  CA        -1.8730   39.9090   -1.7870 C.3   139  LEU139      0.1561
    171  C         -2.2550   38.4960   -1.3980 C.2   139  LEU139      0.2260
    172  O         -2.5590   37.6810   -2.2550 O.2   139  LEU139     -0.2867
    173  CB        -3.0840   40.8530   -1.6650 C.3   139  LEU139      0.0270
    174  CG        -2.8240   42.3300   -1.9500 C.3   139  LEU139      0.0019
    175  CD1       -4.1040   43.0500   -2.1750 C.3   139  LEU139      0.0001
    176  CD2       -1.9840   42.9890   -0.8440 C.3   139  LEU139      0.0001
    177  N         -3.0380   42.0750   -6.6260 N.3   149  GLY149     -0.1210
    178  CA        -3.6790   43.0460   -5.7630 C.3   149  GLY149      0.1956
    179  C         -3.7350   44.5020   -6.1290 C.2   149  GLY149      0.2611
    180  O         -4.2670   45.2960   -5.3470 O.2   149  GLY149     -0.2717
    181  N         -3.1850   44.8610   -7.2730 N.am  150  ASP150     -0.1973
    182  CA        -3.1690   46.2360   -7.7520 C.3   150  ASP150      0.1709
    183  C         -3.0400   46.2860   -9.2560 C.2   150  ASP150      0.2293
    184  O         -2.3490   45.4430   -9.8300 O.2   150  ASP150     -0.2864
    185  CB        -2.0040   47.0180   -7.1260 C.3   150  ASP150      0.1436
    186  CG        -2.1100   48.5140   -7.3370 C.2   150  ASP150      0.3671
    187  OD1       -2.9800   49.1350   -6.6960 O.co2 150  ASP150     -0.2456
    188  OD2       -1.3950   49.0410   -8.2200 O.co2 150  ASP150     -0.2456
@<TRIPOS>BOND
     1   184   183    2
     2   183   182    1
     3   188   186   ar
     4   160   158    1
     5   168   166   am
     6   182   181    1
     7   182   185    1
     8    72    71    2
     9    68    67    1
    10   159   158    1
    11   186   185    1
    12   186   187   ar
    13   181   179   am
    14   158   157    2
    15    69    70    1
    16   165   166    1
    17   165   162    1
    18   166   167    2
    19   177   178    1
    20    71    70    1
    21    74    73    1
    22    67    66    1
    23   179   178    1
    24   179   180    2
    25   164   163    2
    26    70    73    1
    27    66    65    1
    28   157   156    1
    29    44    45    1
    30   163   162    1
    31   162   161    1
    32    73    75    1
    33    45    46    1
    34   161   152   am
    35    82    81    1
    36    82    83    1
    37   156   155    1
    38    65    64    1
    39    42    41    1
    40    42    43    2
    41    81    80    1
    42   155   154    2
    43    41    40    1
    44    64    61    1
    45   150   151    1
    46   152   151    1
    47   152   153    2
    48    63    62    2
    49    46    47    2
    50    80    77    1
    51   154   151    1
    52    91    90   ar
    53    62    61    1
    54   169   170    1
    55    40    33   am
    56    77    76    1
    57    77    78    1
    58    61    60    1
    59    90    89    1
    60    90    92   ar
    61   172   171    2
    62   175   174    1
    63    89    88    1
    64   174   173    1
    65   174   176    1
    66    33    34    2
    67    33    32    1
    68    84    78   am
    69    84    85    1
    70    54    52    1
    71   170   173    1
    72   170   171    1
    73    78    79    2
    74   111   110    1
    75    88    85    1
    76    85    86    1
    77    32    35    1
    78    32    31    1
    79    58    57    2
    80    87    86    2
    81    52    53    1
    82    52    49    1
    83   110   112    1
    84   110   109    1
    85    48    49    1
    86    35    36    1
    87    86    93   am
    88   140   137    1
    89   140   141    1
    90    49    50    1
    91    31    29   am
    92    57    56    1
    93   137   138    1
    94   137   136    1
    95    59    56    1
    96   138   139    2
    97    30    29    2
    98    36    37    1
    99   109   106    1
   100    29    28    1
   101    37    38    1
   102    56    55    1
   103   135   134    2
   104    93    94    1
   105   136   134   am
   106    50    51    2
   107    28    27    2
   108   134   133    1
   109   105   106    1
   110   105    95   am
   111   142   143    1
   112   106   107    1
   113    94    95    1
   114    94    97    1
   115    95    96    2
   116    38    39    1
   117    27    21    1
   118    17    16    2
   119   133   132    1
   120   107   108    2
   121   107   113   am
   122    25    24    1
   123   148   147   ar
   124    97    98    1
   125    21    22    2
   126    21    20    1
   127   143   146    1
   128   143   144    1
   129    23    20    1
   130    23    24    1
   131   149   147   ar
   132   147   146    1
   133   132   122   am
   134    16    18   am
   135    16    15    1
   136   144   145    2
   137   119   113    1
   138   119   118    1
   139   113   114    1
   140    20    19    1
   141    24    26    1
   142    99    98   ar
   143    99   101   ar
   144   122   123    2
   145   122   121    1
   146    98   100   ar
   147    19    12   am
   148   124   121    1
   149   124   125    1
   150   120   121    1
   151   120   115   am
   152    15    14    1
   153   101   103   ar
   154   126   125   ar
   155   126   128   ar
   156   100   102   ar
   157   118   117    1
   158   125   127   ar
   159   114   115    1
   160   114   117    1
   161   115   116    2
   162    12    11    1
   163    12    13    2
   164    11    14    1
   165    11    10    1
   166   128   130   ar
   167   103   102   ar
   168   103   104    1
   169   127   129   ar
   170     4     3    2
   171   130   129   ar
   172   130   131    1
   173    10     3   am
   174     3     2    1
   175     2     1    1
   176     2     5    1
   177     6     5    1
   178     6     7    1
   179     9     7   am
   180     7     8    2
