@<TRIPOS>MOLECULE
tmp/5cf6B00.pdb
 164 155 0 0 0
SMALL
GASTEIGER

@<TRIPOS>ATOM
      1  N        -58.0060  -18.1650  -16.7440 N.3    18  LEU18      -0.1231
      2  CA       -57.0270  -18.0420  -15.6560 C.3    18  LEU18       0.1693
      3  C        -55.6200  -18.3040  -16.1690 C.2    18  LEU18       0.2593
      4  O        -54.7120  -17.5790  -15.7910 O.2    18  LEU18      -0.2718
      5  CB       -57.3750  -18.9370  -14.4380 C.3    18  LEU18       0.0284
      6  CG       -58.6420  -18.5520  -13.6510 C.3    18  LEU18       0.0019
      7  CD1      -59.0850  -19.6760  -12.6910 C.3    18  LEU18       0.0001
      8  CD2      -58.5040  -17.1710  -12.9700 C.3    18  LEU18       0.0001
      9  N        -55.4500  -19.3030  -17.0310 N.am   19  GLY19      -0.1942
     10  CA       -54.1520  -19.6290  -17.6080 C.3    19  GLY19       0.2014
     11  C        -54.1870  -20.7070  -18.6630 C.2    19  GLY19       0.2639
     12  O        -55.2180  -21.3330  -18.8850 O.2    19  GLY19      -0.2714
     13  N        -53.0140  -21.0080  -19.2080 N.am   20  LYS20      -0.1963
     14  CA       -52.8000  -22.0050  -20.2570 C.3    20  LYS20       0.1728
     15  C        -51.5440  -22.8220  -20.0220 C.2    20  LYS20       0.2616
     16  O        -50.5210  -22.2950  -19.5890 O.2    20  LYS20      -0.2715
     17  CB       -52.6910  -21.3270  -21.6420 C.3    20  LYS20       0.0311
     18  CG       -54.0430  -21.0210  -22.2790 C.3    20  LYS20       0.0038
     19  CD       -53.9310  -20.1720  -23.5460 C.3    20  LYS20       0.0206
     20  CE       -55.1170  -20.3820  -24.4700 C.3    20  LYS20       0.1093
     21  NZ       -55.9640  -19.1630  -24.6060 N.3    20  LYS20      -0.1314
     22  N        -51.6560  -24.1020  -20.3270 N.am   21  GLY21      -0.1955
     23  CA       -50.5730  -25.0720  -20.3480 C.3    21  GLY21       0.1869
     24  C        -50.1930  -25.2830  -21.8030 C.2    21  GLY21       0.2309
     25  O        -50.6440  -24.5200  -22.6750 O.2    21  GLY21      -0.2863
     26  N        -53.5440  -27.6920  -22.5040 N.3    24  GLY24      -0.1210
     27  CA       -54.7500  -27.4330  -21.7210 C.3    24  GLY24       0.1956
     28  C        -54.8870  -26.0190  -21.1930 C.2    24  GLY24       0.2613
     29  O        -53.9390  -25.2370  -21.2400 O.2    24  GLY24      -0.2717
     30  N        -56.0740  -25.6730  -20.7010 N.am   25  SER25      -0.1938
     31  CA       -56.3100  -24.3280  -20.1680 C.3    25  SER25       0.2055
     32  C        -57.2260  -24.3370  -18.9340 C.2    25  SER25       0.2642
     33  O        -57.9790  -25.2910  -18.7270 O.2    25  SER25      -0.2714
     34  CB       -56.8110  -23.3780  -21.2590 C.3    25  SER25       0.2130
     35  OG       -58.2130  -23.4510  -21.4480 O.3    25  SER25      -0.2179
     36  N        -57.1230  -23.2840  -18.0930 N.am   26  VAL26      -0.1977
     37  CA       -57.9290  -23.1700  -16.8650 C.3    26  VAL26       0.1596
     38  C        -58.7640  -21.8930  -16.9260 C.2    26  VAL26       0.2287
     39  O        -58.2270  -20.8330  -17.2350 O.2    26  VAL26      -0.2864
     40  CB       -57.1170  -23.3380  -15.5220 C.3    26  VAL26       0.0276
     41  CG1      -58.0420  -23.3100  -14.3000 C.3    26  VAL26       0.0022
     42  CG2      -56.2660  -24.6150  -15.5210 C.3    26  VAL26       0.0022
     43  N        -62.8690  -23.4510  -10.6600 N.3    43  ALA43      -0.1245
     44  CA       -61.8110  -23.4030  -11.6470 C.3    43  ALA43       0.1562
     45  C        -62.0680  -24.6140  -12.5520 C.2    43  ALA43       0.2260
     46  O        -62.2790  -25.7260  -12.0560 O.2    43  ALA43      -0.2867
     47  CB       -60.4510  -23.5300  -10.9690 C.3    43  ALA43       0.0290
     48  N        -60.6540  -26.8630  -15.8150 N.3    45  LYS45      -0.1245
     49  CA       -59.5570  -27.2180  -16.7150 C.3    45  LYS45       0.1561
     50  C        -60.1340  -27.9600  -17.9490 C.2    45  LYS45       0.2260
     51  O        -60.9930  -28.8410  -17.8220 O.2    45  LYS45      -0.2867
     52  CB       -58.4850  -28.0650  -16.0030 C.3    45  LYS45       0.0271
     53  CG       -57.2130  -28.2400  -16.8180 C.3    45  LYS45       0.0035
     54  CD       -56.1330  -28.9330  -16.0410 C.3    45  LYS45       0.0206
     55  CE       -54.8080  -28.7660  -16.7120 C.3    45  LYS45       0.1093
     56  NZ       -53.7860  -29.6650  -16.1330 N.3    45  LYS45      -0.1314
     57  N        -55.0310  -29.0220   -4.2340 N.3    74  VAL74      -0.1245
     58  CA       -56.2480  -28.3610   -4.7360 C.3    74  VAL74       0.1561
     59  C        -57.4080  -29.4100   -4.8190 C.2    74  VAL74       0.2260
     60  O        -57.1810  -30.5540   -5.2460 O.2    74  VAL74      -0.2867
     61  CB       -55.9780  -27.6170   -6.0870 C.3    74  VAL74       0.0252
     62  CG1      -55.6330  -28.5970   -7.2150 C.3    74  VAL74       0.0019
     63  CG2      -57.1510  -26.7170   -6.4710 C.3    74  VAL74       0.0019
     64  N        -62.4730  -27.9960  -10.3940 N.3    88  MET88      -0.1230
     65  CA       -61.7060  -27.8930   -9.1550 C.3    88  MET88       0.1702
     66  C        -62.1910  -26.7010   -8.3740 C.2    88  MET88       0.2592
     67  O        -62.8820  -25.8400   -8.9190 O.2    88  MET88      -0.2718
     68  CB       -60.2140  -27.6940   -9.4580 C.3    88  MET88       0.0401
     69  CG       -59.5700  -28.8720  -10.1080 C.3    88  MET88       0.0596
     70  SD       -57.9330  -28.4760  -10.7580 S.3    88  MET88      -0.1393
     71  CE       -58.4010  -27.6240  -12.3760 C.3    88  MET88       0.0692
     72  N        -61.8110  -26.6200   -7.1020 N.am   89  GLU89      -0.1966
     73  CA       -62.1140  -25.4320   -6.2910 C.3    89  GLU89       0.1733
     74  C        -61.2690  -24.2320   -6.8340 C.2    89  GLU89       0.2616
     75  O        -60.1840  -24.4290   -7.4070 O.2    89  GLU89      -0.2715
     76  CB       -61.7660  -25.6660   -4.8110 C.3    89  GLU89       0.0429
     77  CG       -60.2830  -25.8450   -4.5630 C.3    89  GLU89       0.1163
     78  CD       -59.8560  -25.9910   -3.1260 C.2    89  GLU89       0.3649
     79  OE1      -58.7990  -26.6160   -2.8920 O.co2  89  GLU89      -0.2457
     80  OE2      -60.5800  -25.5010   -2.2340 O.co2  89  GLU89      -0.2457
     81  N        -61.7890  -23.0190   -6.6590 N.am   90  TYR90      -0.1960
     82  CA       -61.1180  -21.7860   -7.0530 C.3    90  TYR90       0.1771
     83  C        -60.3060  -21.2820   -5.8390 C.2    90  TYR90       0.2619
     84  O        -60.8730  -21.1220   -4.7620 O.2    90  TYR90      -0.2715
     85  CB       -62.1620  -20.7350   -7.4930 C.3    90  TYR90       0.0574
     86  CG       -61.5660  -19.3830   -7.8320 C.ar   90  TYR90      -0.0198
     87  CD1      -60.8430  -19.1940   -9.0030 C.ar   90  TYR90      -0.0009
     88  CD2      -61.7140  -18.2970   -6.9730 C.ar   90  TYR90      -0.0009
     89  CE1      -60.2520  -17.9670   -9.2980 C.ar   90  TYR90       0.0417
     90  CE2      -61.1470  -17.0580   -7.2680 C.ar   90  TYR90       0.0417
     91  CZ       -60.4090  -16.9010   -8.4300 C.ar   90  TYR90       0.1957
     92  OH       -59.8180  -15.7020   -8.7300 O.3    90  TYR90      -0.2866
     93  N        -58.9750  -21.1020   -6.0050 N.am   91  LEU91      -0.1964
     94  CA       -58.0610  -20.5630   -4.9720 C.3    91  LEU91       0.1713
     95  C        -57.8150  -19.1010   -5.3340 C.2    91  LEU91       0.2458
     96  O        -57.2890  -18.8190   -6.4090 O.2    91  LEU91      -0.2730
     97  CB       -56.7760  -21.3990   -4.8060 C.3    91  LEU91       0.0310
     98  CG       -57.0400  -22.8520   -4.3530 C.3    91  LEU91       0.0022
     99  CD1      -55.7550  -23.6090   -4.1210 C.3    91  LEU91       0.0001
    100  CD2      -57.9090  -22.9020   -3.1080 C.3    91  LEU91       0.0001
    101  N        -58.3450  -18.1690   -4.5210 N.am   92  PRO92      -0.2727
    102  CA       -58.3740  -16.7550   -4.9280 C.3    92  PRO92       0.1402
    103  C        -57.0530  -15.9850   -5.0730 C.2    92  PRO92       0.2269
    104  O        -57.0520  -14.9570   -5.7630 O.2    92  PRO92      -0.2865
    105  CB       -59.2590  -16.1090   -3.8510 C.3    92  PRO92       0.0296
    106  CG       -59.1000  -17.0050   -2.6370 C.3    92  PRO92       0.0237
    107  CD       -59.0610  -18.3720   -3.2400 C.3    92  PRO92       0.0939
    108  N        -54.1710  -16.9910   -6.5620 N.3    94  GLY94      -0.1210
    109  CA       -53.3940  -17.4710   -7.7030 C.3    94  GLY94       0.1956
    110  C        -52.1530  -18.2490   -7.3290 C.2    94  GLY94       0.2612
    111  O        -52.1220  -18.8980   -6.2800 O.2    94  GLY94      -0.2717
    112  N        -51.0980  -18.1530   -8.1610 N.am   95  SER95      -0.1952
    113  CA       -49.8630  -18.8820   -7.9110 C.3    95  SER95       0.1924
    114  C        -48.9880  -18.2910   -6.8040 C.2    95  SER95       0.2314
    115  O        -48.9610  -17.0660   -6.6020 O.2    95  SER95      -0.2863
    116  CB       -49.0650  -19.0350   -9.1970 C.3    95  SER95       0.2116
    117  OG       -48.4340  -17.8110   -9.5370 O.3    95  SER95      -0.2180
    118  N        -46.5920  -15.6090   -8.2030 N.3    98  ASP98      -0.1239
    119  CA       -47.1230  -14.2470   -8.2790 C.3    98  ASP98       0.1674
    120  C        -47.3500  -13.6090   -6.9060 C.2    98  ASP98       0.2266
    121  O        -46.9810  -12.4490   -6.7000 O.2    98  ASP98      -0.2867
    122  CB       -48.3860  -14.1930   -9.1600 C.3    98  ASP98       0.1410
    123  CG       -48.1000  -14.5390  -10.6200 C.2    98  ASP98       0.3668
    124  OD1      -46.9160  -14.4110  -11.0510 O.co2  98  ASP98      -0.2456
    125  OD2      -49.0460  -14.9530  -11.3270 O.co2  98  ASP98      -0.2456
    126  N        -44.9960  -21.7990   -9.8100 N.3   139  ARG139     -0.1231
    127  CA       -46.0680  -21.3890  -10.7050 C.3   139  ARG139      0.1694
    128  C        -47.2310  -22.3620  -10.6120 C.2   139  ARG139      0.2592
    129  O        -48.3510  -21.9740  -10.9130 O.2   139  ARG139     -0.2718
    130  CB       -45.5540  -21.2300  -12.1600 C.3   139  ARG139      0.0321
    131  CG       -45.0180  -22.5250  -12.7670 C.3   139  ARG139      0.0489
    132  CD       -44.4310  -22.4230  -14.1570 C.3   139  ARG139      0.2205
    133  NE       -44.3770  -23.7670  -14.7510 N.pl3 139  ARG139     -0.0865
    134  CZ       -43.3260  -24.5910  -14.7260 C.cat 139  ARG139      0.5346
    135  NH1      -42.1690  -24.1970  -14.1940 N.pl3 139  ARG139      0.1354
    136  NH2      -43.4080  -25.7940  -15.2780 N.pl3 139  ARG139      0.1354
    137  N        -46.9670  -23.6140  -10.1610 N.am  140  ASN140     -0.1974
    138  CA       -47.9550  -24.6980  -10.0570 C.3   140  ASN140      0.1688
    139  C        -48.4790  -24.8770   -8.6550 C.2   140  ASN140      0.2292
    140  O        -49.2410  -25.8260   -8.3900 O.2   140  ASN140     -0.2864
    141  CB       -47.3550  -26.0160  -10.5850 C.3   140  ASN140      0.1181
    142  CG       -47.0480  -25.9690  -12.0460 C.2   140  ASN140      0.2629
    143  OD1      -47.7650  -25.3560  -12.8360 O.2   140  ASN140     -0.2716
    144  ND2      -45.9490  -26.5720  -12.4370 N.am  140  ASN140     -0.0877
    145  N        -50.6410  -23.0970   -5.6660 N.3   142  LEU142     -0.1245
    146  CA       -51.6330  -22.0350   -5.5320 C.3   142  LEU142      0.1561
    147  C        -51.8020  -21.5810   -4.1050 C.2   142  LEU142      0.2260
    148  O        -51.5090  -22.3280   -3.1860 O.2   142  LEU142     -0.2867
    149  CB       -52.9730  -22.3940   -6.1740 C.3   142  LEU142      0.0270
    150  CG       -52.9300  -22.7880   -7.6460 C.3   142  LEU142      0.0019
    151  CD1      -54.1710  -23.5450   -8.0070 C.3   142  LEU142      0.0001
    152  CD2      -52.7320  -21.5940   -8.5300 C.3   142  LEU142      0.0001
    153  N        -51.3710  -27.1500   -7.1210 N.3   152  GLY152     -0.1210
    154  CA       -52.4980  -26.6960   -7.9270 C.3   152  GLY152      0.1956
    155  C        -52.7380  -27.2460   -9.3110 C.2   152  GLY152      0.2611
    156  O        -53.7130  -26.8540   -9.9530 O.2   152  GLY152     -0.2717
    157  N        -51.9030  -28.1730   -9.7630 N.am  153  ASP153     -0.1973
    158  CA       -52.0210  -28.7800  -11.0810 C.3   153  ASP153      0.1709
    159  C        -51.3310  -30.1120  -11.0870 C.2   153  ASP153      0.2293
    160  O        -50.2690  -30.2390  -10.4750 O.2   153  ASP153     -0.2864
    161  CB       -51.3650  -27.8980  -12.1620 C.3   153  ASP153      0.1436
    162  CG       -51.7150  -28.3590  -13.5680 C.2   153  ASP153      0.3671
    163  OD1      -52.8620  -28.0760  -14.0230 O.co2 153  ASP153     -0.2456
    164  OD2      -50.8860  -29.0690  -14.1760 O.co2 153  ASP153     -0.2456
@<TRIPOS>BOND
     1    21    20    1
     2    20    19    1
     3    19    18    1
     4    25    24    2
     5    26    27    1
     6    18    17    1
     7    24    23    1
     8    27    28    1
     9    17    14    1
    10    35    34    1
    11    34    31    1
    12    29    28    2
    13    28    30   am
    14    30    31    1
    15    23    22    1
    16    22    15   am
    17    14    15    1
    18    14    13    1
    19    31    32    1
    20    15    16    2
    21    13    11   am
    22    32    33    2
    23    32    36   am
    24    12    11    2
    25    11    10    1
    26    36    37    1
    27    50    51    2
    28    50    49    1
    29    10     9    1
    30    39    38    2
    31     9     3   am
    32    38    37    1
    33    37    40    1
    34    53    54    1
    35    53    52    1
    36     1     2    1
    37    49    52    1
    38    49    48    1
    39    55    56    1
    40    55    54    1
    41     3     4    2
    42     3     2    1
    43     2     5    1
    44    40    42    1
    45    40    41    1
    46   136   134    1
    47   133   134    2
    48   133   132    1
    49   134   135    1
    50     5     6    1
    51   164   162   ar
    52   132   131    1
    53   163   162   ar
    54     6     8    1
    55     6     7    1
    56   162   161    1
    57   143   142    2
    58   131   130    1
    59    45    46    2
    60    45    44    1
    61   144   142   am
    62    71    70    1
    63   161   158    1
    64   130   127    1
    65   142   141    1
    66    44    47    1
    67    44    43    1
    68   125   123   ar
    69   159   158    1
    70   159   160    2
    71   158   157    1
    72   124   123   ar
    73   129   128    2
    74    70    69    1
    75   127   128    1
    76   127   126    1
    77   123   122    1
    78   128   137   am
    79   141   138    1
    80    64    65    1
    81   137   138    1
    82    69    68    1
    83   138   139    1
    84   156   155    2
    85   157   155   am
    86   117   116    1
    87    68    65    1
    88   155   154    1
    89    89    87   ar
    90    89    91   ar
    91   116   113    1
    92   122   119    1
    93    65    66    1
    94    87    86   ar
    95    67    66    2
    96    92    91    1
    97   139   140    2
    98   152   150    1
    99    91    90   ar
   100    66    72   am
   101   119   118    1
   102   119   120    1
   103   112   113    1
   104   112   110   am
   105   151   150    1
   106   154   153    1
   107   113   114    1
   108    86    85    1
   109    86    88   ar
   110   109   110    1
   111   109   108    1
   112   150   149    1
   113    85    82    1
   114    75    74    2
   115   110   111    2
   116    90    88   ar
   117    62    61    1
   118    72    73    1
   119    82    81    1
   120    82    83    1
   121   120   121    2
   122    74    81   am
   123    74    73    1
   124   114   115    2
   125    63    61    1
   126    96    95    2
   127    73    76    1
   128   149   146    1
   129    61    58    1
   130    93    83   am
   131    93    94    1
   132    83    84    2
   133   104   103    2
   134   145   146    1
   135   146   147    1
   136    95    94    1
   137    95   101   am
   138    60    59    2
   139   103   102    1
   140    94    97    1
   141   102   101    1
   142   102   105    1
   143    59    58    1
   144    76    77    1
   145    97    98    1
   146    58    57    1
   147    77    78    1
   148   101   107    1
   149    98    99    1
   150    98   100    1
   151   147   148    2
   152   105   106    1
   153   107   106    1
   154    78    79   ar
   155    78    80   ar
