@<TRIPOS>MOLECULE
tmp/5cf8B00.pdb
 193 184 0 0 0
SMALL
GASTEIGER

@<TRIPOS>ATOM
      1  N         40.1020   -7.9100   16.1290 N.3    15  GLN15      -0.1245
      2  CA        40.5780   -6.6330   16.6660 C.3    15  GLN15       0.1566
      3  C         39.4540   -5.6610   16.8990 C.2    15  GLN15       0.2260
      4  O         38.3890   -5.8010   16.2910 O.2    15  GLN15      -0.2867
      5  CB        41.6390   -5.9900   15.7340 C.3    15  GLN15       0.0367
      6  CG        41.0990   -5.3600   14.4580 C.3    15  GLN15       0.0905
      7  CD        42.1560   -4.5060   13.8270 C.2    15  GLN15       0.2608
      8  OE1       42.9820   -4.9980   13.0600 O.2    15  GLN15      -0.2717
      9  NE2       42.1600   -3.2170   14.1480 N.am   15  GLN15      -0.0878
     10  N         37.8360   -2.0910   16.2420 N.3    17  LEU17      -0.1231
     11  CA        37.8980   -1.1420   15.1200 C.3    17  LEU17       0.1693
     12  C         37.6190    0.2690   15.5820 C.2    17  LEU17       0.2593
     13  O         38.2940    1.2110   15.1480 O.2    17  LEU17      -0.2718
     14  CB        36.9340   -1.5450   14.0010 C.3    17  LEU17       0.0284
     15  CG        37.2690   -2.8570   13.3130 C.3    17  LEU17       0.0019
     16  CD1       36.1650   -3.2570   12.3570 C.3    17  LEU17       0.0001
     17  CD2       38.6400   -2.8130   12.6260 C.3    17  LEU17       0.0001
     18  N         36.6460    0.4350   16.4530 N.am   18  GLY18      -0.1942
     19  CA        36.3600    1.7660   16.9610 C.3    18  GLY18       0.2014
     20  C         35.3060    1.7880   18.0240 C.2    18  GLY18       0.2639
     21  O         34.6270    0.7840   18.2680 O.2    18  GLY18      -0.2714
     22  N         35.1780    2.9250   18.6610 N.am   19  LYS19      -0.1963
     23  CA        34.2210    3.0500   19.7280 C.3    19  LYS19       0.1728
     24  C         33.3970    4.3180   19.6190 C.2    19  LYS19       0.2616
     25  O         33.8650    5.3410   19.1220 O.2    19  LYS19      -0.2715
     26  CB        34.9050    2.8980   21.1030 C.3    19  LYS19       0.0311
     27  CG        35.9470    3.9650   21.4300 C.3    19  LYS19       0.0038
     28  CD        36.7310    3.6380   22.7160 C.3    19  LYS19       0.0206
     29  CE        38.1360    3.1330   22.4540 C.3    19  LYS19       0.1093
     30  NZ        39.0260    4.1840   21.8700 N.3    19  LYS19      -0.1314
     31  N         32.1480    4.1900   20.0180 N.am   20  GLY20      -0.1955
     32  CA        31.1780    5.2620   20.0880 C.3    20  GLY20       0.1869
     33  C         30.9830    5.6150   21.5480 C.2    20  GLY20       0.2309
     34  O         31.7520    5.1570   22.4130 O.2    20  GLY20      -0.2863
     35  N         28.6510    2.3100   22.4960 N.3    23  GLY23      -0.1210
     36  CA        28.8260    1.1170   21.6790 C.3    23  GLY23       0.1956
     37  C         30.1890    1.0360   21.0390 C.2    23  GLY23       0.2613
     38  O         30.9400    2.0180   21.0630 O.2    23  GLY23      -0.2717
     39  N         30.5350   -0.1430   20.4840 N.am   24  SER24      -0.1938
     40  CA        31.8330   -0.2970   19.8170 C.3    24  SER24       0.2055
     41  C         31.7130   -1.2790   18.6670 C.2    24  SER24       0.2642
     42  O         30.7640   -2.0520   18.6100 O.2    24  SER24      -0.2714
     43  CB        32.8990   -0.7680   20.8010 C.3    24  SER24       0.2130
     44  OG        32.4380   -1.9660   21.4060 O.3    24  SER24      -0.2179
     45  N         32.6920   -1.2440   17.7560 N.am   25  VAL25      -0.1977
     46  CA        32.7310   -2.1300   16.5990 C.3    25  VAL25       0.1596
     47  C         34.0330   -2.9190   16.6090 C.2    25  VAL25       0.2287
     48  O         35.0920   -2.3230   16.7970 O.2    25  VAL25      -0.2864
     49  CB        32.5290   -1.3260   15.2640 C.3    25  VAL25       0.0276
     50  CG1       32.6290   -2.2520   14.0580 C.3    25  VAL25       0.0022
     51  CG2       31.1780   -0.5930   15.2650 C.3    25  VAL25       0.0022
     52  N         36.3350   -6.2590   14.5920 N.3    27  MET27      -0.1245
     53  CA        36.5500   -7.0820   13.4170 C.3    27  MET27       0.1570
     54  C         36.5810   -8.5340   13.9160 C.2    27  MET27       0.2261
     55  O         37.3630   -8.8400   14.8190 O.2    27  MET27      -0.2867
     56  CB        37.9040   -6.7270   12.7970 C.3    27  MET27       0.0387
     57  CG        38.2130   -7.4780   11.5340 C.3    27  MET27       0.0595
     58  SD        39.9280   -7.0860   11.1330 S.3    27  MET27      -0.1393
     59  CE        40.1300   -7.8620    9.5970 C.3    27  MET27       0.0692
     60  N         32.2030   -7.1330   10.4780 N.3    42  ALA42      -0.1245
     61  CA        32.3010   -6.0760   11.4860 C.3    42  ALA42       0.1562
     62  C         31.1490   -6.3340   12.4480 C.2    42  ALA42       0.2260
     63  O         30.0170   -6.5760   12.0150 O.2    42  ALA42      -0.2867
     64  CB        32.1600   -4.6920   10.8470 C.3    42  ALA42       0.0290
     65  N         28.9990   -4.9050   15.8090 N.3    44  LYS44      -0.1245
     66  CA        28.6970   -3.7770   16.6620 C.3    44  LYS44       0.1561
     67  C         27.9640   -4.2800   17.9010 C.2    44  LYS44       0.2260
     68  O         27.0460   -5.1010   17.7990 O.2    44  LYS44      -0.2867
     69  CB        27.8610   -2.7010   15.9310 C.3    44  LYS44       0.0271
     70  CG        27.5700   -1.4820   16.7990 C.3    44  LYS44       0.0035
     71  CD        26.9460   -0.3340   15.9870 C.3    44  LYS44       0.0206
     72  CE        26.7490    0.8580   16.8850 C.3    44  LYS44       0.1093
     73  NZ        26.0660    1.9700   16.1560 N.3    44  LYS44      -0.1314
     74  N         26.6800    0.8040    4.2260 N.3    73  VAL73      -0.1245
     75  CA        27.2790   -0.4280    4.7350 C.3    73  VAL73       0.1561
     76  C         26.2140   -1.5650    4.8000 C.2    73  VAL73       0.2260
     77  O         25.0790   -1.3370    5.2410 O.2    73  VAL73      -0.2867
     78  CB        28.0190   -0.1930    6.0900 C.3    73  VAL73       0.0252
     79  CG1       27.0310    0.1440    7.2220 C.3    73  VAL73       0.0019
     80  CG2       28.8810   -1.4050    6.4650 C.3    73  VAL73       0.0019
     81  N         27.7680   -6.7180   10.3590 N.3    86  MET86      -0.1230
     82  CA        27.7850   -5.9460    9.1020 C.3    86  MET86       0.1702
     83  C         28.9280   -6.4440    8.2650 C.2    86  MET86       0.2592
     84  O         29.8210   -7.1160    8.7720 O.2    86  MET86      -0.2718
     85  CB        28.0480   -4.4620    9.3980 C.3    86  MET86       0.0401
     86  CG        26.8770   -3.7290   10.0250 C.3    86  MET86       0.0596
     87  SD        27.3470   -2.0990   10.6580 S.3    86  MET86      -0.1393
     88  CE        28.2200   -2.5850   12.2150 C.3    86  MET86       0.0692
     89  N         28.9680   -6.0460    6.9830 N.am   87  GLU87      -0.1966
     90  CA        30.1330   -6.3880    6.1760 C.3    87  GLU87       0.1733
     91  C         31.3260   -5.6220    6.7270 C.2    87  GLU87       0.2616
     92  O         31.1610   -4.5570    7.3520 O.2    87  GLU87      -0.2715
     93  CB        29.9310   -5.9960    4.6990 C.3    87  GLU87       0.0429
     94  CG        29.7780   -4.4940    4.5200 C.3    87  GLU87       0.1163
     95  CD        29.6700   -4.0310    3.0780 C.2    87  GLU87       0.3649
     96  OE1       29.0810   -2.9550    2.8580 O.co2  87  GLU87      -0.2457
     97  OE2       30.1290   -4.7580    2.1740 O.co2  87  GLU87      -0.2457
     98  N         32.5110   -6.1540    6.4700 N.am   88  TYR88      -0.1960
     99  CA        33.7610   -5.5460    6.8740 C.3    88  TYR88       0.1771
    100  C         34.3320   -4.7360    5.6800 C.2    88  TYR88       0.2619
    101  O         34.4140   -5.2860    4.5800 O.2    88  TYR88      -0.2715
    102  CB        34.7480   -6.6410    7.3130 C.3    88  TYR88       0.0574
    103  CG        36.1110   -6.0520    7.5500 C.ar   88  TYR88      -0.0198
    104  CD1       36.3330   -5.1660    8.6010 C.ar   88  TYR88      -0.0009
    105  CD2       37.1550   -6.2770    6.6530 C.ar   88  TYR88      -0.0009
    106  CE1       37.5640   -4.5320    8.7670 C.ar   88  TYR88       0.0417
    107  CE2       38.4040   -5.6800    6.8340 C.ar   88  TYR88       0.0417
    108  CZ        38.5830   -4.7650    7.8610 C.ar   88  TYR88       0.1957
    109  OH        39.7560   -4.1010    8.0250 O.3    88  TYR88      -0.2866
    110  N         34.6960   -3.4580    5.8920 N.am   89  LEU89      -0.1964
    111  CA        35.2620   -2.5550    4.8460 C.3    89  LEU89       0.1713
    112  C         36.7300   -2.3130    5.1870 C.2    89  LEU89       0.2458
    113  O         37.0320   -1.8410    6.2890 O.2    89  LEU89      -0.2730
    114  CB        34.4630   -1.2610    4.7370 C.3    89  LEU89       0.0310
    115  CG        32.9830   -1.5030    4.3230 C.3    89  LEU89       0.0022
    116  CD1       32.2540   -0.2020    4.2210 C.3    89  LEU89       0.0001
    117  CD2       32.8940   -2.2760    3.0010 C.3    89  LEU89       0.0001
    118  N         37.6640   -2.7200    4.3030 N.am   90  PRO90      -0.2716
    119  CA        39.0770   -2.7650    4.7210 C.3    90  PRO90       0.1536
    120  C         39.8350   -1.4540    4.8850 C.2    90  PRO90       0.2599
    121  O         40.9040   -1.4850    5.4960 O.2    90  PRO90      -0.2715
    122  CB        39.7500   -3.6420    3.6420 C.3    90  PRO90       0.0310
    123  CG        38.8600   -3.5350    2.4490 C.3    90  PRO90       0.0237
    124  CD        37.4590   -3.3930    3.0000 C.3    90  PRO90       0.0939
    125  N         39.2970   -0.3010    4.4460 N.am   91  TYR91      -0.1960
    126  CA        40.0570    0.9440    4.5150 C.3    91  TYR91       0.1771
    127  C         39.5800    1.8970    5.5970 C.2    91  TYR91       0.2620
    128  O         40.0690    3.0200    5.6620 O.2    91  TYR91      -0.2715
    129  CB        40.1280    1.6210    3.1310 C.3    91  TYR91       0.0574
    130  CG        40.8750    0.7550    2.1400 C.ar   91  TYR91      -0.0198
    131  CD1       42.2580    0.6160    2.2110 C.ar   91  TYR91      -0.0009
    132  CD2       40.1910   -0.0440    1.2400 C.ar   91  TYR91      -0.0009
    133  CE1       42.9430   -0.2530    1.3590 C.ar   91  TYR91       0.0417
    134  CE2       40.8610   -0.9220    0.3890 C.ar   91  TYR91       0.0417
    135  CZ        42.2370   -1.0280    0.4570 C.ar   91  TYR91       0.1957
    136  OH        42.8820   -1.8870   -0.3990 O.3    91  TYR91      -0.2866
    137  N         38.6890    1.4260    6.4670 N.am   92  GLY92      -0.1940
    138  CA        38.2700    2.1850    7.6460 C.3    92  GLY92       0.2014
    139  C         37.5690    3.4810    7.3410 C.2    92  GLY92       0.2639
    140  O         36.9180    3.5700    6.2940 O.2    92  GLY92      -0.2714
    141  N         37.6810    4.4910    8.2390 N.am   93  SER93      -0.1949
    142  CA        36.9400    5.7370    8.0270 C.3    93  SER93       0.1924
    143  C         37.4960    6.6110    6.9270 C.2    93  SER93       0.2314
    144  O         38.7100    6.6810    6.7100 O.2    93  SER93      -0.2863
    145  CB        36.8230    6.5380    9.3190 C.3    93  SER93       0.2116
    146  OG        38.0670    7.1520    9.6360 O.3    93  SER93      -0.2180
    147  N         40.1180    9.0770    8.2680 N.3    96  ASP96      -0.1239
    148  CA        41.5030    8.5400    8.3400 C.3    96  ASP96       0.1674
    149  C         42.1220    8.3500    6.9690 C.2    96  ASP96       0.2266
    150  O         43.2910    8.7170    6.7400 O.2    96  ASP96      -0.2867
    151  CB        41.5000    7.2310    9.1420 C.3    96  ASP96       0.1410
    152  CG        41.1570    7.4430   10.6100 C.2    96  ASP96       0.3668
    153  OD1       41.3400    8.5780   11.1060 O.co2  96  ASP96      -0.2456
    154  OD2       40.7350    6.4780   11.2650 O.co2  96  ASP96      -0.2456
    155  N         34.0020   10.8840    9.9200 N.3   137  ARG137     -0.1231
    156  CA        34.3540    9.7720   10.8330 C.3   137  ARG137      0.1694
    157  C         33.3150    8.6120   10.7610 C.2   137  ARG137      0.2592
    158  O         33.6000    7.4760   11.1940 O.2   137  ARG137     -0.2718
    159  CB        34.4930   10.2980   12.2890 C.3   137  ARG137      0.0321
    160  CG        33.1580   10.7330   12.8910 C.3   137  ARG137      0.0489
    161  CD        33.2420   11.3610   14.2760 C.3   137  ARG137      0.2205
    162  NE        31.8840   11.7530   14.6350 N.pl3 137  ARG137     -0.0865
    163  CZ        31.3610   12.9690   14.4860 C.cat 137  ARG137      0.5346
    164  NH1       32.1200   13.9870   14.0900 N.pl3 137  ARG137      0.1354
    165  NH2       30.0830   13.1810   14.7580 N.pl3 137  ARG137      0.1354
    166  N         32.0970    8.8970   10.2340 N.am  138  ASN138     -0.1974
    167  CA        31.0170    7.9210   10.1150 C.3   138  ASN138      0.1688
    168  C         30.8450    7.3630    8.7160 C.2   138  ASN138      0.2292
    169  O         29.9110    6.6020    8.4780 O.2   138  ASN138     -0.2864
    170  CB        29.6860    8.5460   10.6000 C.3   138  ASN138      0.1181
    171  CG        29.7440    8.7550   12.0820 C.2   138  ASN138      0.2629
    172  OD1       30.4370    8.0220   12.7980 O.2   138  ASN138     -0.2716
    173  ND2       29.1720    9.8410   12.5580 N.am  138  ASN138     -0.0877
    174  N         32.7080    5.1220    5.7050 N.3   140  LEU140     -0.1245
    175  CA        33.7430    4.0980    5.5640 C.3   140  LEU140      0.1561
    176  C         34.1930    3.9710    4.1470 C.2   140  LEU140      0.2260
    177  O         33.4350    4.2780    3.2050 O.2   140  LEU140     -0.2867
    178  CB        33.2180    2.7630    6.0780 C.3   140  LEU140      0.0270
    179  CG        32.8310    2.7280    7.5700 C.3   140  LEU140      0.0019
    180  CD1       32.0480    1.4450    7.8630 C.3   140  LEU140      0.0001
    181  CD2       34.0930    2.8590    8.4650 C.3   140  LEU140      0.0001
    182  N         28.5160    4.5260    7.0970 N.3   150  GLY150     -0.1210
    183  CA        28.9310    3.3480    7.8410 C.3   150  GLY150      0.1956
    184  C         28.3820    3.0810    9.2170 C.2   150  GLY150      0.2611
    185  O         28.8000    2.1030    9.8450 O.2   150  GLY150     -0.2717
    186  N         27.4390    3.9050    9.6760 N.am  151  ASP151     -0.1973
    187  CA        26.8350    3.7220   10.9940 C.3   151  ASP151      0.1709
    188  C         25.4920    4.4140   11.0350 C.2   151  ASP151      0.2293
    189  O         25.3380    5.4690   10.4080 O.2   151  ASP151     -0.2864
    190  CB        27.7360    4.3090   12.1000 C.3   151  ASP151      0.1436
    191  CG        27.2420    3.9400   13.4860 C.2   151  ASP151      0.3671
    192  OD1       27.4700    2.7680   13.9170 O.co2 151  ASP151     -0.2456
    193  OD2       26.5400    4.7650   14.0960 O.co2 151  ASP151     -0.2456
@<TRIPOS>BOND
     1   136   135    1
     2   134   135   ar
     3   134   132   ar
     4   135   133   ar
     5   132   130   ar
     6   133   131   ar
     7   130   131   ar
     8   130   129    1
     9    97    95   ar
    10   123   124    1
    11   123   122    1
    12    96    95   ar
    13   124   118    1
    14   117   115    1
    15    95    94    1
    16   129   126    1
    17   177   176    2
    18   122   119    1
    19   176   175    1
    20   116   115    1
    21    74    75    1
    22   118   119    1
    23   118   112   am
    24   115   114    1
    25   125   126    1
    26   125   120   am
    27   126   127    1
    28    94    93    1
    29   101   100    2
    30    93    90    1
    31   119   120    1
    32    75    76    1
    33    75    78    1
    34   114   111    1
    35    76    77    2
    36   111   112    1
    37   111   110    1
    38   120   121    2
    39   112   113    2
    40   175   174    1
    41   175   178    1
    42   127   128    2
    43   127   137   am
    44   100   110   am
    45   100    99    1
    46   178   179    1
    47    78    80    1
    48    78    79    1
    49    90    91    1
    50    90    89    1
    51   140   139    2
    52   137   138    1
    53    98    91   am
    54    98    99    1
    55   105   107   ar
    56   105   103   ar
    57   144   143    2
    58    91    92    2
    59   150   149    2
    60   107   108   ar
    61    99   102    1
    62   143   142    1
    63   149   148    1
    64    89    83   am
    65   182   183    1
    66   102   103    1
    67   139   138    1
    68   139   141   am
    69   103   104   ar
    70   179   180    1
    71   179   181    1
    72   183   184    1
    73   108   109    1
    74   108   106   ar
    75   142   141    1
    76   142   145    1
    77    83    84    2
    78    83    82    1
    79   147   148    1
    80   148   151    1
    81   169   168    2
    82   104   106   ar
    83   168   167    1
    84    82    85    1
    85    82    81    1
    86   151   152    1
    87   184   186   am
    88   184   185    2
    89   145   146    1
    90    85    86    1
    91    59    58    1
    92   186   187    1
    93   155   156    1
    94    86    87    1
    95   167   166    1
    96   167   170    1
    97   166   157   am
    98   189   188    2
    99    60    61    1
   100   170   171    1
   101   152   153   ar
   102   152   154   ar
   103    87    88    1
   104   157   156    1
   105   157   158    2
   106   156   159    1
   107    64    61    1
   108   187   188    1
   109   187   190    1
   110    58    57    1
   111    61    62    1
   112    57    56    1
   113    63    62    2
   114   171   173   am
   115   171   172    2
   116   190   191    1
   117   159   160    1
   118    16    15    1
   119    17    15    1
   120    56    53    1
   121   160   161    1
   122     8     7    2
   123    15    14    1
   124    53    54    1
   125    53    52    1
   126   191   192   ar
   127   191   193   ar
   128     7     9   am
   129     7     6    1
   130    54    55    2
   131    14    11    1
   132    50    49    1
   133   164   163    1
   134   161   162    1
   135     6     5    1
   136   163   162    2
   137   163   165    1
   138    11    12    1
   139    11    10    1
   140    13    12    2
   141    49    51    1
   142    49    46    1
   143    12    18   am
   144     5     2    1
   145    65    66    1
   146    69    66    1
   147    69    70    1
   148    71    70    1
   149    71    72    1
   150     1     2    1
   151    73    72    1
   152     4     3    2
   153    18    19    1
   154    46    47    1
   155    46    45    1
   156    47    48    2
   157    66    67    1
   158     2     3    1
   159    19    20    1
   160    45    41   am
   161    68    67    2
   162    20    21    2
   163    20    22   am
   164    42    41    2
   165    22    23    1
   166    41    40    1
   167    25    24    2
   168    24    23    1
   169    24    31   am
   170    23    26    1
   171    40    39    1
   172    40    43    1
   173    31    32    1
   174    32    33    1
   175    39    37   am
   176    43    44    1
   177    37    38    2
   178    37    36    1
   179    26    27    1
   180    27    28    1
   181    33    34    2
   182    36    35    1
   183    30    29    1
   184    29    28    1
