@<TRIPOS>MOLECULE
tmp/5cflB00.pdb
 147 146 0 0 0
SMALL
GASTEIGER

@<TRIPOS>ATOM
      1  N         15.2210   23.2400   -2.0520 N.3    11  SER11      -0.1202
      2  CA        16.1700   24.2180   -2.5790 C.3    11  SER11       0.2020
      3  C         15.9720   25.5820   -1.9150 C.2    11  SER11       0.2618
      4  O         16.9340   26.3200   -1.7050 O.2    11  SER11      -0.2717
      5  CB        16.0480   24.3380   -4.1030 C.3    11  SER11       0.2103
      6  OG        14.8360   24.9610   -4.4790 O.3    11  SER11      -0.2182
      7  N         14.7250   25.9010   -1.5740 N.am   12  TYR12      -0.1975
      8  CA        14.3970   27.1140   -0.8220 C.3    12  TYR12       0.1639
      9  C         15.1440   27.1170    0.5050 C.2    12  TYR12       0.2290
     10  O         15.5950   28.1570    0.9820 O.2    12  TYR12      -0.2864
     11  CB        12.8850   27.1950   -0.5890 C.3    12  TYR12       0.0560
     12  CG        12.3500   28.5040   -0.0390 C.ar   12  TYR12      -0.0198
     13  CD1       12.9030   29.7270   -0.4040 C.ar   12  TYR12      -0.0009
     14  CD2       11.2510   28.5120    0.8130 C.ar   12  TYR12      -0.0009
     15  CE1       12.3870   30.9240    0.0910 C.ar   12  TYR12       0.0417
     16  CE2       10.7310   29.6940    1.3060 C.ar   12  TYR12       0.0417
     17  CZ        11.2990   30.8950    0.9460 C.ar   12  TYR12       0.1957
     18  OH        10.7690   32.0640    1.4490 O.3    12  TYR12      -0.2866
     19  N         19.3220   26.5940   -0.3840 N.3    15  GLY15      -0.1210
     20  CA        19.8100   27.7070   -1.1760 C.3    15  GLY15       0.1956
     21  C         19.5160   29.0810   -0.6030 C.2    15  GLY15       0.2611
     22  O         19.8950   30.0920   -1.1950 O.2    15  GLY15      -0.2717
     23  N         18.8490   29.1310    0.5470 N.am   16  TYR16      -0.1976
     24  CA        18.4390   30.4170    1.1080 C.3    16  TYR16       0.1639
     25  C         18.1880   30.3660    2.6150 C.2    16  TYR16       0.2290
     26  O         18.9970   30.8640    3.3990 O.2    16  TYR16      -0.2864
     27  CB        17.1850   30.9190    0.3830 C.3    16  TYR16       0.0560
     28  CG        16.6920   32.2800    0.8290 C.ar   16  TYR16      -0.0198
     29  CD1       17.5190   33.3950    0.7750 C.ar   16  TYR16      -0.0009
     30  CD2       15.3880   32.4540    1.2760 C.ar   16  TYR16      -0.0009
     31  CE1       17.0680   34.6430    1.1750 C.ar   16  TYR16       0.0417
     32  CE2       14.9250   33.6980    1.6740 C.ar   16  TYR16       0.0417
     33  CZ        15.7700   34.7890    1.6190 C.ar   16  TYR16       0.1957
     34  OH        15.3100   36.0270    2.0110 O.3    16  TYR16      -0.2866
     35  N         27.7810   30.9070   -4.6170 N.3    82  ARG82      -0.1245
     36  CA        27.1620   29.5940   -4.7480 C.3    82  ARG82       0.1563
     37  C         28.0150   28.6580   -5.5970 C.2    82  ARG82       0.2260
     38  O         27.9600   28.7000   -6.8260 O.2    82  ARG82      -0.2867
     39  CB        25.7620   29.7190   -5.3580 C.3    82  ARG82       0.0307
     40  CG        24.7610   30.4920   -4.5100 C.3    82  ARG82       0.0489
     41  CD        24.7970   30.0530   -3.0480 C.3    82  ARG82       0.2205
     42  NE        24.5380   28.6240   -2.8600 N.pl3  82  ARG82      -0.0865
     43  CZ        23.4110   27.9960   -3.1900 C.cat  82  ARG82       0.5346
     44  NH1       22.3920   28.6590   -3.7180 N.pl3  82  ARG82       0.1354
     45  NH2       23.2980   26.6930   -2.9730 N.pl3  82  ARG82       0.1354
     46  N         30.0420   29.5050   -8.7620 N.3    85  VAL85      -0.1231
     47  CA        29.3790   29.7320  -10.0410 C.3    85  VAL85       0.1692
     48  C         28.8670   31.1640  -10.1690 C.2    85  VAL85       0.2592
     49  O         29.1430   31.8430  -11.1580 O.2    85  VAL85      -0.2718
     50  CB        28.2060   28.7590  -10.2460 C.3    85  VAL85       0.0266
     51  CG1       27.6100   28.9440  -11.6310 C.3    85  VAL85       0.0020
     52  CG2       28.6700   27.3220  -10.0530 C.3    85  VAL85       0.0020
     53  N         28.1180   31.6210   -9.1720 N.am   86  PHE86      -0.1976
     54  CA        27.6180   32.9900   -9.1840 C.3    86  PHE86       0.1639
     55  C         27.5800   33.5810   -7.7810 C.2    86  PHE86       0.2290
     56  O         27.4090   32.8670   -6.7940 O.2    86  PHE86      -0.2864
     57  CB        26.2290   33.0600   -9.8410 C.3    86  PHE86       0.0560
     58  CG        25.1540   32.2910   -9.1130 C.ar   86  PHE86      -0.0200
     59  CD1       25.0930   30.9080   -9.1890 C.ar   86  PHE86      -0.0042
     60  CD2       24.1800   32.9560   -8.3860 C.ar   86  PHE86      -0.0042
     61  CE1       24.0990   30.2030   -8.5320 C.ar   86  PHE86      -0.0003
     62  CE2       23.1810   32.2550   -7.7300 C.ar   86  PHE86      -0.0003
     63  CZ        23.1420   30.8780   -7.8020 C.ar   86  PHE86      -0.0000
     64  N         26.0710   35.9620   -4.7750 N.3    88  ARG88      -0.1231
     65  CA        24.7780   36.4190   -4.2900 C.3    88  ARG88       0.1694
     66  C         24.9020   37.3590   -3.1020 C.2    88  ARG88       0.2592
     67  O         25.8230   37.2470   -2.2930 O.2    88  ARG88      -0.2718
     68  CB        23.8980   35.2280   -3.9060 C.3    88  ARG88       0.0321
     69  CG        23.3600   34.4390   -5.0840 C.3    88  ARG88       0.0489
     70  CD        22.4620   35.2980   -5.9670 C.3    88  ARG88       0.2205
     71  NE        21.6070   36.1760   -5.1750 N.pl3  88  ARG88      -0.0865
     72  CZ        20.5130   35.7790   -4.5350 C.cat  88  ARG88       0.5346
     73  NH1       19.8030   36.6510   -3.8330 N.pl3  88  ARG88       0.1354
     74  NH2       20.1320   34.5080   -4.5870 N.pl3  88  ARG88       0.1354
     75  N         23.9640   38.2940   -3.0170 N.am   89  HIS89      -0.1962
     76  CA        23.8140   39.1310   -1.8400 C.3    89  HIS89       0.1787
     77  C         22.4020   38.9520   -1.3050 C.2    89  HIS89       0.2620
     78  O         21.4310   39.0350   -2.0560 O.2    89  HIS89      -0.2715
     79  CB        24.0960   40.5980   -2.1640 C.3    89  HIS89       0.0785
     80  CG        25.5410   40.8890   -2.4250 C.ar   89  HIS89       0.0821
     81  ND1       26.0520   41.0450   -3.6950 N.ar   89  HIS89      -0.2267
     82  CD2       26.5850   41.0480   -1.5770 C.ar   89  HIS89       0.1154
     83  CE1       27.3480   41.2900   -3.6190 C.ar   89  HIS89       0.1986
     84  NE2       27.6960   41.2970   -2.3450 N.ar   89  HIS89      -0.2212
     85  N         22.2950   38.6840   -0.0090 N.am   90  TYR90      -0.1960
     86  CA        21.0010   38.4360    0.6090 C.3    90  TYR90       0.1771
     87  C         20.6530   39.5380    1.6010 C.2    90  TYR90       0.2619
     88  O         21.4360   39.8480    2.4970 O.2    90  TYR90      -0.2715
     89  CB        20.9930   37.0750    1.3100 C.3    90  TYR90       0.0574
     90  CG        21.4430   35.9300    0.4320 C.ar   90  TYR90      -0.0198
     91  CD1       20.5400   35.2490   -0.3740 C.ar   90  TYR90      -0.0009
     92  CD2       22.7740   35.5280    0.4090 C.ar   90  TYR90      -0.0009
     93  CE1       20.9490   34.2020   -1.1790 C.ar   90  TYR90       0.0417
     94  CE2       23.1920   34.4830   -0.3930 C.ar   90  TYR90       0.0417
     95  CZ        22.2750   33.8220   -1.1830 C.ar   90  TYR90       0.1957
     96  OH        22.6900   32.7820   -1.9820 O.3    90  TYR90      -0.2866
     97  N         19.4750   40.1260    1.4310 N.am   91  LYS91      -0.1977
     98  CA        18.9750   41.1290    2.3620 C.3    91  LYS91       0.1596
     99  C         17.4610   41.0220    2.4590 C.2    91  LYS91       0.2287
    100  O         16.8180   40.4030    1.6120 O.2    91  LYS91      -0.2864
    101  CB        19.3940   42.5360    1.9330 C.3    91  LYS91       0.0298
    102  CG        18.7750   43.0070    0.6300 C.3    91  LYS91       0.0038
    103  CD        19.3450   44.3540    0.2140 C.3    91  LYS91       0.0206
    104  CE        18.6560   44.8870   -1.0300 C.3    91  LYS91       0.1093
    105  NZ        19.2770   46.1550   -1.5030 N.3    91  LYS91      -0.1314
    106  N          8.3430   38.6330    3.6570 N.3   110  GLU110     -0.1231
    107  CA         8.6780   38.3280    2.2740 C.3   110  GLU110      0.1699
    108  C          7.8490   37.1460    1.7960 C.2   110  GLU110      0.2592
    109  O          7.6540   36.1710    2.5230 O.2   110  GLU110     -0.2718
    110  CB        10.1770   38.0690    2.0890 C.3   110  GLU110      0.0402
    111  CG        10.8090   37.0650    3.0190 C.3   110  GLU110      0.1161
    112  CD        12.3070   36.9700    2.7900 C.2   110  GLU110      0.3649
    113  OE1       13.0390   37.8670    3.2570 O.co2 110  GLU110     -0.2457
    114  OE2       12.7510   36.0110    2.1260 O.co2 110  GLU110     -0.2457
    115  N          7.3350   37.2550    0.5780 N.am  111  TYR111     -0.1976
    116  CA         6.6200   36.1530   -0.0430 C.3   111  TYR111      0.1639
    117  C          7.5460   34.9670   -0.2480 C.2   111  TYR111      0.2290
    118  O          8.7480   35.1340   -0.4700 O.2   111  TYR111     -0.2864
    119  CB         6.0220   36.5940   -1.3800 C.3   111  TYR111      0.0560
    120  CG         4.9120   37.6000   -1.2160 C.ar  111  TYR111     -0.0198
    121  CD1        3.6690   37.2170   -0.7310 C.ar  111  TYR111     -0.0009
    122  CD2        5.1140   38.9390   -1.5190 C.ar  111  TYR111     -0.0009
    123  CE1        2.6530   38.1370   -0.5660 C.ar  111  TYR111      0.0417
    124  CE2        4.1040   39.8660   -1.3600 C.ar  111  TYR111      0.0417
    125  CZ         2.8770   39.4600   -0.8810 C.ar  111  TYR111      0.1957
    126  OH         1.8690   40.3830   -0.7220 O.3   111  TYR111     -0.2866
    127  N          9.2580   32.8450   -2.2910 N.3   113  THR113     -0.1204
    128  CA         9.6390   32.9950   -3.6920 C.3   113  THR113      0.1979
    129  C          9.5170   31.7420   -4.5830 C.2   113  THR113      0.2459
    130  O          9.3290   31.8860   -5.7890 O.2   113  THR113     -0.2732
    131  CB        11.0820   33.5260   -3.7930 C.3   113  THR113      0.1783
    132  OG1       11.9090   32.8650   -2.8290 O.3   113  THR113     -0.2211
    133  CG2       11.1050   35.0180   -3.5100 C.3   113  THR113      0.0376
    134  N          9.6300   30.5210   -4.0170 N.am  114  PRO114     -0.2728
    135  CA         9.3580   29.3690   -4.8920 C.3   114  PRO114      0.1401
    136  C          7.9540   29.3470   -5.5030 C.2   114  PRO114      0.2269
    137  O          7.7490   28.6710   -6.5120 O.2   114  PRO114     -0.2865
    138  CB         9.5480   28.1750   -3.9560 C.3   114  PRO114      0.0296
    139  CG        10.5630   28.6420   -2.9880 C.3   114  PRO114      0.0237
    140  CD        10.2300   30.0870   -2.7400 C.3   114  PRO114      0.0939
    141  N          7.6050   30.0230   -9.2180 N.3   117  THR117     -0.1218
    142  CA         7.7670   28.9250  -10.1650 C.3   117  THR117      0.1862
    143  C          6.4480   28.1860  -10.3770 C.2   117  THR117      0.2287
    144  O          6.1040   27.8350  -11.5050 O.2   117  THR117     -0.2866
    145  CB         8.8540   27.9330   -9.6970 C.3   117  THR117      0.1770
    146  OG1       10.1330   28.5760   -9.7450 O.3   117  THR117     -0.2211
    147  CG2        8.8920   26.7040  -10.5920 C.3   117  THR117      0.0375
@<TRIPOS>BOND
     1    51    50    1
     2   144   143    2
     3    49    48    2
     4   147   145    1
     5   143   142    1
     6    50    52    1
     7    50    47    1
     8    48    47    1
     9    48    53   am
    10   142   145    1
    11   142   141    1
    12    47    46    1
    13    57    54    1
    14    57    58    1
    15   146   145    1
    16    59    58   ar
    17    59    61   ar
    18    54    53    1
    19    54    55    1
    20    58    60   ar
    21    61    63   ar
    22    60    62   ar
    23    63    62   ar
    24    55    56    2
    25    38    37    2
    26   137   136    2
    27    70    71    1
    28    70    69    1
    29   130   129    2
    30    37    36    1
    31   136   135    1
    32    39    36    1
    33    39    40    1
    34    71    72    2
    35    69    68    1
    36   135   134    1
    37   135   138    1
    38    64    65    1
    39    36    35    1
    40    74    72    1
    41   129   134   am
    42   129   128    1
    43    72    73    1
    44    40    41    1
    45     6     5    1
    46    65    68    1
    47    65    66    1
    48     5     2    1
    49   134   140    1
    50   138   139    1
    51   131   128    1
    52   131   133    1
    53   131   132    1
    54    44    43    1
    55    81    83   ar
    56    81    80   ar
    57   128   127    1
    58    83    84   ar
    59    43    45    1
    60    43    42    2
    61    66    75   am
    62    66    67    2
    63    41    42    1
    64    75    76    1
    65   139   140    1
    66     2     1    1
    67     2     3    1
    68    80    79    1
    69    80    82   ar
    70    84    82   ar
    71    79    76    1
    72    78    77    2
    73    96    95    1
    74     3     4    2
    75     3     7   am
    76    76    77    1
    77     7     8    1
    78   122   124   ar
    79   122   120   ar
    80   105   104    1
    81   119   120    1
    82   119   116    1
    83   124   125   ar
    84    77    85   am
    85   120   121   ar
    86    22    21    2
    87    95    93   ar
    88    95    94   ar
    89    93    91   ar
    90    20    21    1
    91    20    19    1
    92   104   103    1
    93   125   126    1
    94   125   123   ar
    95     8    11    1
    96     8     9    1
    97   121   123   ar
    98    21    23   am
    99    11    12    1
   100   118   117    2
   101    13    12   ar
   102    13    15   ar
   103    94    92   ar
   104    91    90   ar
   105   117   116    1
   106   116   115    1
   107    12    14   ar
   108    85    86    1
   109    15    17   ar
   110   103   102    1
   111    27    28    1
   112    27    24    1
   113    92    90   ar
   114    90    89    1
   115     9    10    2
   116    23    24    1
   117   115   108   am
   118    86    89    1
   119    86    87    1
   120   102   101    1
   121    29    28   ar
   122    29    31   ar
   123    14    16   ar
   124    28    30   ar
   125    17    16   ar
   126    17    18    1
   127    24    25    1
   128    31    33   ar
   129    30    32   ar
   130    97    87   am
   131    97    98    1
   132    87    88    2
   133   100    99    2
   134    33    32   ar
   135    33    34    1
   136   108   107    1
   137   108   109    2
   138   101    98    1
   139   110   107    1
   140   110   111    1
   141   114   112   ar
   142   107   106    1
   143    98    99    1
   144    25    26    2
   145   112   111    1
   146   112   113   ar
