@<TRIPOS>MOLECULE
tmp/5cfnB01.pdb
 95 95 0 0 0
SMALL
GASTEIGER

@<TRIPOS>ATOM
      1  N        -13.6240  -30.5680   -9.3530 N.3    14  GLY14      -0.1210
      2  CA       -14.2520  -31.5230   -8.4620 C.3    14  GLY14       0.1956
      3  C        -15.5990  -32.0300   -8.9370 C.2    14  GLY14       0.2611
      4  O        -16.2200  -32.8570   -8.2710 O.2    14  GLY14      -0.2717
      5  N        -16.0560  -31.5450  -10.0880 N.am   15  TYR15      -0.1976
      6  CA       -17.3720  -31.9330  -10.5870 C.3    15  TYR15       0.1639
      7  C        -17.5200  -31.7710  -12.0980 C.2    15  TYR15       0.2290
      8  O        -17.4210  -32.7440  -12.8450 O.2    15  TYR15      -0.2864
      9  CB       -18.4570  -31.1270   -9.8720 C.3    15  TYR15       0.0560
     10  CG       -19.8610  -31.6260  -10.1200 C.ar   15  TYR15      -0.0198
     11  CD1      -20.1710  -32.9730   -9.9910 C.ar   15  TYR15      -0.0009
     12  CD2      -20.8820  -30.7470  -10.4590 C.ar   15  TYR15      -0.0009
     13  CE1      -21.4540  -33.4350  -10.2110 C.ar   15  TYR15       0.0417
     14  CE2      -22.1700  -31.2000  -10.6780 C.ar   15  TYR15       0.0417
     15  CZ       -22.4500  -32.5440  -10.5520 C.ar   15  TYR15       0.1957
     16  OH       -23.7300  -33.0000  -10.7700 O.3    15  TYR15      -0.2866
     17  N        -12.4620  -40.2720   -8.1440 N.3    81  ARG81      -0.1245
     18  CA       -11.6730  -39.0690   -7.9250 C.3    81  ARG81       0.1563
     19  C        -10.5720  -39.3350   -6.9120 C.2    81  ARG81       0.2260
     20  O        -10.8380  -39.4930   -5.7210 O.2    81  ARG81      -0.2867
     21  CB       -12.5590  -37.9150   -7.4540 C.3    81  ARG81       0.0307
     22  CG       -11.7930  -36.6270   -7.2110 C.3    81  ARG81       0.0489
     23  CD       -12.7200  -35.4680   -6.8890 C.3    81  ARG81       0.2205
     24  NE       -11.9750  -34.2440   -6.6100 N.pl3  81  ARG81      -0.0865
     25  CZ       -11.4810  -33.4390   -7.5460 C.cat  81  ARG81       0.5346
     26  NH1      -11.6480  -33.7300   -8.8280 N.pl3  81  ARG81       0.1354
     27  NH2      -10.8160  -32.3450   -7.2010 N.pl3  81  ARG81       0.1354
     28  N        -12.1860  -43.1610   -3.9270 N.3    85  PHE85      -0.1227
     29  CA       -13.6260  -43.3920   -3.8680 C.3    85  PHE85       0.1736
     30  C        -14.2700  -43.5070   -5.2470 C.2    85  PHE85       0.2595
     31  O        -13.8710  -42.8240   -6.1900 O.2    85  PHE85      -0.2718
     32  CB       -14.3040  -42.2530   -3.1000 C.3    85  PHE85       0.0547
     33  CG       -14.3010  -42.4300   -1.6090 C.ar   85  PHE85      -0.0202
     34  CD1      -14.3000  -43.6930   -1.0430 C.ar   85  PHE85      -0.0042
     35  CD2      -14.2930  -41.3250   -0.7730 C.ar   85  PHE85      -0.0042
     36  CE1      -14.2960  -43.8510    0.3300 C.ar   85  PHE85      -0.0003
     37  CE2      -14.2880  -41.4760    0.6000 C.ar   85  PHE85      -0.0003
     38  CZ       -14.2900  -42.7410    1.1530 C.ar   85  PHE85      -0.0000
     39  N        -15.2720  -44.3770   -5.3510 N.am   86  LEU86      -0.1966
     40  CA       -16.0150  -44.5730   -6.5920 C.3    86  LEU86       0.1728
     41  C        -17.4060  -43.9740   -6.4530 C.2    86  LEU86       0.2616
     42  O        -18.1470  -44.3110   -5.5280 O.2    86  LEU86      -0.2715
     43  CB       -16.1020  -46.0590   -6.9490 C.3    86  LEU86       0.0311
     44  CG       -16.9830  -46.4820   -8.1290 C.3    86  LEU86       0.0022
     45  CD1      -16.3620  -46.1250   -9.4680 C.3    86  LEU86       0.0001
     46  CD2      -17.2610  -47.9760   -8.0490 C.3    86  LEU86       0.0001
     47  N        -17.7560  -43.0740   -7.3640 N.am   87  ARG87      -0.1963
     48  CA       -19.0450  -42.4060   -7.2880 C.3    87  ARG87       0.1729
     49  C        -19.9050  -42.6530   -8.5180 C.2    87  ARG87       0.2616
     50  O        -19.4410  -43.2050   -9.5130 O.2    87  ARG87      -0.2715
     51  CB       -18.8460  -40.9070   -7.0950 C.3    87  ARG87       0.0348
     52  CG       -17.6060  -40.5380   -6.3140 C.3    87  ARG87       0.0492
     53  CD       -17.1170  -39.1840   -6.7550 C.3    87  ARG87       0.2205
     54  NE       -16.1450  -38.6150   -5.8310 N.pl3  87  ARG87      -0.0865
     55  CZ       -15.8860  -37.3150   -5.7560 C.cat  87  ARG87       0.5346
     56  NH1      -14.9920  -36.8570   -4.8910 N.pl3  87  ARG87       0.1354
     57  NH2      -16.5390  -36.4680   -6.5410 N.pl3  87  ARG87       0.1354
     58  N        -21.1650  -42.2370   -8.4350 N.am   88  HIS88      -0.1959
     59  CA       -22.0970  -42.3380   -9.5520 C.3    88  HIS88       0.1787
     60  C        -22.7490  -40.9840   -9.7910 C.2    88  HIS88       0.2620
     61  O        -23.6420  -40.5800   -9.0470 O.2    88  HIS88      -0.2715
     62  CB       -23.1670  -43.4000   -9.2840 C.3    88  HIS88       0.0785
     63  CG       -22.6100  -44.7490   -8.9220 C.ar   88  HIS88       0.0821
     64  ND1      -22.2770  -45.6840   -9.8630 N.ar   88  HIS88      -0.2267
     65  CD2      -22.3430  -45.2990   -7.7110 C.ar   88  HIS88       0.1154
     66  CE1      -21.8160  -46.7740   -9.2530 C.ar   88  HIS88       0.1986
     67  NE2      -21.8490  -46.5610   -7.9570 N.ar   88  HIS88      -0.2212
     68  N        -22.3110  -40.2880  -10.8340 N.am   89  TYR89      -0.1960
     69  CA       -22.8340  -38.9600  -11.1260 C.3    89  TYR89       0.1771
     70  C        -24.1340  -39.0380  -11.9130 C.2    89  TYR89       0.2619
     71  O        -24.1750  -39.5790  -13.0180 O.2    89  TYR89      -0.2715
     72  CB       -21.8070  -38.1310  -11.8970 C.3    89  TYR89       0.0574
     73  CG       -20.5580  -37.7980  -11.1120 C.ar   89  TYR89      -0.0198
     74  CD1      -20.6150  -36.9720   -9.9960 C.ar   89  TYR89      -0.0009
     75  CD2      -19.3220  -38.3020  -11.4920 C.ar   89  TYR89      -0.0009
     76  CE1      -19.4750  -36.6610   -9.2790 C.ar   89  TYR89       0.0417
     77  CE2      -18.1770  -37.9960  -10.7800 C.ar   89  TYR89       0.0417
     78  CZ       -18.2600  -37.1750   -9.6750 C.ar   89  TYR89       0.1957
     79  OH       -17.1240  -36.8650   -8.9620 O.3    89  TYR89      -0.2866
     80  N        -25.1950  -38.4930  -11.3300 N.am   90  LYS90      -0.1977
     81  CA       -26.5000  -38.4710  -11.9730 C.3    90  LYS90       0.1596
     82  C        -27.1120  -37.0780  -11.8760 C.2    90  LYS90       0.2287
     83  O        -26.7710  -36.2990  -10.9860 O.2    90  LYS90      -0.2864
     84  CB       -27.4280  -39.5130  -11.3420 C.3    90  LYS90       0.0298
     85  CG       -27.7610  -39.2490   -9.8820 C.3    90  LYS90       0.0038
     86  CD       -28.1070  -40.5360   -9.1480 C.3    90  LYS90       0.0206
     87  CE       -29.2470  -41.2740   -9.8290 C.3    90  LYS90       0.1093
     88  NZ       -29.9870  -42.1390   -8.8700 N.3    90  LYS90      -0.1314
     89  N        -24.0910  -25.6220   -6.0170 N.3   112  THR112     -0.1218
     90  CA       -23.8970  -26.0100   -4.6190 C.3   112  THR112      0.1862
     91  C        -22.8290  -25.2250   -3.8300 C.2   112  THR112      0.2287
     92  O        -22.9820  -25.0390   -2.6230 O.2   112  THR112     -0.2866
     93  CB       -23.5680  -27.5120   -4.5180 C.3   112  THR112      0.1770
     94  OG1      -22.7440  -27.8960   -5.6230 O.3   112  THR112     -0.2211
     95  CG2      -24.8460  -28.3320   -4.5560 C.3   112  THR112      0.0375
@<TRIPOS>BOND
     1    71    70    2
     2     8     7    2
     3     7     6    1
     4    81    82    1
     5    81    84    1
     6    81    80    1
     7    70    80   am
     8    70    69    1
     9    72    69    1
    10    72    73    1
    11    82    83    2
    12    75    73   ar
    13    75    77   ar
    14    84    85    1
    15    69    68    1
    16    73    74   ar
    17    68    60   am
    18    77    78   ar
    19    16    15    1
    20    14    15   ar
    21    14    12   ar
    22     6     5    1
    23     6     9    1
    24    15    13   ar
    25    12    10   ar
    26    13    11   ar
    27    10    11   ar
    28    10     9    1
    29     5     3   am
    30    74    76   ar
    31    85    86    1
    32    64    66   ar
    33    64    63   ar
    34    87    86    1
    35    87    88    1
    36    60    59    1
    37    60    61    2
    38    78    76   ar
    39    78    79    1
    40    59    62    1
    41    59    58    1
    42    50    49    2
    43    45    44    1
    44     1     2    1
    45    62    63    1
    46    66    67   ar
    47     3     2    1
    48     3     4    2
    49    63    65   ar
    50    26    25    1
    51    49    58   am
    52    49    48    1
    53    17    18    1
    54    44    46    1
    55    44    43    1
    56    67    65   ar
    57    18    21    1
    58    18    19    1
    59    25    27    1
    60    25    24    2
    61    21    22    1
    62    47    48    1
    63    47    41   am
    64    48    51    1
    65    22    23    1
    66    51    52    1
    67    43    40    1
    68    19    20    2
    69    23    24    1
    70    53    52    1
    71    53    54    1
    72    40    41    1
    73    40    39    1
    74    57    55    1
    75    41    42    2
    76    31    30    2
    77    89    90    1
    78    54    55    2
    79    55    56    1
    80    94    93    1
    81    39    30   am
    82    30    29    1
    83    90    93    1
    84    90    91    1
    85    95    93    1
    86    28    29    1
    87    29    32    1
    88    91    92    2
    89    32    33    1
    90    33    34   ar
    91    33    35   ar
    92    34    36   ar
    93    35    37   ar
    94    36    38   ar
    95    37    38   ar
