@<TRIPOS>MOLECULE
tmp/5cfnB00.pdb
 127 124 0 0 0
SMALL
GASTEIGER

@<TRIPOS>ATOM
      1  N        -13.8620  -21.1020   -5.0520 N.3     7  LEU7       -0.1245
      2  CA       -15.1240  -21.8290   -5.0910 C.3     7  LEU7        0.1561
      3  C        -15.4440  -22.2870   -6.5080 C.2     7  LEU7        0.2260
      4  O        -16.0980  -23.3100   -6.7080 O.2     7  LEU7       -0.2867
      5  CB       -16.2600  -20.9580   -4.5520 C.3     7  LEU7        0.0270
      6  CG       -16.4520  -20.9280   -3.0350 C.3     7  LEU7        0.0019
      7  CD1      -17.7500  -20.2210   -2.6750 C.3     7  LEU7        0.0001
      8  CD2      -16.4300  -22.3350   -2.4620 C.3     7  LEU7        0.0001
      9  N        -12.8860  -25.3430   -7.6370 N.3    10  SER10      -0.1202
     10  CA       -13.3150  -26.6030   -7.0400 C.3    10  SER10       0.2020
     11  C        -14.5130  -27.1800   -7.7820 C.2    10  SER10       0.2618
     12  O        -14.5720  -28.3810   -8.0380 O.2    10  SER10      -0.2717
     13  CB       -13.6560  -26.4140   -5.5600 C.3    10  SER10       0.2103
     14  OG       -14.9620  -25.8910   -5.3920 O.3    10  SER10      -0.2182
     15  N        -15.4680  -26.3150   -8.1100 N.am   11  TYR11      -0.1975
     16  CA       -16.6600  -26.7130   -8.8520 C.3    11  TYR11       0.1639
     17  C        -16.2990  -27.3900  -10.1720 C.2    11  TYR11       0.2290
     18  O        -16.9300  -28.3670  -10.5720 O.2    11  TYR11      -0.2864
     19  CB       -17.5530  -25.4970   -9.1120 C.3    11  TYR11       0.0560
     20  CG       -18.9910  -25.8430   -9.4310 C.ar   11  TYR11      -0.0198
     21  CD1      -19.5190  -27.0820   -9.0950 C.ar   11  TYR11      -0.0009
     22  CD2      -19.8240  -24.9240  -10.0570 C.ar   11  TYR11      -0.0009
     23  CE1      -20.8330  -27.4010   -9.3800 C.ar   11  TYR11       0.0417
     24  CE2      -21.1400  -25.2330  -10.3460 C.ar   11  TYR11       0.0417
     25  CZ       -21.6390  -26.4720  -10.0050 C.ar   11  TYR11       0.1957
     26  OH       -22.9490  -26.7860  -10.2900 O.3    11  TYR11      -0.2866
     27  N        -13.6240  -30.5680   -9.3530 N.3    14  GLY14      -0.1210
     28  CA       -14.2520  -31.5230   -8.4620 C.3    14  GLY14       0.1956
     29  C        -15.5990  -32.0300   -8.9370 C.2    14  GLY14       0.2611
     30  O        -16.2200  -32.8570   -8.2710 O.2    14  GLY14      -0.2717
     31  N        -16.0560  -31.5450  -10.0880 N.am   15  TYR15      -0.1976
     32  CA       -17.3720  -31.9330  -10.5870 C.3    15  TYR15       0.1639
     33  C        -17.5200  -31.7710  -12.0980 C.2    15  TYR15       0.2290
     34  O        -17.4210  -32.7440  -12.8450 O.2    15  TYR15      -0.2864
     35  CB       -18.4570  -31.1270   -9.8720 C.3    15  TYR15       0.0560
     36  CG       -19.8610  -31.6260  -10.1200 C.ar   15  TYR15      -0.0198
     37  CD1      -20.1710  -32.9730   -9.9910 C.ar   15  TYR15      -0.0009
     38  CD2      -20.8820  -30.7470  -10.4590 C.ar   15  TYR15      -0.0009
     39  CE1      -21.4540  -33.4350  -10.2110 C.ar   15  TYR15       0.0417
     40  CE2      -22.1700  -31.2000  -10.6780 C.ar   15  TYR15       0.0417
     41  CZ       -22.4500  -32.5440  -10.5520 C.ar   15  TYR15       0.1957
     42  OH       -23.7300  -33.0000  -10.7700 O.3    15  TYR15      -0.2866
     43  N        -12.4620  -40.2720   -8.1440 N.3    81  ARG81      -0.1245
     44  CA       -11.6730  -39.0690   -7.9250 C.3    81  ARG81       0.1563
     45  C        -10.5720  -39.3350   -6.9120 C.2    81  ARG81       0.2260
     46  O        -10.8380  -39.4930   -5.7210 O.2    81  ARG81      -0.2867
     47  CB       -12.5590  -37.9150   -7.4540 C.3    81  ARG81       0.0307
     48  CG       -11.7930  -36.6270   -7.2110 C.3    81  ARG81       0.0489
     49  CD       -12.7200  -35.4680   -6.8890 C.3    81  ARG81       0.2205
     50  NE       -11.9750  -34.2440   -6.6100 N.pl3  81  ARG81      -0.0865
     51  CZ       -11.4810  -33.4390   -7.5460 C.cat  81  ARG81       0.5346
     52  NH1      -11.6480  -33.7300   -8.8280 N.pl3  81  ARG81       0.1354
     53  NH2      -10.8160  -32.3450   -7.2010 N.pl3  81  ARG81       0.1354
     54  N        -12.1860  -43.1610   -3.9270 N.3    85  PHE85      -0.1241
     55  CA       -13.6260  -43.3920   -3.8680 C.3    85  PHE85       0.1605
     56  C        -14.2700  -43.5070   -5.2470 C.2    85  PHE85       0.2264
     57  O        -13.8710  -42.8240   -6.1900 O.2    85  PHE85      -0.2867
     58  CB       -14.3040  -42.2530   -3.1000 C.3    85  PHE85       0.0534
     59  CG       -14.3010  -42.4300   -1.6090 C.ar   85  PHE85      -0.0203
     60  CD1      -14.3000  -43.6930   -1.0430 C.ar   85  PHE85      -0.0042
     61  CD2      -14.2930  -41.3250   -0.7730 C.ar   85  PHE85      -0.0042
     62  CE1      -14.2960  -43.8510    0.3300 C.ar   85  PHE85      -0.0003
     63  CE2      -14.2880  -41.4760    0.6000 C.ar   85  PHE85      -0.0003
     64  CZ       -14.2900  -42.7410    1.1530 C.ar   85  PHE85      -0.0000
     65  N        -17.7560  -43.0740   -7.3640 N.3    87  ARG87      -0.1231
     66  CA       -19.0450  -42.4060   -7.2880 C.3    87  ARG87       0.1694
     67  C        -19.9050  -42.6530   -8.5180 C.2    87  ARG87       0.2592
     68  O        -19.4410  -43.2050   -9.5130 O.2    87  ARG87      -0.2718
     69  CB       -18.8460  -40.9070   -7.0950 C.3    87  ARG87       0.0321
     70  CG       -17.6060  -40.5380   -6.3140 C.3    87  ARG87       0.0489
     71  CD       -17.1170  -39.1840   -6.7550 C.3    87  ARG87       0.2205
     72  NE       -16.1450  -38.6150   -5.8310 N.pl3  87  ARG87      -0.0865
     73  CZ       -15.8860  -37.3150   -5.7560 C.cat  87  ARG87       0.5346
     74  NH1      -14.9920  -36.8570   -4.8910 N.pl3  87  ARG87       0.1354
     75  NH2      -16.5390  -36.4680   -6.5410 N.pl3  87  ARG87       0.1354
     76  N        -21.1650  -42.2370   -8.4350 N.am   88  HIS88      -0.1962
     77  CA       -22.0970  -42.3380   -9.5520 C.3    88  HIS88       0.1787
     78  C        -22.7490  -40.9840   -9.7910 C.2    88  HIS88       0.2620
     79  O        -23.6420  -40.5800   -9.0470 O.2    88  HIS88      -0.2715
     80  CB       -23.1670  -43.4000   -9.2840 C.3    88  HIS88       0.0785
     81  CG       -22.6100  -44.7490   -8.9220 C.ar   88  HIS88       0.0821
     82  ND1      -22.2770  -45.6840   -9.8630 N.ar   88  HIS88      -0.2267
     83  CD2      -22.3430  -45.2990   -7.7110 C.ar   88  HIS88       0.1154
     84  CE1      -21.8160  -46.7740   -9.2530 C.ar   88  HIS88       0.1986
     85  NE2      -21.8490  -46.5610   -7.9570 N.ar   88  HIS88      -0.2212
     86  N        -22.3110  -40.2880  -10.8340 N.am   89  TYR89      -0.1974
     87  CA       -22.8340  -38.9600  -11.1260 C.3    89  TYR89       0.1639
     88  C        -24.1340  -39.0380  -11.9130 C.2    89  TYR89       0.2290
     89  O        -24.1750  -39.5790  -13.0180 O.2    89  TYR89      -0.2864
     90  CB       -21.8070  -38.1310  -11.8970 C.3    89  TYR89       0.0560
     91  CG       -20.5580  -37.7980  -11.1120 C.ar   89  TYR89      -0.0198
     92  CD1      -20.6150  -36.9720   -9.9960 C.ar   89  TYR89      -0.0009
     93  CD2      -19.3220  -38.3020  -11.4920 C.ar   89  TYR89      -0.0009
     94  CE1      -19.4750  -36.6610   -9.2790 C.ar   89  TYR89       0.0417
     95  CE2      -18.1770  -37.9960  -10.7800 C.ar   89  TYR89       0.0417
     96  CZ       -18.2600  -37.1750   -9.6750 C.ar   89  TYR89       0.1957
     97  OH       -17.1240  -36.8650   -8.9620 O.3    89  TYR89      -0.2866
     98  N        -29.6590  -27.5790  -12.4680 N.3   109  GLU109     -0.1245
     99  CA       -28.8900  -27.8290  -11.2590 C.3   109  GLU109      0.1567
    100  C        -28.5480  -26.5220  -10.5660 C.2   109  GLU109      0.2260
    101  O        -28.3840  -25.4850  -11.2110 O.2   109  GLU109     -0.2867
    102  CB       -27.6040  -28.5940  -11.5770 C.3   109  GLU109      0.0388
    103  CG       -27.7150  -30.1020  -11.4580 C.3   109  GLU109      0.1160
    104  CD       -26.3680  -30.7530  -11.2070 C.2   109  GLU109      0.3649
    105  OE1      -25.4700  -30.0690  -10.6700 O.co2 109  GLU109     -0.2457
    106  OE2      -26.2030  -31.9430  -11.5480 O.co2 109  GLU109     -0.2457
    107  N        -24.0910  -25.6220   -6.0170 N.3   112  THR112     -0.1204
    108  CA       -23.8970  -26.0100   -4.6190 C.3   112  THR112      0.1979
    109  C        -22.8290  -25.2250   -3.8300 C.2   112  THR112      0.2459
    110  O        -22.9820  -25.0390   -2.6230 O.2   112  THR112     -0.2732
    111  CB       -23.5680  -27.5120   -4.5180 C.3   112  THR112      0.1783
    112  OG1      -22.7440  -27.8960   -5.6230 O.3   112  THR112     -0.2211
    113  CG2      -24.8460  -28.3320   -4.5560 C.3   112  THR112      0.0376
    114  N        -21.7450  -24.7630   -4.4880 N.am  113  PRO113     -0.2728
    115  CA       -20.8420  -23.9280   -3.6870 C.3   113  PRO113      0.1401
    116  C        -21.4110  -22.5520   -3.3240 C.2   113  PRO113      0.2269
    117  O        -20.7780  -21.8260   -2.5560 O.2   113  PRO113     -0.2865
    118  CB       -19.6170  -23.7780   -4.5970 C.3   113  PRO113      0.0296
    119  CG       -19.6520  -24.9840   -5.4620 C.3   113  PRO113      0.0237
    120  CD       -21.1050  -25.1780   -5.7490 C.3   113  PRO113      0.0939
    121  N        -22.2910  -22.1590    0.3840 N.3   116  THR116     -0.1218
    122  CA       -21.1360  -21.7740    1.1840 C.3   116  THR116      0.1862
    123  C        -21.0360  -20.2530    1.2760 C.2   116  THR116      0.2287
    124  O        -20.6130  -19.7070    2.2940 O.2   116  THR116     -0.2866
    125  CB       -19.8320  -22.3490    0.5950 C.3   116  THR116      0.1770
    126  OG1      -19.9160  -23.7790    0.5570 O.3   116  THR116     -0.2211
    127  CG2      -18.6290  -21.9360    1.4290 C.3   116  THR116      0.0375
@<TRIPOS>BOND
     1    89    88    2
     2    34    33    2
     3    98    99    1
     4    33    32    1
     5    88    87    1
     6    90    87    1
     7    90    91    1
     8   102   103    1
     9   102    99    1
    10   106   104   ar
    11    93    91   ar
    12    93    95   ar
    13   103   104    1
    14    99   100    1
    15   101   100    2
    16   104   105   ar
    17    87    86    1
    18    91    92   ar
    19    86    78   am
    20    95    96   ar
    21    42    41    1
    22    40    41   ar
    23    40    38   ar
    24    32    31    1
    25    32    35    1
    26    18    17    2
    27    41    39   ar
    28    38    36   ar
    29    24    22   ar
    30    24    25   ar
    31    26    25    1
    32    39    37   ar
    33    17    16    1
    34    36    37   ar
    35    36    35    1
    36    31    29   am
    37    22    20   ar
    38    25    23   ar
    39    92    94   ar
    40    82    84   ar
    41    82    81   ar
    42    78    77    1
    43    78    79    2
    44    96    94   ar
    45    96    97    1
    46    77    80    1
    47    77    76    1
    48    68    67    2
    49    20    19    1
    50    20    21   ar
    51    23    21   ar
    52    27    28    1
    53    80    81    1
    54    84    85   ar
    55    19    16    1
    56    29    28    1
    57    29    30    2
    58    81    83   ar
    59    16    15    1
    60    52    51    1
    61    67    76   am
    62    67    66    1
    63    43    44    1
    64    15    11   am
    65    12    11    2
    66    85    83   ar
    67    44    47    1
    68    44    45    1
    69    11    10    1
    70     9    10    1
    71    51    53    1
    72    51    50    2
    73    47    48    1
    74    65    66    1
    75    66    69    1
    76    48    49    1
    77    69    70    1
    78    10    13    1
    79    45    46    2
    80    49    50    1
    81    71    70    1
    82    71    72    1
    83     4     3    2
    84    75    73    1
    85     3     2    1
    86    57    56    2
    87   107   108    1
    88    72    73    2
    89    73    74    1
    90   120   119    1
    91   120   114    1
    92   112   111    1
    93    13    14    1
    94   119   118    1
    95    56    55    1
    96     2     1    1
    97     2     5    1
    98   108   111    1
    99   108   109    1
   100   118   115    1
   101   113   111    1
   102     5     6    1
   103   114   109   am
   104   114   115    1
   105    54    55    1
   106    55    58    1
   107   109   110    2
   108   115   116    1
   109   116   117    2
   110    58    59    1
   111     6     7    1
   112     6     8    1
   113    59    60   ar
   114    59    61   ar
   115    60    62   ar
   116    61    63   ar
   117    62    64   ar
   118   121   122    1
   119   126   125    1
   120   125   122    1
   121   125   127    1
   122    63    64   ar
   123   122   123    1
   124   123   124    2
