@<TRIPOS>MOLECULE
tmp/5cfqA00.pdb
 144 141 0 0 0
SMALL
GASTEIGER

@<TRIPOS>ATOM
      1  N         10.6720   72.4660  119.6990 N.3     6  LEU6       -0.1245
      2  CA        11.4470   73.6980  119.7790 C.3     6  LEU6        0.1561
      3  C         11.2470   74.5550  118.5320 C.2     6  LEU6        0.2260
      4  O         11.2320   75.7840  118.6060 O.2     6  LEU6       -0.2867
      5  CB        12.9320   73.3840  119.9790 C.3     6  LEU6        0.0270
      6  CG        13.3120   72.7360  121.3140 C.3     6  LEU6        0.0019
      7  CD1       14.8190   72.5950  121.4340 C.3     6  LEU6        0.0001
      8  CD2       12.7620   73.5410  122.4810 C.3     6  LEU6        0.0001
      9  N          7.5710   75.9880  118.7450 N.3     9  SER9       -0.1202
     10  CA         7.4960   77.0370  119.7530 C.3     9  SER9        0.2020
     11  C          8.1540   78.3070  119.2300 C.2     9  SER9        0.2618
     12  O          7.6410   79.4080  119.4260 O.2     9  SER9       -0.2717
     13  CB         8.1530   76.5850  121.0610 C.3     9  SER9        0.2103
     14  OG         9.5200   76.9520  121.1050 O.3     9  SER9       -0.2182
     15  N          9.2710   78.1430  118.5300 N.am   10  TYR10      -0.1975
     16  CA         9.9930   79.2720  117.9550 C.3    10  TYR10       0.1639
     17  C          9.1200   80.0110  116.9440 C.2    10  TYR10       0.2290
     18  O          9.2640   81.2160  116.7490 O.2    10  TYR10      -0.2864
     19  CB        11.2840   78.7960  117.2900 C.3    10  TYR10       0.0560
     20  CG        12.2540   79.9050  116.9450 C.ar   10  TYR10      -0.0198
     21  CD1       12.3210   81.0600  117.7140 C.ar   10  TYR10      -0.0009
     22  CD2       13.1060   79.7940  115.8540 C.ar   10  TYR10      -0.0009
     23  CE1       13.2100   82.0730  117.4050 C.ar   10  TYR10       0.0417
     24  CE2       13.9970   80.8000  115.5370 C.ar   10  TYR10       0.0417
     25  CZ        14.0450   81.9380  116.3150 C.ar   10  TYR10       0.1957
     26  OH        14.9310   82.9430  116.0000 O.3    10  TYR10      -0.2866
     27  N          5.3490   81.0010  119.0760 N.3    13  GLY13      -0.1210
     28  CA         5.5940   81.9100  120.1770 C.3    13  GLY13       0.1956
     29  C          6.4360   83.1190  119.8220 C.2    13  GLY13       0.2611
     30  O          6.7500   83.9310  120.6930 O.2    13  GLY13      -0.2717
     31  N          6.7980   83.2520  118.5500 N.am   14  TYR14      -0.1976
     32  CA         7.6810   84.3390  118.1400 C.3    14  TYR14       0.1639
     33  C          7.5380   84.7120  116.6660 C.2    14  TYR14       0.2290
     34  O          6.8420   85.6660  116.3210 O.2    14  TYR14      -0.2864
     35  CB         9.1310   83.9590  118.4350 C.3    14  TYR14       0.0560
     36  CG        10.1180   85.1010  118.3580 C.ar   14  TYR14      -0.0198
     37  CD1        9.8680   86.3060  119.0000 C.ar   14  TYR14      -0.0009
     38  CD2       11.3140   84.9620  117.6660 C.ar   14  TYR14      -0.0009
     39  CE1       10.7740   87.3480  118.9390 C.ar   14  TYR14       0.0417
     40  CE2       12.2260   85.9970  117.6020 C.ar   14  TYR14       0.0417
     41  CZ        11.9510   87.1870  118.2410 C.ar   14  TYR14       0.1957
     42  OH        12.8560   88.2220  118.1790 O.3    14  TYR14      -0.2866
     43  N          0.4090   87.9990  126.0730 N.3    80  ARG80      -0.1245
     44  CA         0.5010   86.5510  125.8920 C.3    80  ARG80       0.1563
     45  C          0.7090   85.8060  127.2070 C.2    80  ARG80       0.2260
     46  O          1.5250   86.2060  128.0370 O.2    80  ARG80      -0.2867
     47  CB         1.6390   86.2030  124.9290 C.3    80  ARG80       0.0307
     48  CG         1.2580   86.2370  123.4600 C.3    80  ARG80       0.0489
     49  CD         2.3680   85.6380  122.6090 C.3    80  ARG80       0.2205
     50  NE         2.1010   84.2480  122.2490 N.pl3  80  ARG80      -0.0865
     51  CZ         2.8580   83.2210  122.6280 C.cat  80  ARG80       0.5346
     52  NH1        3.9270   83.4250  123.3850 N.pl3  80  ARG80       0.1354
     53  NH2        2.5480   81.9890  122.2510 N.pl3  80  ARG80       0.1354
     54  N          0.3170   87.4740  130.5650 N.3    83  VAL83      -0.1245
     55  CA         1.2330   88.5960  130.7230 C.3    83  VAL83       0.1561
     56  C          0.8600   89.7430  129.7890 C.2    83  VAL83       0.2260
     57  O          0.9410   89.6080  128.5670 O.2    83  VAL83      -0.2867
     58  CB         2.6880   88.1760  130.4550 C.3    83  VAL83       0.0252
     59  CG1        3.6330   89.3200  130.7810 C.3    83  VAL83       0.0019
     60  CG2        3.0400   86.9410  131.2670 C.3    83  VAL83       0.0019
     61  N          3.6140   91.9350  126.4990 N.3    86  ARG86      -0.1231
     62  CA         4.9770   91.4270  126.4180 C.3    86  ARG86       0.1694
     63  C          5.7240   92.1720  125.3220 C.2    86  ARG86       0.2592
     64  O          5.1530   92.4940  124.2810 O.2    86  ARG86      -0.2718
     65  CB         4.9920   89.9210  126.1470 C.3    86  ARG86       0.0321
     66  CG         4.9030   89.0690  127.3990 C.3    86  ARG86       0.0489
     67  CD         4.9680   87.5820  127.0760 C.3    86  ARG86       0.2205
     68  NE         6.2540   87.1880  126.5080 N.pl3  86  ARG86      -0.0865
     69  CZ         6.5770   85.9370  126.1950 C.cat  86  ARG86       0.5346
     70  NH1        5.7090   84.9550  126.3970 N.pl3  86  ARG86       0.1354
     71  NH2        7.7690   85.6640  125.6830 N.pl3  86  ARG86       0.1354
     72  N          6.9980   92.4580  125.5630 N.am   87  HIS87      -0.1962
     73  CA         7.7740   93.2470  124.6200 C.3    87  HIS87       0.1787
     74  C          8.5450   92.3470  123.6630 C.2    87  HIS87       0.2620
     75  O          9.2720   91.4460  124.0820 O.2    87  HIS87      -0.2715
     76  CB         8.7280   94.1850  125.3620 C.3    87  HIS87       0.0785
     77  CG         8.0710   95.4310  125.8680 C.ar   87  HIS87       0.0821
     78  ND1        8.7740   96.5860  126.1450 N.ar   87  HIS87      -0.2267
     79  CD2        6.7750   95.7060  126.1460 C.ar   87  HIS87       0.1154
     80  CE1        7.9390   97.5150  126.5720 C.ar   87  HIS87       0.1986
     81  NE2        6.7190   97.0070  126.5820 N.ar   87  HIS87      -0.2212
     82  N          8.3690   92.6020  122.3710 N.am   88  TYR88      -0.1960
     83  CA         9.0620   91.8560  121.3330 C.3    88  TYR88       0.1771
     84  C          9.8500   92.8070  120.4410 C.2    88  TYR88       0.2619
     85  O          9.2910   93.4340  119.5420 O.2    88  TYR88      -0.2715
     86  CB         8.0680   91.0460  120.4990 C.3    88  TYR88       0.0574
     87  CG         7.3190   89.9920  121.2870 C.ar   88  TYR88      -0.0198
     88  CD1        7.8980   88.7610  121.5640 C.ar   88  TYR88      -0.0009
     89  CD2        6.0320   90.2300  121.7540 C.ar   88  TYR88      -0.0009
     90  CE1        7.2160   87.7970  122.2810 C.ar   88  TYR88       0.0417
     91  CE2        5.3430   89.2690  122.4750 C.ar   88  TYR88       0.0417
     92  CZ         5.9420   88.0550  122.7350 C.ar   88  TYR88       0.1957
     93  OH         5.2660   87.0930  123.4500 O.3    88  TYR88      -0.2866
     94  N         11.1460   92.9250  120.7060 N.am   89  LYS89      -0.1977
     95  CA        11.9990   93.8280  119.9440 C.3    89  LYS89       0.1596
     96  C         13.2360   93.1150  119.4100 C.2    89  LYS89       0.2287
     97  O         13.5450   91.9950  119.8140 O.2    89  LYS89      -0.2864
     98  CB        12.4000   95.0260  120.8070 C.3    89  LYS89       0.0298
     99  CG        13.2450   94.6700  122.0170 C.3    89  LYS89       0.0038
    100  CD        13.4990   95.8950  122.8750 C.3    89  LYS89       0.0206
    101  CE        13.9300   95.5110  124.2800 C.3    89  LYS89       0.1093
    102  NZ        13.9590   96.6920  125.1920 N.3    89  LYS89      -0.1314
    103  N         19.7550   87.7240  115.0760 N.3   108  GLU108     -0.1231
    104  CA        19.2810   87.0280  116.2670 C.3   108  GLU108      0.1699
    105  C         19.7580   85.5860  116.2490 C.2   108  GLU108      0.2592
    106  O         19.7850   84.9480  115.1980 O.2   108  GLU108     -0.2718
    107  CB        17.7520   87.0500  116.3520 C.3   108  GLU108      0.0402
    108  CG        17.1390   88.4210  116.5140 C.3   108  GLU108      0.1161
    109  CD        15.6320   88.3710  116.6670 C.2   108  GLU108      0.3649
    110  OE1       15.1030   87.3070  117.0550 O.co2 108  GLU108     -0.2457
    111  OE2       14.9750   89.3990  116.3950 O.co2 108  GLU108     -0.2457
    112  N         20.1190   85.0630  117.4130 N.am  109  TYR109     -0.1976
    113  CA        20.4170   83.6460  117.5170 C.3   109  TYR109      0.1639
    114  C         19.1090   82.8930  117.6620 C.2   109  TYR109      0.2290
    115  O         18.1330   83.4320  118.1860 O.2   109  TYR109     -0.2864
    116  CB        21.3360   83.3550  118.7030 C.3   109  TYR109      0.0560
    117  CG        22.7670   83.7740  118.4770 C.ar  109  TYR109     -0.0198
    118  CD1       23.6060   83.0270  117.6630 C.ar  109  TYR109     -0.0009
    119  CD2       23.2780   84.9180  119.0730 C.ar  109  TYR109     -0.0009
    120  CE1       24.9150   83.4060  117.4470 C.ar  109  TYR109      0.0417
    121  CE2       24.5870   85.3050  118.8650 C.ar  109  TYR109      0.0417
    122  CZ        25.3990   84.5460  118.0510 C.ar  109  TYR109      0.1957
    123  OH        26.7020   84.9300  117.8430 O.3   109  TYR109     -0.2866
    124  N         17.1130   81.0320  119.6430 N.3   111  THR111     -0.1204
    125  CA        17.0790   80.7840  121.0840 C.3   111  THR111      0.1979
    126  C         16.7250   79.3480  121.5130 C.2   111  THR111      0.2459
    127  O         17.2500   78.8800  122.5230 O.2   111  THR111     -0.2732
    128  CB        16.1010   81.7520  121.7700 C.3   111  THR111      0.1783
    129  OG1       14.9790   81.9780  120.9100 O.3   111  THR111     -0.2211
    130  CG2       16.7780   83.0820  122.0360 C.3   111  THR111      0.0376
    131  N         15.8350   78.6470  120.7720 N.am  112  PRO112     -0.2728
    132  CA        15.6070   77.2420  121.1360 C.3   112  PRO112      0.1401
    133  C         16.8630   76.3720  121.1010 C.2   112  PRO112      0.2269
    134  O         16.9150   75.3500  121.7840 O.2   112  PRO112     -0.2865
    135  CB        14.6100   76.7720  120.0750 C.3   112  PRO112      0.0296
    136  CG        13.8380   77.9840  119.7640 C.3   112  PRO112      0.0237
    137  CD        14.8530   79.0910  119.7630 C.3   112  PRO112      0.0939
    138  N         18.6130   75.7590  124.3330 N.3   115  THR115     -0.1218
    139  CA        17.9860   74.7070  125.1230 C.3   115  THR115      0.1862
    140  C         18.6220   73.3550  124.8130 C.2   115  THR115      0.2287
    141  O         18.8660   72.5520  125.7160 O.2   115  THR115     -0.2866
    142  CB        16.4710   74.6260  124.8630 C.3   115  THR115      0.1770
    143  OG1       15.8620   75.8830  125.1830 O.3   115  THR115     -0.2211
    144  CG2       15.8410   73.5310  125.7080 C.3   115  THR115      0.0375
@<TRIPOS>BOND
     1   103   104    1
     2   106   105    2
     3    24    22   ar
     4    24    25   ar
     5    22    20   ar
     6    26    25    1
     7   105   104    1
     8   105   112   am
     9   104   107    1
    10    25    23   ar
    11    34    33    2
    12   107   108    1
    13   111   109   ar
    14   108   109    1
    15    33    32    1
    16   109   110   ar
    17    18    17    2
    18    17    16    1
    19    20    19    1
    20    20    21   ar
    21    19    16    1
    22    23    21   ar
    23   112   113    1
    24   120   118   ar
    25   120   122   ar
    26   113   114    1
    27   113   116    1
    28    40    38   ar
    29    40    41   ar
    30   114   115    2
    31   118   117   ar
    32    38    36   ar
    33   123   122    1
    34    16    15    1
    35   122   121   ar
    36    32    35    1
    37    32    31    1
    38    42    41    1
    39    41    39   ar
    40    36    35    1
    41    36    37   ar
    42   117   116    1
    43   117   119   ar
    44    15    11   am
    45     3     4    2
    46     3     2    1
    47    31    29   am
    48     9    10    1
    49   121   119   ar
    50    39    37   ar
    51    27    28    1
    52    11    12    2
    53    11    10    1
    54    96    97    2
    55    96    95    1
    56    85    84    2
    57   124   125    1
    58     1     2    1
    59    10    13    1
    60   137   136    1
    61   137   131    1
    62   136   135    1
    63     2     5    1
    64    29    28    1
    65    29    30    2
    66    95    94    1
    67    95    98    1
    68     5     6    1
    69   135   132    1
    70    84    94   am
    71    84    83    1
    72    86    87    1
    73    86    83    1
    74   131   132    1
    75   131   126   am
    76    98    99    1
    77   129   128    1
    78    13    14    1
    79   125   126    1
    80   125   128    1
    81   133   132    1
    82   133   134    2
    83    87    88   ar
    84    87    89   ar
    85     6     7    1
    86     6     8    1
    87    83    82    1
    88   126   127    2
    89    88    90   ar
    90    89    91   ar
    91   128   130    1
    92    99   100    1
    93    50    49    1
    94    50    51    2
    95    53    51    1
    96    90    92   ar
    97    82    74   am
    98    91    92   ar
    99    49    48    1
   100    51    52    1
   101    92    93    1
   102   100   101    1
   103    48    47    1
   104    74    75    2
   105    74    73    1
   106   101   102    1
   107    64    63    2
   108   138   139    1
   109    73    76    1
   110    73    72    1
   111   140   139    1
   112   140   141    2
   113   142   139    1
   114   142   143    1
   115   142   144    1
   116    47    44    1
   117    63    72   am
   118    63    62    1
   119    76    77    1
   120    71    69    1
   121    77    78   ar
   122    77    79   ar
   123    44    43    1
   124    44    45    1
   125    78    80   ar
   126    79    81   ar
   127    65    62    1
   128    65    66    1
   129    69    70    1
   130    69    68    2
   131    62    61    1
   132    68    67    1
   133    80    81   ar
   134    67    66    1
   135    45    46    2
   136    57    56    2
   137    56    55    1
   138    58    55    1
   139    58    59    1
   140    58    60    1
   141    54    55    1
