@<TRIPOS>MOLECULE
tmp/5cfsA02.pdb
 91 87 0 0 0
SMALL
GASTEIGER

@<TRIPOS>ATOM
      1  N        -22.3360   -4.6530   18.4630 N.3     5  VAL5       -0.1231
      2  CA       -22.1150   -3.3920   19.1560 C.3     5  VAL5        0.1692
      3  C        -21.5790   -3.6900   20.5580 C.2     5  VAL5        0.2592
      4  O        -20.6200   -3.0640   21.0190 O.2     5  VAL5       -0.2718
      5  CB       -23.4010   -2.5420   19.2180 C.3     5  VAL5        0.0266
      6  CG1      -23.1970   -1.3160   20.0920 C.3     5  VAL5        0.0020
      7  CG2      -23.8380   -2.1490   17.8060 C.3     5  VAL5        0.0020
      8  N        -22.1710   -4.6750   21.2260 N.am    6  THR6       -0.1953
      9  CA       -21.7090   -5.0470   22.5540 C.3     6  THR6        0.1897
     10  C        -20.2850   -5.6020   22.4930 C.2     6  THR6        0.2313
     11  O        -19.4710   -5.3440   23.3790 O.2     6  THR6       -0.2863
     12  CB       -22.6430   -6.0770   23.2050 C.3     6  THR6        0.1794
     13  OG1      -23.9500   -5.5110   23.3370 O.3     6  THR6       -0.2208
     14  CG2      -22.1350   -6.4660   24.5850 C.3     6  THR6        0.0378
     15  N        -17.9650   -4.8630   20.2140 N.3     8  ILE8       -0.1231
     16  CA       -17.0740   -3.7300   19.9940 C.3     8  ILE8        0.1692
     17  C        -16.7680   -3.0390   21.3250 C.2     8  ILE8        0.2592
     18  O        -15.6160   -2.6990   21.6060 O.2     8  ILE8       -0.2718
     19  CB       -17.6780   -2.7290   18.9900 C.3     8  ILE8        0.0266
     20  CG1      -17.6640   -3.3430   17.5870 C.3     8  ILE8        0.0019
     21  CG2      -16.9000   -1.4040   19.0030 C.3     8  ILE8        0.0020
     22  CD1      -18.4410   -2.5310   16.5690 C.3     8  ILE8        0.0001
     23  N        -17.8000   -2.8400   22.1410 N.am    9  HIS9       -0.1976
     24  CA       -17.6390   -2.1970   23.4410 C.3     9  HIS9        0.1656
     25  C        -16.6960   -3.0020   24.3310 C.2     9  HIS9        0.2291
     26  O        -15.8210   -2.4430   24.9900 O.2     9  HIS9       -0.2864
     27  CB       -18.9960   -2.0320   24.1230 C.3     9  HIS9        0.0771
     28  CG       -18.9110   -1.5390   25.5330 C.ar    9  HIS9        0.0820
     29  ND1      -18.2100   -0.4070   25.8890 N.ar    9  HIS9       -0.2267
     30  CD2      -19.4500   -2.0240   26.6760 C.ar    9  HIS9        0.1154
     31  CE1      -18.3180   -0.2170   27.1930 C.ar    9  HIS9        0.1986
     32  NE2      -19.0670   -1.1830   27.6930 N.ar    9  HIS9       -0.2212
     33  N        -12.9990   -2.7880   23.1080 N.3    12  LEU12      -0.1231
     34  CA       -12.3830   -1.4830   23.3360 C.3    12  LEU12       0.1693
     35  C        -12.2240   -1.2020   24.8310 C.2    12  LEU12       0.2591
     36  O        -11.2600   -0.5590   25.2490 O.2    12  LEU12      -0.2718
     37  CB       -13.2010   -0.3810   22.6500 C.3    12  LEU12       0.0284
     38  CG       -13.2430   -0.4530   21.1170 C.3    12  LEU12       0.0019
     39  CD1      -14.0450    0.6840   20.4850 C.3    12  LEU12       0.0001
     40  CD2      -11.8420   -0.4760   20.5460 C.3    12  LEU12       0.0001
     41  N        -13.1580   -1.6890   25.6390 N.am   13  ALA13      -0.1980
     42  CA       -13.0280   -1.5660   27.0890 C.3    13  ALA13       0.1597
     43  C        -11.7680   -2.2870   27.5720 C.2    13  ALA13       0.2287
     44  O        -11.0020   -1.7570   28.3800 O.2    13  ALA13      -0.2864
     45  CB       -14.2630   -2.1250   27.7880 C.3    13  ALA13       0.0319
     46  N         -8.6970   -0.3620   26.3340 N.3    16  ASP16      -0.1239
     47  CA        -8.5020    0.8530   27.1240 C.3    16  ASP16       0.1674
     48  C         -7.7310    0.5440   28.4020 C.2    16  ASP16       0.2266
     49  O         -6.8280    1.2880   28.7890 O.2    16  ASP16      -0.2867
     50  CB        -9.8360    1.5050   27.4970 C.3    16  ASP16       0.1410
     51  CG       -10.5530    2.1300   26.3120 C.2    16  ASP16       0.3668
     52  OD1       -9.9670    2.2230   25.2090 O.co2  16  ASP16      -0.2456
     53  OD2      -11.7240    2.5390   26.5000 O.co2  16  ASP16      -0.2456
     54  N        -19.9120    5.1260   18.5460 N.3   114  ILE114     -0.1231
     55  CA       -20.7510    3.9460   18.4020 C.3   114  ILE114      0.1692
     56  C        -21.5490    3.8110   19.6900 C.2   114  ILE114      0.2591
     57  O        -20.9730    3.7370   20.7800 O.2   114  ILE114     -0.2718
     58  CB       -19.9170    2.6860   18.1280 C.3   114  ILE114      0.0266
     59  CG1      -19.1790    2.8310   16.7860 C.3   114  ILE114      0.0019
     60  CG2      -20.8070    1.4390   18.1290 C.3   114  ILE114      0.0020
     61  CD1      -18.1770    1.7240   16.4970 C.3   114  ILE114      0.0001
     62  N        -22.8760    3.8150   19.5470 N.am  115  ALA115     -0.1980
     63  CA       -23.8050    3.7650   20.6770 C.3   115  ALA115      0.1597
     64  C        -23.4620    4.7950   21.7550 C.2   115  ALA115      0.2287
     65  O        -23.4420    4.4820   22.9540 O.2   115  ALA115     -0.2864
     66  CB       -23.8310    2.3760   21.2660 C.3   115  ALA115      0.0319
     67  N        -20.7110    6.2900   22.5570 N.3   117  ARG117     -0.1231
     68  CA       -19.3530    6.3200   23.0890 C.3   117  ARG117      0.1679
     69  C        -18.3330    6.6840   22.0200 C.2   117  ARG117      0.2434
     70  O        -18.3420    6.0910   20.9410 O.2   117  ARG117     -0.2733
     71  CB       -18.9820    4.9640   23.6860 C.3   117  ARG117      0.0321
     72  CG       -19.8800    4.5280   24.8160 C.3   117  ARG117      0.0489
     73  CD       -19.5550    3.1130   25.2570 C.3   117  ARG117      0.2205
     74  NE       -20.6950    2.5090   25.9460 N.pl3 117  ARG117     -0.0865
     75  CZ       -20.8810    2.4950   27.2610 C.cat 117  ARG117      0.5346
     76  NH1      -19.9950    3.0350   28.0840 N.pl3 117  ARG117      0.1354
     77  NH2      -21.9650    1.9170   27.7680 N.pl3 117  ARG117      0.1354
     78  N        -17.4480    7.6500   22.3140 N.am  118  PRO118     -0.2718
     79  CA       -16.3700    7.9500   21.3670 C.3   118  PRO118      0.1535
     80  C        -15.4900    6.7330   21.1040 C.2   118  PRO118      0.2598
     81  O        -15.1920    5.9750   22.0300 O.2   118  PRO118     -0.2715
     82  CB       -15.5840    9.0620   22.0720 C.3   118  PRO118      0.0310
     83  CG       -16.5620    9.6870   23.0000 C.3   118  PRO118      0.0237
     84  CD       -17.4150    8.5570   23.4740 C.3   118  PRO118      0.0939
     85  N        -15.1030    6.5460   19.8460 N.am  119  VAL119     -0.1978
     86  CA       -14.2220    5.4600   19.4520 C.3   119  VAL119      0.1596
     87  C        -13.1850    5.9780   18.4590 C.2   119  VAL119      0.2287
     88  O        -13.4790    6.8490   17.6360 O.2   119  VAL119     -0.2864
     89  CB       -15.0000    4.2900   18.8070 C.3   119  VAL119      0.0276
     90  CG1      -15.9820    3.6720   19.8050 C.3   119  VAL119      0.0022
     91  CG2      -15.7330    4.7460   17.5400 C.3   119  VAL119      0.0022
@<TRIPOS>BOND
     1    61    59    1
     2    22    20    1
     3    59    58    1
     4    91    89    1
     5    20    19    1
     6    88    87    2
     7     7     5    1
     8    58    60    1
     9    58    55    1
    10    55    54    1
    11    55    56    1
    12    87    86    1
    13     1     2    1
    14    89    86    1
    15    89    90    1
    16    19    21    1
    17    19    16    1
    18     2     5    1
    19     2     3    1
    20     5     6    1
    21    86    85    1
    22    62    56   am
    23    62    63    1
    24    56    57    2
    25    85    80   am
    26    16    15    1
    27    16    17    1
    28    39    38    1
    29    40    38    1
    30     3     4    2
    31     3     8   am
    32    63    66    1
    33    63    64    1
    34    70    69    2
    35    80    79    1
    36    80    81    2
    37    38    37    1
    38     8     9    1
    39    17    18    2
    40    17    23   am
    41    79    82    1
    42    79    78    1
    43    64    65    2
    44    69    78   am
    45    69    68    1
    46    82    83    1
    47    23    24    1
    48    78    84    1
    49    10     9    1
    50    10    11    2
    51     9    12    1
    52    67    68    1
    53    37    34    1
    54    83    84    1
    55    68    71    1
    56    33    34    1
    57    12    13    1
    58    12    14    1
    59    34    35    1
    60    24    27    1
    61    24    25    1
    62    71    72    1
    63    27    28    1
    64    25    26    2
    65    72    73    1
    66    35    36    2
    67    35    41   am
    68    52    51   ar
    69    73    74    1
    70    28    29   ar
    71    28    30   ar
    72    41    42    1
    73    29    31   ar
    74    74    75    2
    75    51    53   ar
    76    51    50    1
    77    46    47    1
    78    30    32   ar
    79    42    43    1
    80    42    45    1
    81    47    50    1
    82    47    48    1
    83    31    32   ar
    84    75    77    1
    85    75    76    1
    86    43    44    2
    87    48    49    2
