@<TRIPOS>MOLECULE
tmp/5cfsA00.pdb
 130 125 0 0 0
SMALL
GASTEIGER

@<TRIPOS>ATOM
      1  N        -18.5390   -7.9550    9.2010 N.3    43  ASP43      -0.1239
      2  CA       -17.4500   -8.1740   10.1500 C.3    43  ASP43       0.1674
      3  C        -17.1270   -6.8810   10.8880 C.2    43  ASP43       0.2266
      4  O        -17.7890   -5.8570   10.7010 O.2    43  ASP43      -0.2867
      5  CB       -16.1870   -8.7390    9.4460 C.3    43  ASP43       0.1410
      6  CG       -15.5580   -7.7660    8.4520 C.2    43  ASP43       0.3668
      7  OD1      -15.8630   -6.5720    8.5060 O.co2  43  ASP43      -0.2456
      8  OD2      -14.7280   -8.2000    7.6190 O.co2  43  ASP43      -0.2456
      9  N        -13.8100   -4.5440   11.2690 N.3    45  ASP45      -0.1239
     10  CA       -12.4450   -4.2970   10.8090 C.3    45  ASP45       0.1674
     11  C        -11.6980   -3.4970   11.8660 C.2    45  ASP45       0.2266
     12  O        -12.1940   -2.4710   12.3300 O.2    45  ASP45      -0.2867
     13  CB       -12.4290   -3.5460    9.4770 C.3    45  ASP45       0.1410
     14  CG       -13.1650   -4.2820    8.3770 C.2    45  ASP45       0.3668
     15  OD1      -12.6800   -5.3390    7.9330 O.co2  45  ASP45      -0.2456
     16  OD2      -14.2330   -3.8020    7.9550 O.co2  45  ASP45      -0.2456
     17  N         -3.4950  -13.4870    7.0410 N.3    71  LEU71      -0.1231
     18  CA        -3.7700  -12.8670    5.7530 C.3    71  LEU71       0.1693
     19  C         -2.5270  -12.1380    5.2730 C.2    71  LEU71       0.2592
     20  O         -1.5960  -11.9160    6.0430 O.2    71  LEU71      -0.2718
     21  CB        -4.9460  -11.8950    5.8730 C.3    71  LEU71       0.0284
     22  CG        -6.1300  -12.4270    6.6850 C.3    71  LEU71       0.0019
     23  CD1       -7.1100  -11.3210    7.0270 C.3    71  LEU71       0.0001
     24  CD2       -6.8160  -13.5210    5.8950 C.3    71  LEU71       0.0001
     25  N         -2.5080  -11.7520    4.0020 N.am   72  ASP72      -0.1960
     26  CA        -1.3690  -11.0260    3.4670 C.3    72  ASP72       0.1840
     27  C         -1.1500   -9.6990    4.1960 C.2    72  ASP72       0.2622
     28  O         -0.0190   -9.2270    4.3100 O.2    72  ASP72      -0.2715
     29  CB        -1.5580  -10.7730    1.9670 C.3    72  ASP72       0.1450
     30  CG        -1.1420  -11.8890    1.0740 C.2    72  ASP72       0.3671
     31  OD1       -0.6000  -12.8760    1.5220 O.co2  72  ASP72      -0.2456
     32  OD2       -1.3540  -11.6870   -0.1900 O.co2  72  ASP72      -0.2456
     33  N         -2.2330   -9.1150    4.7090 N.am   73  TYR73      -0.1974
     34  CA        -2.1820   -7.7850    5.3080 C.3    73  TYR73       0.1639
     35  C         -2.3480   -7.7980    6.8210 C.2    73  TYR73       0.2290
     36  O         -2.1970   -6.7640    7.4520 O.2    73  TYR73      -0.2864
     37  CB        -3.2700   -6.8920    4.7100 C.3    73  TYR73       0.0560
     38  CG        -4.6620   -7.4270    4.9370 C.ar   73  TYR73      -0.0198
     39  CD1       -5.3190   -7.2200    6.1380 C.ar   73  TYR73      -0.0009
     40  CD2       -5.3120   -8.1590    3.9540 C.ar   73  TYR73      -0.0009
     41  CE1       -6.5730   -7.7220    6.3560 C.ar   73  TYR73       0.0417
     42  CE2       -6.5770   -8.6580    4.1600 C.ar   73  TYR73       0.0417
     43  CZ        -7.2040   -8.4350    5.3620 C.ar   73  TYR73       0.1957
     44  OH        -8.4640   -8.9440    5.5520 O.3    73  TYR73      -0.2866
     45  N         -7.1280  -12.8130   10.7560 N.3    76  LEU76      -0.1245
     46  CA        -8.5480  -13.0000   10.9110 C.3    76  LEU76       0.1561
     47  C         -8.7960  -13.6770   12.2570 C.2    76  LEU76       0.2260
     48  O         -8.1670  -14.6900   12.5590 O.2    76  LEU76      -0.2867
     49  CB        -9.0470  -13.8430    9.7440 C.3    76  LEU76       0.0270
     50  CG       -10.5280  -13.9500    9.4680 C.3    76  LEU76       0.0019
     51  CD1      -10.7450  -14.2100    7.9730 C.3    76  LEU76       0.0001
     52  CD2      -11.1080  -15.0810   10.2950 C.3    76  LEU76       0.0001
     53  N        -11.4830   -8.5980   11.5140 N.3    85  ASP85      -0.1239
     54  CA       -10.5700   -8.4910   10.3880 C.3    85  ASP85       0.1674
     55  C         -9.4890   -7.4760   10.7600 C.2    85  ASP85       0.2266
     56  O         -9.7320   -6.2730   10.7330 O.2    85  ASP85      -0.2867
     57  CB       -11.3810   -8.0720    9.1640 C.3    85  ASP85       0.1410
     58  CG       -10.5650   -7.9710    7.9090 C.2    85  ASP85       0.3668
     59  OD1       -9.3540   -8.2700    7.9240 O.co2  85  ASP85      -0.2456
     60  OD2      -11.1710   -7.6090    6.8800 O.co2  85  ASP85      -0.2456
     61  N         -5.7250   -5.5520   10.9400 N.3    87  GLU87      -0.1245
     62  CA        -4.5350   -5.1060   10.2190 C.3    87  GLU87       0.1567
     63  C         -3.5960   -4.3260   11.1340 C.2    87  GLU87       0.2260
     64  O         -4.0360   -3.4620   11.8860 O.2    87  GLU87      -0.2867
     65  CB        -4.9360   -4.2360    9.0230 C.3    87  GLU87       0.0388
     66  CG        -3.7530   -3.7770    8.1800 C.3    87  GLU87       0.1160
     67  CD        -4.1610   -3.0140    6.9310 C.2    87  GLU87       0.3649
     68  OE1       -5.2320   -2.3660    6.9540 O.co2  87  GLU87      -0.2457
     69  OE2       -3.4010   -3.0760    5.9250 O.co2  87  GLU87      -0.2457
     70  N         -1.0190    2.7760    8.9800 N.3    98  ILE98      -0.1231
     71  CA        -1.2430    1.5980    8.1580 C.3    98  ILE98       0.1692
     72  C         -0.2660    1.6250    6.9980 C.2    98  ILE98       0.2592
     73  O         -0.0700    2.6750    6.3830 O.2    98  ILE98      -0.2718
     74  CB        -2.6900    1.5540    7.6370 C.3    98  ILE98       0.0266
     75  CG1       -3.6570    1.2880    8.7910 C.3    98  ILE98       0.0019
     76  CG2       -2.8620    0.4800    6.5590 C.3    98  ILE98       0.0020
     77  CD1       -5.0880    1.5940    8.4580 C.3    98  ILE98       0.0001
     78  N          0.3490    0.4840    6.6980 N.am   99  ALA99      -0.1966
     79  CA         1.3130    0.4170    5.6080 C.3    99  ALA99       0.1728
     80  C          0.6910    0.9240    4.3100 C.2    99  ALA99       0.2616
     81  O         -0.4290    0.5560    3.9740 O.2    99  ALA99      -0.2715
     82  CB         1.8250   -1.0070    5.4280 C.3    99  ALA99       0.0334
     83  N          1.4240    1.8010    3.6290 N.am  100  GLU100     -0.1963
     84  CA         1.0700    2.3230    2.3040 C.3   100  GLU100      0.1733
     85  C         -0.1050    3.3120    2.2980 C.2   100  GLU100      0.2616
     86  O         -0.3890    3.9100    1.2650 O.2   100  GLU100     -0.2715
     87  CB         0.7630    1.1730    1.3300 C.3   100  GLU100      0.0429
     88  CG         1.9750    0.2970    0.9870 C.3   100  GLU100      0.1163
     89  CD         2.3920    0.4240   -0.4700 C.2   100  GLU100      0.3649
     90  OE1        2.2800   -0.5780   -1.2080 O.co2 100  GLU100     -0.2457
     91  OE2        2.8210    1.5250   -0.8840 O.co2 100  GLU100     -0.2457
     92  N         -0.7620    3.5120    3.4350 N.am  101  ALA101     -0.1977
     93  CA        -1.9260    4.3970    3.4910 C.3   101  ALA101      0.1597
     94  C         -1.5040    5.8650    3.5900 C.2   101  ALA101      0.2287
     95  O         -0.3450    6.1640    3.8860 O.2   101  ALA101     -0.2864
     96  CB        -2.8120    4.0260    4.6650 C.3   101  ALA101      0.0319
     97  N         -9.1130    5.0260    0.6580 N.3   129  TRP129     -0.1227
     98  CA        -7.9210    4.4310    0.0480 C.3   129  TRP129      0.1737
     99  C         -8.1150    2.9400   -0.2270 C.2   129  TRP129      0.2595
    100  O         -7.7420    2.4360   -1.2830 O.2   129  TRP129     -0.2718
    101  CB        -6.7280    4.6640    0.9720 C.3   129  TRP129      0.0564
    102  CG        -5.3700    4.3820    0.4200 C.ar  129  TRP129      0.0003
    103  CD1       -4.5810    3.2920    0.6860 C.ar  129  TRP129      0.0946
    104  CD2       -4.6060    5.2260   -0.4470 C.ar  129  TRP129      0.0152
    105  NE1       -3.3840    3.4040    0.0220 N.ar  129  TRP129     -0.2442
    106  CE2       -3.3730    4.5830   -0.6790 C.ar  129  TRP129      0.0810
    107  CE3       -4.8460    6.4630   -1.0570 C.ar  129  TRP129      0.0012
    108  CZ2       -2.3830    5.1390   -1.4870 C.ar  129  TRP129      0.0191
    109  CZ3       -3.8580    7.0070   -1.8620 C.ar  129  TRP129      0.0001
    110  CH2       -2.6460    6.3450   -2.0690 C.ar  129  TRP129      0.0015
    111  N         -8.7300    2.2250    0.7070 N.am  130  ASP130     -0.1974
    112  CA        -8.9040    0.7900    0.5100 C.3   130  ASP130      0.1709
    113  C         -9.8640    0.4700   -0.6300 C.2   130  ASP130      0.2293
    114  O         -9.7430   -0.5860   -1.2410 O.2   130  ASP130     -0.2864
    115  CB        -9.3590    0.1120    1.8080 C.3   130  ASP130      0.1436
    116  CG        -8.1910   -0.3090    2.6860 C.2   130  ASP130      0.3671
    117  OD1       -7.0420   -0.2960    2.1900 O.co2 130  ASP130     -0.2456
    118  OD2       -8.4230   -0.6690    3.8630 O.co2 130  ASP130     -0.2456
    119  N         -7.7620    0.1870   -3.8990 N.3   133  TYR133     -0.1241
    120  CA        -7.2070   -1.1540   -4.1070 C.3   133  TYR133      0.1605
    121  C         -8.2530   -2.1010   -4.6750 C.2   133  TYR133      0.2264
    122  O         -7.9780   -2.8930   -5.5830 O.2   133  TYR133     -0.2867
    123  CB        -6.6880   -1.7550   -2.8100 C.3   133  TYR133      0.0534
    124  CG        -5.4450   -1.1310   -2.2460 C.ar  133  TYR133     -0.0201
    125  CD1       -4.2370   -1.2120   -2.9200 C.ar  133  TYR133     -0.0009
    126  CD2       -5.4720   -0.5090   -1.0080 C.ar  133  TYR133     -0.0009
    127  CE1       -3.1030   -0.6640   -2.3870 C.ar  133  TYR133      0.0417
    128  CE2       -4.3460    0.0400   -0.4680 C.ar  133  TYR133      0.0417
    129  CZ        -3.1690   -0.0400   -1.1640 C.ar  133  TYR133      0.1957
    130  OH        -2.0270    0.5030   -0.6260 O.3   133  TYR133     -0.2866
@<TRIPOS>BOND
     1   122   121    2
     2   121   120    1
     3   120   119    1
     4   120   123    1
     5   125   127   ar
     6   125   124   ar
     7   123   124    1
     8   127   129   ar
     9   124   126   ar
    10   110   109   ar
    11   110   108   ar
    12   109   107   ar
    13   108   106   ar
    14   100    99    2
    15   114   113    2
    16    90    89   ar
    17   129   130    1
    18   129   128   ar
    19   107   104   ar
    20   126   128   ar
    21    91    89   ar
    22   106   104   ar
    23   106   105   ar
    24   113   112    1
    25    89    88    1
    26   104   102   ar
    27    99    98    1
    28    99   111   am
    29    32    30   ar
    30   105   103   ar
    31    98    97    1
    32    98   101    1
    33   102   103   ar
    34   102   101    1
    35   112   111    1
    36   112   115    1
    37    88    87    1
    38    30    31   ar
    39    30    29    1
    40    86    85    2
    41    87    84    1
    42   115   116    1
    43    29    26    1
    44   117   116   ar
    45    85    84    1
    46    85    92   am
    47    84    83    1
    48   116   118   ar
    49    92    93    1
    50    26    25    1
    51    26    27    1
    52    93    94    1
    53    93    96    1
    54    94    95    2
    55    83    80   am
    56    40    42   ar
    57    40    38   ar
    58    81    80    2
    59    25    19   am
    60    42    43   ar
    61    27    28    2
    62    27    33   am
    63    80    79    1
    64    33    34    1
    65    37    38    1
    66    37    34    1
    67    38    39   ar
    68    19    18    1
    69    19    20    2
    70    34    35    1
    71    43    44    1
    72    43    41   ar
    73    82    79    1
    74    79    78    1
    75    18    21    1
    76    18    17    1
    77    21    22    1
    78    24    22    1
    79    69    67   ar
    80    39    41   ar
    81    73    72    2
    82    76    74    1
    83    22    23    1
    84    78    72   am
    85    35    36    2
    86    60    58   ar
    87    67    68   ar
    88    67    66    1
    89    72    71    1
    90     8     6   ar
    91    74    71    1
    92    74    75    1
    93    58    59   ar
    94    58    57    1
    95    15    14   ar
    96    16    14   ar
    97    51    50    1
    98    71    70    1
    99    66    65    1
   100    14    13    1
   101     6     7   ar
   102     6     5    1
   103    77    75    1
   104    65    62    1
   105    57    54    1
   106     1     2    1
   107     5     2    1
   108    50    49    1
   109    50    52    1
   110    13    10    1
   111    49    46    1
   112     2     3    1
   113    62    61    1
   114    62    63    1
   115    54    55    1
   116    54    53    1
   117     4     3    2
   118    56    55    2
   119    45    46    1
   120    10     9    1
   121    10    11    1
   122    46    47    1
   123    63    64    2
   124    11    12    2
   125    47    48    2
