@<TRIPOS>MOLECULE
tmp/5cfsA01.pdb
 168 164 0 0 0
SMALL
GASTEIGER

@<TRIPOS>ATOM
      1  N        -13.1460    0.1810    8.0390 N.3    26  GLY26      -0.1210
      2  CA       -14.1810   -0.2960    7.1420 C.3    26  GLY26       0.1956
      3  C        -15.5720    0.2330    7.4210 C.2    26  GLY26       0.2612
      4  O        -15.7620    1.4000    7.7580 O.2    26  GLY26      -0.2717
      5  N        -16.5590   -0.6420    7.2830 N.am   27  GLY27      -0.1942
      6  CA       -17.9430   -0.2240    7.3610 C.3    27  GLY27       0.2014
      7  C        -18.3110    0.3650    8.7020 C.2    27  GLY27       0.2638
      8  O        -19.0270    1.3630    8.7550 O.2    27  GLY27      -0.2714
      9  N        -17.8380   -0.2380    9.7900 N.am   28  TRP28      -0.1973
     10  CA       -18.1430    0.3180   11.1050 C.3    28  TRP28       0.1640
     11  C        -17.4850    1.6870   11.2920 C.2    28  TRP28       0.2290
     12  O        -18.0040    2.5270   12.0250 O.2    28  TRP28      -0.2864
     13  CB       -17.7210   -0.6380   12.2260 C.3    28  TRP28       0.0576
     14  CG       -18.8200   -1.5300   12.6560 C.ar   28  TRP28       0.0006
     15  CD1      -18.9080   -2.8810   12.4950 C.ar   28  TRP28       0.0946
     16  CD2      -20.0110   -1.1230   13.3270 C.ar   28  TRP28       0.0152
     17  NE1      -20.0880   -3.3410   13.0300 N.ar   28  TRP28      -0.2442
     18  CE2      -20.7850   -2.2760   13.5440 C.ar   28  TRP28       0.0810
     19  CE3      -20.5000    0.1130   13.7610 C.ar   28  TRP28       0.0012
     20  CZ2      -22.0240   -2.2330   14.1850 C.ar   28  TRP28       0.0191
     21  CZ3      -21.7280    0.1580   14.3910 C.ar   28  TRP28       0.0001
     22  CH2      -22.4770   -1.0070   14.5990 C.ar   28  TRP28       0.0015
     23  N        -26.4300    0.1960    8.2940 N.3    39  ARG39      -0.1245
     24  CA       -26.7920   -1.1320    7.8250 C.3    39  ARG39       0.1563
     25  C        -26.1700   -2.2020    8.7070 C.2    39  ARG39       0.2260
     26  O        -25.4260   -1.8970    9.6380 O.2    39  ARG39      -0.2867
     27  CB       -26.3380   -1.3370    6.3800 C.3    39  ARG39       0.0307
     28  CG       -24.8360   -1.1560    6.1770 C.3    39  ARG39       0.0489
     29  CD       -24.4640   -1.4790    4.7370 C.3    39  ARG39       0.2205
     30  NE       -23.0660   -1.1920    4.4240 N.pl3  39  ARG39      -0.0865
     31  CZ       -22.0490   -2.0240    4.6440 C.cat  39  ARG39       0.5346
     32  NH1      -20.8210   -1.6650    4.3030 N.pl3  39  ARG39       0.1354
     33  NH2      -22.2430   -3.2120    5.2070 N.pl3  39  ARG39       0.1354
     34  N        -23.4880   -5.0730    9.3830 N.3    41  HIS41      -0.1226
     35  CA       -22.0820   -5.2070    9.0280 C.3    41  HIS41       0.1752
     36  C        -21.6320   -6.6540    9.1280 C.2    41  HIS41       0.2596
     37  O        -21.8910   -7.3230   10.1290 O.2    41  HIS41      -0.2718
     38  CB       -21.2320   -4.3240    9.9400 C.3    41  HIS41       0.0759
     39  CG       -21.5960   -2.8740    9.8620 C.ar   41  HIS41       0.0818
     40  ND1      -21.2290   -2.0730    8.8030 N.ar   41  HIS41      -0.2268
     41  CD2      -22.3360   -2.0930   10.6850 C.ar   41  HIS41       0.1154
     42  CE1      -21.7030   -0.8550    8.9890 C.ar   41  HIS41       0.1986
     43  NE2      -22.3800   -0.8410   10.1230 N.ar   41  HIS41      -0.2212
     44  N        -20.9450   -7.1330    8.0960 N.am   42  ASP42      -0.1960
     45  CA       -20.5880   -8.5430    8.0270 C.3    42  ASP42       0.1840
     46  C        -19.4480   -8.8970    8.9670 C.2    42  ASP42       0.2622
     47  O        -19.3970  -10.0230    9.4670 O.2    42  ASP42      -0.2715
     48  CB       -20.2120   -8.9340    6.6000 C.3    42  ASP42       0.1450
     49  CG       -21.4080   -8.9650    5.6680 C.2    42  ASP42       0.3671
     50  OD1      -22.5520   -9.0140    6.1650 O.co2  42  ASP42      -0.2456
     51  OD2      -21.1990   -8.9540    4.4350 O.co2  42  ASP42      -0.2456
     52  N        -18.5390   -7.9550    9.2010 N.am   43  ASP43      -0.1971
     53  CA       -17.4500   -8.1740   10.1500 C.3    43  ASP43       0.1709
     54  C        -17.1270   -6.8810   10.8880 C.2    43  ASP43       0.2293
     55  O        -17.7890   -5.8570   10.7010 O.2    43  ASP43      -0.2864
     56  CB       -16.1870   -8.7390    9.4460 C.3    43  ASP43       0.1436
     57  CG       -15.5580   -7.7660    8.4520 C.2    43  ASP43       0.3671
     58  OD1      -15.8630   -6.5720    8.5060 O.co2  43  ASP43      -0.2456
     59  OD2      -14.7280   -8.2000    7.6190 O.co2  43  ASP43      -0.2456
     60  N        -13.8100   -4.5440   11.2690 N.3    45  ASP45      -0.1239
     61  CA       -12.4450   -4.2970   10.8090 C.3    45  ASP45       0.1674
     62  C        -11.6980   -3.4970   11.8660 C.2    45  ASP45       0.2266
     63  O        -12.1940   -2.4710   12.3300 O.2    45  ASP45      -0.2867
     64  CB       -12.4290   -3.5460    9.4770 C.3    45  ASP45       0.1410
     65  CG       -13.1650   -4.2820    8.3770 C.2    45  ASP45       0.3668
     66  OD1      -12.6800   -5.3390    7.9330 O.co2  45  ASP45      -0.2456
     67  OD2      -14.2330   -3.8020    7.9550 O.co2  45  ASP45      -0.2456
     68  N        -11.4830   -8.5980   11.5140 N.3    85  ASP85      -0.1239
     69  CA       -10.5700   -8.4910   10.3880 C.3    85  ASP85       0.1674
     70  C         -9.4890   -7.4760   10.7600 C.2    85  ASP85       0.2266
     71  O         -9.7320   -6.2730   10.7330 O.2    85  ASP85      -0.2867
     72  CB       -11.3810   -8.0720    9.1640 C.3    85  ASP85       0.1410
     73  CG       -10.5650   -7.9710    7.9090 C.2    85  ASP85       0.3668
     74  OD1       -9.3540   -8.2700    7.9240 O.co2  85  ASP85      -0.2456
     75  OD2      -11.1710   -7.6090    6.8800 O.co2  85  ASP85      -0.2456
     76  N         -9.9760    5.0560    4.8620 N.3   127  ILE127     -0.1245
     77  CA       -11.1530    4.2690    4.5300 C.3   127  ILE127      0.1561
     78  C        -11.3470    4.2420    3.0270 C.2   127  ILE127      0.2260
     79  O        -11.5790    3.1990    2.4490 O.2   127  ILE127     -0.2867
     80  CB       -12.4100    4.8330    5.2020 C.3   127  ILE127      0.0252
     81  CG1      -12.3080    4.6570    6.7180 C.3   127  ILE127      0.0019
     82  CG2      -13.6680    4.1300    4.6920 C.3   127  ILE127      0.0019
     83  CD1      -13.3170    5.4790    7.4960 C.3   127  ILE127      0.0001
     84  N         -8.7300    2.2250    0.7070 N.3   130  ASP130     -0.1225
     85  CA        -8.9040    0.7900    0.5100 C.3   130  ASP130      0.1805
     86  C         -9.8640    0.4700   -0.6300 C.2   130  ASP130      0.2597
     87  O         -9.7430   -0.5860   -1.2410 O.2   130  ASP130     -0.2718
     88  CB        -9.3590    0.1120    1.8080 C.3   130  ASP130      0.1424
     89  CG        -8.1910   -0.3090    2.6860 C.2   130  ASP130      0.3668
     90  OD1       -7.0420   -0.2960    2.1900 O.co2 130  ASP130     -0.2456
     91  OD2       -8.4230   -0.6690    3.8630 O.co2 130  ASP130     -0.2456
     92  N        -10.7880    1.3750   -0.9430 N.am  131  TYR131     -0.1976
     93  CA       -11.6530    1.1790   -2.1000 C.3   131  TYR131      0.1639
     94  C        -10.8610    1.2840   -3.3930 C.2   131  TYR131      0.2290
     95  O        -11.2290    0.6740   -4.3910 O.2   131  TYR131     -0.2864
     96  CB       -12.8030    2.1890   -2.1230 C.3   131  TYR131      0.0560
     97  CG       -13.8910    1.8850   -1.1230 C.ar  131  TYR131     -0.0198
     98  CD1      -14.8960    0.9770   -1.4110 C.ar  131  TYR131     -0.0009
     99  CD2      -13.9080    2.5080    0.1090 C.ar  131  TYR131     -0.0009
    100  CE1      -15.8860    0.6940   -0.4840 C.ar  131  TYR131      0.0417
    101  CE2      -14.8900    2.2380    1.0330 C.ar  131  TYR131      0.0417
    102  CZ       -15.8740    1.3410    0.7350 C.ar  131  TYR131      0.1957
    103  OH       -16.8290    1.0990    1.6930 O.3   131  TYR131     -0.2866
    104  N         -7.7620    0.1870   -3.8990 N.3   133  TYR133     -0.1227
    105  CA        -7.2070   -1.1540   -4.1070 C.3   133  TYR133      0.1736
    106  C         -8.2530   -2.1010   -4.6750 C.2   133  TYR133      0.2595
    107  O         -7.9780   -2.8930   -5.5830 O.2   133  TYR133     -0.2718
    108  CB        -6.6880   -1.7550   -2.8100 C.3   133  TYR133      0.0548
    109  CG        -5.4450   -1.1310   -2.2460 C.ar  133  TYR133     -0.0200
    110  CD1       -4.2370   -1.2120   -2.9200 C.ar  133  TYR133     -0.0009
    111  CD2       -5.4720   -0.5090   -1.0080 C.ar  133  TYR133     -0.0009
    112  CE1       -3.1030   -0.6640   -2.3870 C.ar  133  TYR133      0.0417
    113  CE2       -4.3460    0.0400   -0.4680 C.ar  133  TYR133      0.0417
    114  CZ        -3.1690   -0.0400   -1.1640 C.ar  133  TYR133      0.1957
    115  OH        -2.0270    0.5030   -0.6260 O.3   133  TYR133     -0.2866
    116  N         -9.4530   -2.0240   -4.1110 N.am  134  TYR134     -0.1976
    117  CA       -10.5640   -2.8620   -4.5350 C.3   134  TYR134      0.1639
    118  C        -10.9090   -2.6130   -6.0020 C.2   134  TYR134      0.2290
    119  O        -11.1190   -3.5600   -6.7640 O.2   134  TYR134     -0.2864
    120  CB       -11.7810   -2.5930   -3.6450 C.3   134  TYR134      0.0560
    121  CG       -12.9590   -3.5280   -3.8360 C.ar  134  TYR134     -0.0198
    122  CD1      -12.7810   -4.8440   -4.2400 C.ar  134  TYR134     -0.0009
    123  CD2      -14.2500   -3.0890   -3.5940 C.ar  134  TYR134     -0.0009
    124  CE1      -13.8680   -5.6950   -4.4070 C.ar  134  TYR134      0.0417
    125  CE2      -15.3370   -3.9280   -3.7560 C.ar  134  TYR134      0.0417
    126  CZ       -15.1400   -5.2270   -4.1620 C.ar  134  TYR134      0.1957
    127  OH       -16.2220   -6.0620   -4.3250 O.3   134  TYR134     -0.2866
    128  N         -8.8060   -4.4590   -8.4880 N.3   137  GLU137     -0.1231
    129  CA        -9.1160   -5.8780   -8.6610 C.3   137  GLU137      0.1699
    130  C        -10.4380   -6.0600   -9.3990 C.2   137  GLU137      0.2592
    131  O        -10.5430   -6.8700  -10.3180 O.2   137  GLU137     -0.2718
    132  CB        -9.1900   -6.5910   -7.3100 C.3   137  GLU137      0.0402
    133  CG        -7.9800   -6.3890   -6.4100 C.3   137  GLU137      0.1161
    134  CD        -6.7340   -7.0650   -6.9430 C.2   137  GLU137      0.3649
    135  OE1       -6.6110   -8.2970   -6.7790 O.co2 137  GLU137     -0.2457
    136  OE2       -5.8760   -6.3640   -7.5240 O.co2 137  GLU137     -0.2457
    137  N        -11.4450   -5.2980   -8.9790 N.am  138  VAL138     -0.1980
    138  CA       -12.7990   -5.4060   -9.5210 C.3   138  VAL138      0.1595
    139  C        -13.2910   -4.0320   -9.9470 C.2   138  VAL138      0.2287
    140  O        -13.2840   -3.1110   -9.1400 O.2   138  VAL138     -0.2864
    141  CB       -13.7820   -5.9830   -8.4800 C.3   138  VAL138      0.0276
    142  CG1      -15.1440   -6.2390   -9.1100 C.3   138  VAL138      0.0022
    143  CG2      -13.2260   -7.2560   -7.8710 C.3   138  VAL138      0.0022
    144  N        -23.8450   -2.9450   -1.7320 N.3   146  LYS146     -0.1231
    145  CA       -23.2500   -2.6700   -0.4230 C.3   146  LYS146      0.1693
    146  C        -22.0170   -1.7870   -0.4980 C.2   146  LYS146      0.2592
    147  O        -21.9080   -0.7760    0.2020 O.2   146  LYS146     -0.2718
    148  CB       -22.8190   -3.9640    0.2660 C.3   146  LYS146      0.0285
    149  CG       -23.8210   -4.6040    1.2150 C.3   146  LYS146      0.0035
    150  CD       -23.1660   -5.7350    2.0500 C.3   146  LYS146      0.0206
    151  CE       -21.7780   -5.3440    2.6080 C.3   146  LYS146      0.1093
    152  NZ       -21.1560   -6.3610    3.5100 N.3   146  LYS146     -0.1314
    153  N        -21.0630   -2.2200   -1.3180 N.am  147  HIS147     -0.1976
    154  CA       -19.7750   -1.5570   -1.4280 C.3   147  HIS147      0.1656
    155  C        -19.9110   -0.2400   -2.1900 C.2   147  HIS147      0.2291
    156  O        -19.2340    0.7360   -1.8770 O.2   147  HIS147     -0.2864
    157  CB       -18.7630   -2.4700   -2.1240 C.3   147  HIS147      0.0771
    158  CG       -18.4140   -3.7030   -1.3440 C.ar  147  HIS147      0.0820
    159  ND1      -18.3640   -4.9540   -1.9170 N.ar  147  HIS147     -0.2267
    160  CD2      -18.0860   -3.8750   -0.0420 C.ar  147  HIS147      0.1154
    161  CE1      -18.0260   -5.8460   -1.0030 C.ar  147  HIS147      0.1986
    162  NE2      -17.8540   -5.2170    0.1450 N.ar  147  HIS147     -0.2212
    163  N        -21.5440    2.2220    0.3000 N.3   150  SER150     -0.1217
    164  CA       -20.6130    2.5800    1.3730 C.3   150  SER150      0.1889
    165  C        -19.5620    3.5420    0.8530 C.2   150  SER150      0.2288
    166  O        -19.2330    4.5320    1.5080 O.2   150  SER150     -0.2866
    167  CB       -19.9480    1.3370    1.9640 C.3   150  SER150      0.2089
    168  OG       -20.8740    0.6230    2.7650 O.3   150  SER150     -0.2183
@<TRIPOS>BOND
     1   131   130    2
     2   139   138    1
     3   139   140    2
     4   138   137    1
     5   138   141    1
     6   130   137   am
     7   130   129    1
     8   142   141    1
     9   129   128    1
    10   129   132    1
    11   141   143    1
    12   136   134   ar
    13   132   133    1
    14   134   135   ar
    15   134   133    1
    16   119   118    2
    17   118   117    1
    18   107   106    2
    19   106   116   am
    20   106   105    1
    21   117   116    1
    22   117   120    1
    23   124   122   ar
    24   124   126   ar
    25    95    94    2
    26   127   126    1
    27   122   121   ar
    28   126   125   ar
    29   105   104    1
    30   105   108    1
    31   121   120    1
    32   121   123   ar
    33   125   123   ar
    34    94    93    1
    35   110   112   ar
    36   110   109   ar
    37   108   109    1
    38   112   114   ar
    39   109   111   ar
    40   155   156    2
    41   155   154    1
    42   157   154    1
    43   157   158    1
    44    96    93    1
    45    96    97    1
    46    93    92    1
    47   159   158   ar
    48   159   161   ar
    49   144   145    1
    50   154   153    1
    51    98    97   ar
    52    98   100   ar
    53   158   160   ar
    54   153   146   am
    55    87    86    2
    56   114   115    1
    57   114   113   ar
    58    97    99   ar
    59   111   113   ar
    60   161   162   ar
    61    92    86   am
    62    86    85    1
    63   146   145    1
    64   146   147    2
    65   100   102   ar
    66   145   148    1
    67   160   162   ar
    68    99   101   ar
    69   148   149    1
    70   163   164    1
    71    85    84    1
    72    85    88    1
    73   102   101   ar
    74   102   103    1
    75   165   164    1
    76   165   166    2
    77   149   150    1
    78   164   167    1
    79    88    89    1
    80   167   168    1
    81   150   151    1
    82    90    89   ar
    83    79    78    2
    84   151   152    1
    85    89    91   ar
    86    78    77    1
    87    32    31    1
    88    30    31    2
    89    30    29    1
    90    51    49   ar
    91    77    76    1
    92    77    80    1
    93    31    33    1
    94    82    80    1
    95    29    28    1
    96    80    81    1
    97    49    50   ar
    98    49    48    1
    99    28    27    1
   100    27    24    1
   101    48    45    1
   102    81    83    1
   103    75    73   ar
   104     2     3    1
   105     2     1    1
   106     5     6    1
   107     5     3   am
   108     6     7    1
   109     3     4    2
   110    59    57   ar
   111    24    23    1
   112    24    25    1
   113    73    74   ar
   114    73    72    1
   115    66    65   ar
   116    67    65   ar
   117    45    44    1
   118    45    46    1
   119    44    36   am
   120    65    64    1
   121    57    58   ar
   122    57    56    1
   123     7     8    2
   124     7     9   am
   125    25    26    2
   126    40    42   ar
   127    40    39   ar
   128    46    52   am
   129    46    47    2
   130    42    43   ar
   131    35    36    1
   132    35    34    1
   133    35    38    1
   134    36    37    2
   135    72    69    1
   136    52    53    1
   137    56    53    1
   138    64    61    1
   139     9    10    1
   140    39    38    1
   141    39    41   ar
   142    43    41   ar
   143    53    54    1
   144    69    70    1
   145    69    68    1
   146    55    54    2
   147    71    70    2
   148    61    60    1
   149    61    62    1
   150    10    11    1
   151    10    13    1
   152    11    12    2
   153    62    63    2
   154    13    14    1
   155    15    14   ar
   156    15    17   ar
   157    14    16   ar
   158    17    18   ar
   159    16    18   ar
   160    16    19   ar
   161    18    20   ar
   162    19    21   ar
   163    20    22   ar
   164    21    22   ar
