@<TRIPOS>MOLECULE
tmp/5cftA01.pdb
 139 131 0 0 0
SMALL
GASTEIGER

@<TRIPOS>ATOM
      1  N        -18.5730   -8.0730    8.9540 N.3    43  ASP43      -0.1239
      2  CA       -17.4660   -8.3070    9.8940 C.3    43  ASP43       0.1674
      3  C        -17.0850   -7.0440   10.6230 C.2    43  ASP43       0.2266
      4  O        -17.7200   -5.9950   10.4530 O.2    43  ASP43      -0.2867
      5  CB       -16.2350   -8.9310    9.1800 C.3    43  ASP43       0.1410
      6  CG       -15.6080   -8.0520    8.1880 C.2    43  ASP43       0.3668
      7  OD1      -15.8070   -6.8480    8.2400 O.co2  43  ASP43      -0.2456
      8  OD2      -14.8070   -8.5890    7.3390 O.co2  43  ASP43      -0.2456
      9  N        -13.6640   -4.8760   11.0540 N.3    45  ASP45      -0.1239
     10  CA       -12.3060   -4.6110   10.6180 C.3    45  ASP45       0.1674
     11  C        -11.5720   -3.8410   11.6950 C.2    45  ASP45       0.2266
     12  O        -12.0580   -2.8180   12.1760 O.2    45  ASP45      -0.2867
     13  CB       -12.3360   -3.8340    9.3070 C.3    45  ASP45       0.1410
     14  CG       -13.0760   -4.5520    8.2140 C.2    45  ASP45       0.3668
     15  OD1      -12.5560   -5.5780    7.6890 O.co2  45  ASP45      -0.2456
     16  OD2      -14.2090   -4.1280    7.8460 O.co2  45  ASP45      -0.2456
     17  N         -3.8650  -14.1600    6.5230 N.3    71  LEU71      -0.1245
     18  CA        -3.9490  -13.6350    5.1510 C.3    71  LEU71       0.1561
     19  C         -2.6750  -12.9280    4.8020 C.2    71  LEU71       0.2260
     20  O         -1.8090  -12.7350    5.6580 O.2    71  LEU71      -0.2867
     21  CB        -5.1110  -12.6490    4.9980 C.3    71  LEU71       0.0270
     22  CG        -6.5400  -13.1790    5.0060 C.3    71  LEU71       0.0019
     23  CD1       -6.7590  -14.3580    4.0450 C.3    71  LEU71       0.0001
     24  CD2       -6.8480  -13.5140    6.3870 C.3    71  LEU71       0.0001
     25  N         -2.1870   -9.8840    4.4050 N.3    73  TYR73      -0.1241
     26  CA        -2.0540   -8.5680    5.0210 C.3    73  TYR73       0.1605
     27  C         -2.2990   -8.5900    6.5450 C.2    73  TYR73       0.2264
     28  O         -2.1430   -7.5430    7.1890 O.2    73  TYR73      -0.2867
     29  CB        -3.0510   -7.5550    4.3850 C.3    73  TYR73       0.0534
     30  CG        -4.4900   -7.9950    4.6490 C.ar   73  TYR73      -0.0201
     31  CD1       -5.1420   -7.7180    5.8780 C.ar   73  TYR73      -0.0009
     32  CD2       -5.1840   -8.7190    3.7150 C.ar   73  TYR73      -0.0009
     33  CE1       -6.4210   -8.1910    6.0890 C.ar   73  TYR73       0.0417
     34  CE2       -6.4680   -9.2040    3.9580 C.ar   73  TYR73       0.0417
     35  CZ        -7.0610   -8.9100    5.1300 C.ar   73  TYR73       0.1957
     36  OH        -8.3220   -9.4050    5.2980 O.3    73  TYR73      -0.2866
     37  N         -7.5830  -13.2840   10.2470 N.3    76  LEU76      -0.1245
     38  CA        -8.9880  -13.2990   10.6190 C.3    76  LEU76       0.1561
     39  C         -9.0570  -14.0280   11.9530 C.2    76  LEU76       0.2260
     40  O         -8.3080  -14.9780   12.2360 O.2    76  LEU76      -0.2867
     41  CB        -9.8870  -13.9940    9.5810 C.3    76  LEU76       0.0270
     42  CG        -9.7480  -13.5330    8.1230 C.3    76  LEU76       0.0019
     43  CD1      -10.7270  -14.3840    7.3280 C.3    76  LEU76       0.0001
     44  CD2      -10.1130  -12.0700    7.9440 C.3    76  LEU76       0.0001
     45  N        -16.8790  -12.3190   12.8760 N.3    83  LEU83      -0.1245
     46  CA       -15.5670  -12.2810   12.2910 C.3    83  LEU83       0.1561
     47  C        -14.8420  -10.9750   12.5130 C.2    83  LEU83       0.2260
     48  O        -15.4350   -9.9150   12.3210 O.2    83  LEU83      -0.2867
     49  CB       -15.6790  -12.4910   10.7980 C.3    83  LEU83       0.0270
     50  CG       -14.4330  -12.8360   10.0740 C.3    83  LEU83       0.0019
     51  CD1      -14.0980  -14.2550   10.5010 C.3    83  LEU83       0.0001
     52  CD2      -14.7950  -12.7670    8.5820 C.3    83  LEU83       0.0001
     53  N        -11.4970   -8.9490   11.2110 N.3    85  ASP85      -0.1239
     54  CA       -10.5520   -8.9150   10.1040 C.3    85  ASP85       0.1674
     55  C         -9.4690   -7.9360   10.4930 C.2    85  ASP85       0.2266
     56  O         -9.7270   -6.7180   10.5290 O.2    85  ASP85      -0.2867
     57  CB       -11.3090   -8.5060    8.8470 C.3    85  ASP85       0.1410
     58  CG       -10.4730   -8.3970    7.6380 C.2    85  ASP85       0.3668
     59  OD1       -9.2680   -8.6550    7.6600 O.co2  85  ASP85      -0.2456
     60  OD2      -11.0660   -8.1090    6.5730 O.co2  85  ASP85      -0.2456
     61  N         -5.6330   -6.1380   10.7170 N.3    87  GLU87      -0.1231
     62  CA        -4.4530   -5.7670    9.9820 C.3    87  GLU87       0.1684
     63  C         -3.5130   -4.9590   10.8770 C.2    87  GLU87       0.2434
     64  O         -3.9630   -4.0770   11.6320 O.2    87  GLU87      -0.2733
     65  CB        -4.8640   -4.9350    8.7490 C.3    87  GLU87       0.0402
     66  CG        -3.7360   -4.5240    7.9490 C.3    87  GLU87       0.1161
     67  CD        -4.0990   -3.8330    6.6560 C.2    87  GLU87       0.3649
     68  OE1       -4.9340   -2.9620    6.6750 O.co2  87  GLU87      -0.2457
     69  OE2       -3.4550   -4.1550    5.6200 O.co2  87  GLU87      -0.2457
     70  N         -2.2080   -5.1680   10.7510 N.am   88  PRO88      -0.2729
     71  CA        -1.2560   -4.3950   11.5380 C.3    88  PRO88       0.1401
     72  C         -1.0600   -2.9930   10.9840 C.2    88  PRO88       0.2269
     73  O         -1.1400   -2.7400    9.7650 O.2    88  PRO88      -0.2865
     74  CB         0.0210   -5.2020   11.4200 C.3    88  PRO88       0.0296
     75  CG        -0.1120   -5.8290   10.0350 C.3    88  PRO88       0.0237
     76  CD        -1.5470   -6.2540   10.0230 C.3    88  PRO88       0.0939
     77  N         -0.8030    2.4320    8.7830 N.3    98  ILE98      -0.1231
     78  CA        -0.9710    1.3010    7.8820 C.3    98  ILE98       0.1692
     79  C          0.0850    1.4440    6.7530 C.2    98  ILE98       0.2592
     80  O          0.2170    2.5280    6.1450 O.2    98  ILE98      -0.2718
     81  CB        -2.3730    1.2730    7.3580 C.3    98  ILE98       0.0266
     82  CG1       -3.3710    0.9510    8.4730 C.3    98  ILE98       0.0019
     83  CG2       -2.5330    0.3210    6.1960 C.3    98  ILE98       0.0020
     84  CD1       -4.8210    1.2890    8.1520 C.3    98  ILE98       0.0001
     85  N          0.7840    0.3700    6.4110 N.am   99  ALA99      -0.1966
     86  CA         1.8240    0.4470    5.3950 C.3    99  ALA99       0.1728
     87  C          1.2280    0.9310    4.0950 C.2    99  ALA99       0.2616
     88  O          0.1660    0.4840    3.6730 O.2    99  ALA99      -0.2715
     89  CB         2.5060   -0.8800    5.2320 C.3    99  ALA99       0.0334
     90  N          1.9300    1.8850    3.4940 N.am  100  GLU100     -0.1977
     91  CA         1.6220    2.4500    2.1830 C.3   100  GLU100      0.1602
     92  C          0.3460    3.3340    2.1390 C.2   100  GLU100      0.2287
     93  O          0.0020    3.8230    1.0670 O.2   100  GLU100     -0.2864
     94  CB         1.5370    1.3270    1.1390 C.3   100  GLU100      0.0415
     95  CG         2.8900    0.5590    0.9660 C.3   100  GLU100      0.1163
     96  CD         2.8590   -0.4740   -0.1480 C.2   100  GLU100      0.3649
     97  OE1        3.1310   -1.6590    0.1270 O.co2 100  GLU100     -0.2457
     98  OE2        2.5500   -0.1090   -1.3010 O.co2 100  GLU100     -0.2457
     99  N         -8.2940    2.1360    0.7090 N.3   130  ASP130     -0.1239
    100  CA        -8.5010    0.7020    0.5140 C.3   130  ASP130      0.1674
    101  C         -9.5080    0.4070   -0.5830 C.2   130  ASP130      0.2266
    102  O         -9.4060   -0.6240   -1.2230 O.2   130  ASP130     -0.2867
    103  CB        -8.9140    0.0070    1.8150 C.3   130  ASP130      0.1410
    104  CG        -7.7710   -0.6410    2.5470 C.2   130  ASP130      0.3668
    105  OD1       -6.6630   -0.7000    1.9980 O.co2 130  ASP130     -0.2456
    106  OD2       -8.0470   -1.1140    3.6800 O.co2 130  ASP130     -0.2456
    107  N         -7.5290    0.2130   -3.8480 N.3   133  TYR133     -0.1227
    108  CA        -6.9530   -1.1050   -4.1130 C.3   133  TYR133      0.1736
    109  C         -8.0330   -2.0470   -4.6320 C.2   133  TYR133      0.2595
    110  O         -7.8140   -2.8000   -5.5530 O.2   133  TYR133     -0.2718
    111  CB        -6.3500   -1.7370   -2.8610 C.3   133  TYR133      0.0548
    112  CG        -5.0950   -1.1170   -2.3140 C.ar  133  TYR133     -0.0200
    113  CD1       -3.9060   -1.1380   -3.0300 C.ar  133  TYR133     -0.0009
    114  CD2       -5.0910   -0.5890   -1.0280 C.ar  133  TYR133     -0.0009
    115  CE1       -2.7920   -0.5870   -2.5020 C.ar  133  TYR133      0.0417
    116  CE2       -3.9590   -0.0370   -0.4980 C.ar  133  TYR133      0.0417
    117  CZ        -2.8200   -0.0690   -1.2380 C.ar  133  TYR133      0.1957
    118  OH        -1.7070    0.4930   -0.6500 O.3   133  TYR133     -0.2866
    119  N         -9.1990   -1.9710   -4.0100 N.am  134  TYR134     -0.1976
    120  CA       -10.3260   -2.8160   -4.4040 C.3   134  TYR134      0.1639
    121  C        -10.6650   -2.5740   -5.8780 C.2   134  TYR134      0.2290
    122  O        -10.8990   -3.5330   -6.6340 O.2   134  TYR134     -0.2864
    123  CB       -11.5020   -2.5070   -3.4970 C.3   134  TYR134      0.0560
    124  CG       -12.7600   -3.3400   -3.5760 C.ar  134  TYR134     -0.0198
    125  CD1      -12.7480   -4.5960   -4.0870 C.ar  134  TYR134     -0.0009
    126  CD2      -13.9460   -2.8290   -3.0620 C.ar  134  TYR134     -0.0009
    127  CE1      -13.9220   -5.3650   -4.1270 C.ar  134  TYR134      0.0417
    128  CE2      -15.1000   -3.5590   -3.1000 C.ar  134  TYR134      0.0417
    129  CZ       -15.0690   -4.8120   -3.6270 C.ar  134  TYR134      0.1957
    130  OH       -16.2270   -5.5780   -3.6340 O.3   134  TYR134     -0.2866
    131  N         -8.7030   -4.4290   -8.1830 N.3   137  GLU137     -0.1245
    132  CA        -9.0810   -5.8510   -8.1680 C.3   137  GLU137      0.1567
    133  C        -10.4740   -6.1020   -8.7680 C.2   137  GLU137      0.2260
    134  O        -10.7300   -7.1940   -9.2780 O.2   137  GLU137     -0.2867
    135  CB        -9.0220   -6.3920   -6.7350 C.3   137  GLU137      0.0388
    136  CG        -7.6450   -6.2580   -6.0680 C.3   137  GLU137      0.1160
    137  CD        -6.5900   -7.0450   -6.8110 C.2   137  GLU137      0.3649
    138  OE1       -6.9540   -8.0530   -7.4620 O.co2 137  GLU137     -0.2457
    139  OE2       -5.4030   -6.6450   -6.7680 O.co2 137  GLU137     -0.2457
@<TRIPOS>BOND
     1   134   133    2
     2   133   132    1
     3   131   132    1
     4   132   135    1
     5   138   137   ar
     6   137   139   ar
     7   137   136    1
     8   135   136    1
     9   122   121    2
    10   121   120    1
    11   110   109    2
    12   109   108    1
    13   109   119   am
    14   120   119    1
    15   120   123    1
    16   127   125   ar
    17   127   129   ar
    18   108   107    1
    19   108   111    1
    20   125   124   ar
    21   130   129    1
    22   129   128   ar
    23   124   123    1
    24   124   126   ar
    25   128   126   ar
    26   113   115   ar
    27   113   112   ar
    28   111   112    1
    29   115   117   ar
    30   112   114   ar
    31    98    96   ar
    32   117   118    1
    33   117   116   ar
    34   102   101    2
    35   114   116   ar
    36   101   100    1
    37    96    97   ar
    38    96    95    1
    39   100    99    1
    40   100   103    1
    41    95    94    1
    42    93    92    2
    43    94    91    1
    44   103   104    1
    45   105   104   ar
    46    92    91    1
    47    91    90    1
    48   104   106   ar
    49    90    87   am
    50    88    87    2
    51    32    34   ar
    52    32    30   ar
    53    34    35   ar
    54    23    22    1
    55    87    86    1
    56    29    30    1
    57    29    26    1
    58    25    26    1
    59    30    31   ar
    60    19    18    1
    61    19    20    2
    62    21    22    1
    63    21    18    1
    64    22    24    1
    65    26    27    1
    66    35    36    1
    67    35    33   ar
    68    18    17    1
    69    89    86    1
    70    86    85    1
    71    69    67   ar
    72    31    33   ar
    73    80    79    2
    74    83    81    1
    75    85    79   am
    76    27    28    2
    77    60    58   ar
    78    67    68   ar
    79    67    66    1
    80    79    78    1
    81    43    42    1
    82     8     6   ar
    83    81    78    1
    84    81    82    1
    85    58    59   ar
    86    58    57    1
    87    15    14   ar
    88    16    14   ar
    89    78    77    1
    90    44    42    1
    91    66    65    1
    92    42    41    1
    93    84    82    1
    94     6     7   ar
    95     6     5    1
    96    14    13    1
    97    52    50    1
    98    65    62    1
    99    57    54    1
   100     1     2    1
   101     5     2    1
   102    13    10    1
   103    41    38    1
   104    73    72    2
   105     2     3    1
   106    62    61    1
   107    62    63    1
   108    76    75    1
   109    76    70    1
   110    75    74    1
   111    50    51    1
   112    50    49    1
   113    54    55    1
   114    54    53    1
   115    37    38    1
   116     4     3    2
   117    55    56    2
   118    10     9    1
   119    10    11    1
   120    38    39    1
   121    70    63   am
   122    70    71    1
   123    49    46    1
   124    63    64    2
   125    72    71    1
   126    74    71    1
   127    11    12    2
   128    39    40    2
   129    46    47    1
   130    46    45    1
   131    48    47    2
