@<TRIPOS>MOLECULE
tmp/5cfuA01.pdb
 113 112 0 0 0
SMALL
GASTEIGER

@<TRIPOS>ATOM
      1  N         -5.5320   -0.1180  -15.1170 N.3    25  GLY25      -0.1210
      2  CA        -6.0090    0.7880  -16.1400 C.3    25  GLY25       0.1956
      3  C         -5.5400    2.2130  -15.9180 C.2    25  GLY25       0.2612
      4  O         -4.3800    2.4400  -15.5340 O.2    25  GLY25      -0.2717
      5  N         -6.4320    3.1710  -16.1760 N.am   26  GLY26      -0.1942
      6  CA        -6.0670    4.5780  -16.1420 C.3    26  GLY26       0.2014
      7  C         -5.5510    5.0420  -14.8000 C.2    26  GLY26       0.2638
      8  O         -4.6190    5.8410  -14.7430 O.2    26  GLY26      -0.2714
      9  N         -6.1430    4.5680  -13.7050 N.am   27  TRP27      -0.1973
     10  CA        -5.6390    4.9650  -12.3740 C.3    27  TRP27       0.1640
     11  C         -4.2650    4.3680  -12.0660 C.2    27  TRP27       0.2290
     12  O         -3.4850    4.9790  -11.3350 O.2    27  TRP27      -0.2864
     13  CB        -6.6340    4.5970  -11.2860 C.3    27  TRP27       0.0576
     14  CG        -7.6250    5.6770  -11.0790 C.ar   27  TRP27       0.0006
     15  CD1       -8.9490    5.6260  -11.3340 C.ar   27  TRP27       0.0946
     16  CD2       -7.3580    6.9950  -10.5730 C.ar   27  TRP27       0.0152
     17  NE1       -9.5370    6.8270  -11.0150 N.ar   27  TRP27      -0.2442
     18  CE2       -8.5800    7.6870  -10.5500 C.ar   27  TRP27       0.0810
     19  CE3       -6.2010    7.6540  -10.1630 C.ar   27  TRP27       0.0012
     20  CZ2       -8.6870    9.0160  -10.1080 C.ar   27  TRP27       0.0191
     21  CZ3       -6.3090    8.9790   -9.7160 C.ar   27  TRP27       0.0001
     22  CH2       -7.5430    9.6370   -9.7010 C.ar   27  TRP27       0.0015
     23  N         -6.0080   12.8720  -16.1560 N.3    38  ARG38      -0.1231
     24  CA        -7.3060   13.1250  -16.7590 C.3    38  ARG38       0.1694
     25  C         -8.4220   12.4870  -15.9430 C.2    38  ARG38       0.2592
     26  O         -8.1610   11.8350  -14.9240 O.2    38  ARG38      -0.2718
     27  CB        -7.3440   12.5880  -18.1850 C.3    38  ARG38       0.0321
     28  CG        -7.2040   11.0560  -18.3120 C.3    38  ARG38       0.0489
     29  CD        -8.0370   10.5900  -19.4880 C.3    38  ARG38       0.2205
     30  NE        -7.6990    9.2500  -19.9740 N.pl3  38  ARG38      -0.0865
     31  CZ        -8.3470    8.1270  -19.6620 C.cat  38  ARG38       0.5346
     32  NH1       -9.3810    8.1230  -18.8210 N.pl3  38  ARG38       0.1354
     33  NH2       -7.9430    6.9810  -20.1940 N.pl3  38  ARG38       0.1354
     34  N         -9.6570   12.6770  -16.4000 N.am   39  LYS39      -0.1966
     35  CA       -10.8250   12.0380  -15.7980 C.3    39  LYS39       0.1728
     36  C        -10.8870   10.5510  -16.1800 C.2    39  LYS39       0.2616
     37  O        -10.5940   10.1870  -17.3170 O.2    39  LYS39      -0.2715
     38  CB       -12.1000   12.7490  -16.2450 C.3    39  LYS39       0.0311
     39  CG       -13.2900   12.5110  -15.3340 C.3    39  LYS39       0.0038
     40  CD       -14.5890   13.0310  -15.9450 C.3    39  LYS39       0.0206
     41  CE       -15.0780   12.1260  -17.0640 C.3    39  LYS39       0.1093
     42  NZ       -16.3720   12.5890  -17.6450 N.3    39  LYS39      -0.1314
     43  N        -11.2740    9.7100  -15.2260 N.am   40  HIS40      -0.1959
     44  CA       -11.3110    8.2570  -15.3900 C.3    40  HIS40       0.1787
     45  C        -12.7610    7.8270  -15.2270 C.2    40  HIS40       0.2620
     46  O        -13.4340    8.2450  -14.2760 O.2    40  HIS40      -0.2715
     47  CB       -10.4040    7.5680  -14.3750 C.3    40  HIS40       0.0785
     48  CG        -8.9800    8.0220  -14.4480 C.ar   40  HIS40       0.0821
     49  ND1       -8.1300    7.6160  -15.4510 N.ar   40  HIS40      -0.2267
     50  CD2       -8.2780    8.8990  -13.6880 C.ar   40  HIS40       0.1154
     51  CE1       -6.9550    8.1990  -15.2870 C.ar   40  HIS40       0.1986
     52  NE2       -7.0200    8.9840  -14.2280 N.ar   40  HIS40      -0.2212
     53  N        -13.2530    7.0350  -16.1720 N.am   41  ASP41      -0.1957
     54  CA       -14.6550    6.6340  -16.1680 C.3    41  ASP41       0.1840
     55  C        -14.9520    5.6610  -15.0480 C.2    41  ASP41       0.2622
     56  O        -16.0140    5.7380  -14.4290 O.2    41  ASP41      -0.2715
     57  CB       -15.0460    6.0060  -17.5100 C.3    41  ASP41       0.1450
     58  CG       -15.3630    7.0390  -18.5660 C.2    41  ASP41       0.3671
     59  OD1      -15.2130    8.2490  -18.2820 O.co2  41  ASP41      -0.2456
     60  OD2      -15.7650    6.6370  -19.6820 O.co2  41  ASP41      -0.2456
     61  N        -14.0170    4.7600  -14.7720 N.am   42  ASP42      -0.1971
     62  CA       -14.2300    3.7530  -13.7290 C.3    42  ASP42       0.1709
     63  C        -12.9830    3.6040  -12.8590 C.2    42  ASP42       0.2293
     64  O        -11.9810    4.2860  -13.0520 O.2    42  ASP42      -0.2864
     65  CB       -14.6460    2.3990  -14.3560 C.3    42  ASP42       0.1436
     66  CG       -13.5330    1.7340  -15.1270 C.2    42  ASP42       0.3671
     67  OD1      -12.4250    2.2960  -15.2060 O.co2  42  ASP42      -0.2456
     68  OD2      -13.7600    0.6260  -15.6760 O.co2  42  ASP42      -0.2456
     69  N        -10.4880    0.5430  -11.9830 N.3    44  ASP44      -0.1239
     70  CA       -10.1090   -0.8140  -12.3400 C.3    44  ASP44       0.1674
     71  C         -9.2710   -1.4360  -11.2300 C.2    44  ASP44       0.2266
     72  O         -8.3020   -0.8270  -10.7720 O.2    44  ASP44      -0.2867
     73  CB        -9.3290   -0.8110  -13.6450 C.3    44  ASP44       0.1410
     74  CG       -10.1100   -0.2030  -14.7660 C.2    44  ASP44       0.3668
     75  OD1      -11.1310   -0.8010  -15.1780 O.co2  44  ASP44      -0.2456
     76  OD2       -9.7070    0.8950  -15.2140 O.co2  44  ASP44      -0.2456
     77  N         -3.9800   -2.8880  -23.7240 N.3   130  TYR130     -0.1241
     78  CA        -4.1610   -2.1070  -24.9580 C.3   130  TYR130      0.1605
     79  C         -3.9810   -2.9510  -26.2010 C.2   130  TYR130      0.2264
     80  O         -4.6200   -2.6970  -27.2260 O.2   130  TYR130     -0.2867
     81  CB        -3.1940   -0.9110  -25.0080 C.3   130  TYR130      0.0534
     82  CG        -3.6850    0.2700  -24.2080 C.ar  130  TYR130     -0.0201
     83  CD1       -4.7300    1.0400  -24.6700 C.ar  130  TYR130     -0.0009
     84  CD2       -3.1320    0.5900  -22.9690 C.ar  130  TYR130     -0.0009
     85  CE1       -5.1900    2.1140  -23.9420 C.ar  130  TYR130      0.0417
     86  CE2       -3.5950    1.6630  -22.2370 C.ar  130  TYR130      0.0417
     87  CZ        -4.6230    2.4170  -22.7270 C.ar  130  TYR130      0.1957
     88  OH        -5.1040    3.4890  -22.0030 O.3   130  TYR130     -0.2866
     89  N         -9.2380    9.4460  -25.7200 N.3   145  LYS145     -0.1231
     90  CA        -8.6480    9.3660  -24.3840 C.3   145  LYS145      0.1693
     91  C         -7.7900    8.0900  -24.2380 C.2   145  LYS145      0.2592
     92  O         -6.8740    8.0360  -23.4300 O.2   145  LYS145     -0.2718
     93  CB        -9.7240    9.3760  -23.2970 C.3   145  LYS145      0.0285
     94  CG       -10.6110    8.1350  -23.3080 C.3   145  LYS145      0.0035
     95  CD       -11.5830    8.0930  -22.1330 C.3   145  LYS145      0.0206
     96  CE       -12.4120    6.8100  -22.1640 C.3   145  LYS145      0.1093
     97  NZ       -13.3610    6.7040  -21.0200 N.3   145  LYS145     -0.1314
     98  N         -8.0870    7.0670  -25.0300 N.am  146  HIS146     -0.1976
     99  CA        -7.3210    5.8200  -24.9390 C.3   146  HIS146      0.1656
    100  C         -6.1430    5.8020  -25.8800 C.2   146  HIS146      0.2291
    101  O         -5.1250    5.2020  -25.5660 O.2   146  HIS146     -0.2864
    102  CB        -8.2160    4.6190  -25.1750 C.3   146  HIS146      0.0771
    103  CG        -8.8780    4.1760  -23.9190 C.ar  146  HIS146      0.0820
    104  ND1       -8.1590    3.9200  -22.7720 N.ar  146  HIS146     -0.2267
    105  CD2      -10.1800    4.0310  -23.5930 C.ar  146  HIS146      0.1154
    106  CE1       -8.9920    3.5980  -21.8000 C.ar  146  HIS146      0.1986
    107  NE2      -10.2210    3.6630  -22.2710 N.ar  146  HIS146     -0.2212
    108  N         -3.7510    7.8230  -23.6430 N.3   149  SER149     -0.1217
    109  CA        -3.2720    7.1110  -22.4570 C.3   149  SER149      0.1889
    110  C         -2.3010    5.9980  -22.8720 C.2   149  SER149      0.2288
    111  O         -1.3110    5.7670  -22.1960 O.2   149  SER149     -0.2866
    112  CB        -4.4370    6.5590  -21.6390 C.3   149  SER149      0.2089
    113  OG        -5.1220    7.6260  -21.0100 O.3   149  SER149     -0.2183
@<TRIPOS>BOND
     1    80    79    2
     2    79    78    1
     3   100   101    2
     4   100    99    1
     5    89    90    1
     6   102    99    1
     7   102   103    1
     8    98    99    1
     9    98    91   am
    10    81    78    1
    11    81    82    1
    12    78    77    1
    13    83    82   ar
    14    83    85   ar
    15    90    91    1
    16    90    93    1
    17    91    92    2
    18    82    84   ar
    19    85    87   ar
    20   103   105   ar
    21   103   104   ar
    22   108   109    1
    23   105   107   ar
    24    94    93    1
    25    94    95    1
    26    84    86   ar
    27   110   109    1
    28   110   111    2
    29   104   106   ar
    30    87    86   ar
    31    87    88    1
    32   109   112    1
    33   107   106   ar
    34    96    95    1
    35    96    97    1
    36   112   113    1
    37    33    31    1
    38    30    31    2
    39    30    29    1
    40    60    58   ar
    41    31    32    1
    42    29    28    1
    43    58    59   ar
    44    58    57    1
    45    28    27    1
    46    27    24    1
    47    42    41    1
    48    57    54    1
    49    37    36    2
    50    41    40    1
    51    24    23    1
    52    24    25    1
    53    34    25   am
    54    34    35    1
    55    38    35    1
    56    38    39    1
    57    36    35    1
    58    36    43   am
    59     5     6    1
    60     5     3   am
    61    53    54    1
    62    53    45   am
    63    54    55    1
    64     6     7    1
    65     2     3    1
    66     2     1    1
    67    40    39    1
    68    25    26    2
    69     3     4    2
    70    68    66   ar
    71    49    51   ar
    72    49    48   ar
    73    44    45    1
    74    44    43    1
    75    44    47    1
    76    51    52   ar
    77    45    46    2
    78    76    74   ar
    79    67    66   ar
    80    75    74   ar
    81    66    65    1
    82    55    61   am
    83    55    56    2
    84     7     8    2
    85     7     9   am
    86    61    62    1
    87    74    73    1
    88    48    47    1
    89    48    50   ar
    90    65    62    1
    91    52    50   ar
    92    62    63    1
    93     9    10    1
    94    73    70    1
    95    64    63    2
    96    10    11    1
    97    10    13    1
    98    70    69    1
    99    70    71    1
   100    11    12    2
   101    15    14   ar
   102    15    17   ar
   103    13    14    1
   104    71    72    2
   105    14    16   ar
   106    17    18   ar
   107    16    18   ar
   108    16    19   ar
   109    18    20   ar
   110    19    21   ar
   111    20    22   ar
   112    21    22   ar
