@<TRIPOS>MOLECULE
tmp/5cfuA00.pdb
 213 207 0 0 0
SMALL
GASTEIGER

@<TRIPOS>ATOM
      1  N         -5.5320   -0.1180  -15.1170 N.3    25  GLY25      -0.1210
      2  CA        -6.0090    0.7880  -16.1400 C.3    25  GLY25       0.1956
      3  C         -5.5400    2.2130  -15.9180 C.2    25  GLY25       0.2612
      4  O         -4.3800    2.4400  -15.5340 O.2    25  GLY25      -0.2717
      5  N         -6.4320    3.1710  -16.1760 N.am   26  GLY26      -0.1956
      6  CA        -6.0670    4.5780  -16.1420 C.3    26  GLY26       0.1869
      7  C         -5.5510    5.0420  -14.8000 C.2    26  GLY26       0.2309
      8  O         -4.6190    5.8410  -14.7430 O.2    26  GLY26      -0.2863
      9  N         -1.9540    3.9610  -14.4010 N.3    29  ILE29      -0.1245
     10  CA        -1.0570    4.8550  -15.1110 C.3    29  ILE29       0.1561
     11  C         -0.7760    6.0870  -14.2440 C.2    29  ILE29       0.2260
     12  O          0.3800    6.4570  -13.9890 O.2    29  ILE29      -0.2867
     13  CB        -1.6600    5.2590  -16.4720 C.3    29  ILE29       0.0252
     14  CG1       -1.7630    4.0170  -17.3620 C.3    29  ILE29       0.0019
     15  CG2       -0.8160    6.3520  -17.1370 C.3    29  ILE29       0.0019
     16  CD1       -2.3750    4.2610  -18.7820 C.3    29  ILE29       0.0001
     17  N        -13.2530    7.0350  -16.1720 N.3    41  ASP41      -0.1225
     18  CA       -14.6550    6.6340  -16.1680 C.3    41  ASP41       0.1805
     19  C        -14.9520    5.6610  -15.0480 C.2    41  ASP41       0.2597
     20  O        -16.0140    5.7380  -14.4290 O.2    41  ASP41      -0.2718
     21  CB       -15.0460    6.0060  -17.5100 C.3    41  ASP41       0.1424
     22  CG       -15.3630    7.0390  -18.5660 C.2    41  ASP41       0.3668
     23  OD1      -15.2130    8.2490  -18.2820 O.co2  41  ASP41      -0.2456
     24  OD2      -15.7650    6.6370  -19.6820 O.co2  41  ASP41      -0.2456
     25  N        -14.0170    4.7600  -14.7720 N.am   42  ASP42      -0.1974
     26  CA       -14.2300    3.7530  -13.7290 C.3    42  ASP42       0.1709
     27  C        -12.9830    3.6040  -12.8590 C.2    42  ASP42       0.2293
     28  O        -11.9810    4.2860  -13.0520 O.2    42  ASP42      -0.2864
     29  CB       -14.6460    2.3990  -14.3560 C.3    42  ASP42       0.1436
     30  CG       -13.5330    1.7340  -15.1270 C.2    42  ASP42       0.3671
     31  OD1      -12.4250    2.2960  -15.2060 O.co2  42  ASP42      -0.2456
     32  OD2      -13.7600    0.6260  -15.6760 O.co2  42  ASP42      -0.2456
     33  N        -10.4880    0.5430  -11.9830 N.3    44  ASP44      -0.1239
     34  CA       -10.1090   -0.8140  -12.3400 C.3    44  ASP44       0.1674
     35  C         -9.2710   -1.4360  -11.2300 C.2    44  ASP44       0.2266
     36  O         -8.3020   -0.8270  -10.7720 O.2    44  ASP44      -0.2867
     37  CB        -9.3290   -0.8110  -13.6450 C.3    44  ASP44       0.1410
     38  CG       -10.1100   -0.2030  -14.7660 C.2    44  ASP44       0.3668
     39  OD1      -11.1310   -0.8010  -15.1780 O.co2  44  ASP44      -0.2456
     40  OD2       -9.7070    0.8950  -15.2140 O.co2  44  ASP44      -0.2456
     41  N        -18.6750  -10.6810  -15.4930 N.3    70  LEU70      -0.1231
     42  CA       -18.0100  -10.4240  -16.7610 C.3    70  LEU70       0.1693
     43  C        -17.2120  -11.6490  -17.1920 C.2    70  LEU70       0.2592
     44  O        -16.9500  -12.5470  -16.3780 O.2    70  LEU70      -0.2718
     45  CB       -17.0750   -9.2140  -16.6260 C.3    70  LEU70       0.0284
     46  CG       -17.6670   -7.9520  -15.9770 C.3    70  LEU70       0.0019
     47  CD1      -16.5730   -7.0230  -15.4900 C.3    70  LEU70       0.0001
     48  CD2      -18.5680   -7.2330  -16.9670 C.3    70  LEU70       0.0001
     49  N        -16.8240  -11.6870  -18.4650 N.am   71  ASP71      -0.1960
     50  CA       -15.9830  -12.7660  -18.9770 C.3    71  ASP71       0.1840
     51  C        -14.6820  -12.8950  -18.1810 C.2    71  ASP71       0.2622
     52  O        -14.1460  -13.9920  -18.0200 O.2    71  ASP71      -0.2715
     53  CB       -15.6530  -12.5370  -20.4560 C.3    71  ASP71       0.1450
     54  CG       -16.8860  -12.5680  -21.3490 C.2    71  ASP71       0.3671
     55  OD1      -17.9710  -12.9950  -20.8930 O.co2  71  ASP71      -0.2456
     56  OD2      -16.7630  -12.1710  -22.5270 O.co2  71  ASP71      -0.2456
     57  N        -14.1590  -11.7700  -17.7080 N.am   72  TYR72      -0.1974
     58  CA       -12.8400  -11.7340  -17.0640 C.3    72  TYR72       0.1639
     59  C        -12.8950  -11.3880  -15.5710 C.2    72  TYR72       0.2290
     60  O        -11.8580  -11.2860  -14.9160 O.2    72  TYR72      -0.2864
     61  CB       -11.9420  -10.7100  -17.7760 C.3    72  TYR72       0.0560
     62  CG       -12.5510   -9.3210  -17.7680 C.ar   72  TYR72      -0.0198
     63  CD1      -12.4560   -8.5040  -16.6540 C.ar   72  TYR72      -0.0009
     64  CD2      -13.2690   -8.8470  -18.8670 C.ar   72  TYR72      -0.0009
     65  CE1      -13.0390   -7.2510  -16.6420 C.ar   72  TYR72       0.0417
     66  CE2      -13.8560   -7.6000  -18.8530 C.ar   72  TYR72       0.0417
     67  CZ       -13.7360   -6.8160  -17.7420 C.ar   72  TYR72       0.1957
     68  OH       -14.3140   -5.5790  -17.7340 O.3    72  TYR72      -0.2866
     69  N        -14.3730   -2.0220  -11.7940 N.3    84  ASP84      -0.1239
     70  CA       -14.1910   -3.0760  -12.7820 C.3    84  ASP84       0.1674
     71  C        -13.1130   -4.0330  -12.2500 C.2    84  ASP84       0.2266
     72  O        -11.9520   -3.6460  -12.1550 O.2    84  ASP84      -0.2867
     73  CB       -13.7960   -2.4560  -14.1140 C.3    84  ASP84       0.1410
     74  CG       -13.8950   -3.4320  -15.2710 C.2    84  ASP84       0.3668
     75  OD1      -14.8430   -3.3170  -16.0620 O.co2  84  ASP84      -0.2456
     76  OD2      -13.0360   -4.3130  -15.3890 O.co2  84  ASP84      -0.2456
     77  N        -10.9560   -7.6760  -11.7570 N.3    86  GLU86      -0.1245
     78  CA       -10.4060   -8.8680  -12.4010 C.3    86  GLU86       0.1567
     79  C         -9.5730   -9.6720  -11.4140 C.2    86  GLU86       0.2260
     80  O         -8.7360   -9.1050  -10.7320 O.2    86  GLU86      -0.2867
     81  CB        -9.5370   -8.4790  -13.5970 C.3    86  GLU86       0.0388
     82  CG        -8.8930   -9.6700  -14.3040 C.3    86  GLU86       0.1160
     83  CD        -8.2740   -9.3040  -15.6410 C.2    86  GLU86       0.3649
     84  OE1       -7.6880   -8.2040  -15.7520 O.co2  86  GLU86      -0.2457
     85  OE2       -8.3600  -10.1330  -16.5760 O.co2  86  GLU86      -0.2457
     86  N         -2.3590  -12.0720  -13.2720 N.3    97  ILE97      -0.1231
     87  CA        -3.5330  -11.9970  -14.1190 C.3    97  ILE97       0.1692
     88  C         -3.4190  -13.0670  -15.1980 C.2    97  ILE97       0.2592
     89  O         -2.3620  -13.2210  -15.8190 O.2    97  ILE97      -0.2718
     90  CB        -3.6710  -10.6060  -14.7570 C.3    97  ILE97       0.0266
     91  CG1       -3.9390   -9.5740  -13.6560 C.3    97  ILE97       0.0019
     92  CG2       -4.7440  -10.5670  -15.8320 C.3    97  ILE97       0.0020
     93  CD1       -3.7050   -8.1710  -14.1000 C.3    97  ILE97       0.0001
     94  N         -4.5010  -13.8020  -15.4210 N.am   98  ALA98      -0.1966
     95  CA        -4.5220  -14.8140  -16.4730 C.3    98  ALA98       0.1728
     96  C         -4.1030  -14.2220  -17.8360 C.2    98  ALA98       0.2616
     97  O         -4.5380  -13.1320  -18.2020 O.2    98  ALA98      -0.2715
     98  CB        -5.9110  -15.4460  -16.5840 C.3    98  ALA98       0.0334
     99  N         -3.2240  -14.9410  -18.5320 N.am   99  GLU99      -0.1963
    100  CA        -2.7380  -14.6420  -19.8990 C.3    99  GLU99       0.1733
    101  C         -1.8220  -13.3920  -20.0000 C.2    99  GLU99       0.2616
    102  O         -1.2810  -13.0750  -21.0670 O.2    99  GLU99      -0.2715
    103  CB        -3.9300  -14.5270  -20.8660 C.3    99  GLU99       0.0429
    104  CG        -4.7270  -15.8370  -20.9990 C.3    99  GLU99       0.1163
    105  CD        -3.9370  -16.9620  -21.6510 C.2    99  GLU99       0.3649
    106  OE1       -3.0320  -16.6790  -22.4680 O.co2  99  GLU99      -0.2457
    107  OE2       -4.2260  -18.1400  -21.3470 O.co2  99  GLU99      -0.2457
    108  N         -1.5400  -12.7660  -18.8770 N.am  100  ALA100     -0.1977
    109  CA        -0.7720  -11.5280  -18.8650 C.3   100  ALA100      0.1597
    110  C          0.7160  -11.8070  -18.6530 C.2   100  ALA100      0.2287
    111  O          1.0900  -12.8970  -18.1960 O.2   100  ALA100     -0.2864
    112  CB        -1.2790  -10.6180  -17.7770 C.3   100  ALA100      0.0319
    113  N         -0.4320   -3.2280  -18.0780 N.3   126  ILE126     -0.1245
    114  CA        -1.2300   -2.0960  -18.5380 C.3   126  ILE126      0.1561
    115  C         -1.2450   -2.0290  -20.0630 C.2   126  ILE126      0.2260
    116  O         -2.3010   -1.9330  -20.6720 O.2   126  ILE126     -0.2867
    117  CB        -0.6800   -0.7690  -17.9340 C.3   126  ILE126      0.0252
    118  CG1       -0.9420   -0.7190  -16.4250 C.3   126  ILE126      0.0019
    119  CG2       -1.3200    0.4390  -18.6120 C.3   126  ILE126      0.0019
    120  CD1       -0.1450    0.3890  -15.6920 C.3   126  ILE126      0.0001
    121  N         -0.3250   -4.4250  -22.1310 N.3   128  TRP128     -0.1227
    122  CA        -0.8750   -5.6840  -22.6530 C.3   128  TRP128      0.1737
    123  C         -2.3730   -5.5600  -22.9110 C.2   128  TRP128      0.2595
    124  O         -2.8930   -6.0860  -23.8930 O.2   128  TRP128     -0.2718
    125  CB        -0.5700   -6.8140  -21.6550 C.3   128  TRP128      0.0564
    126  CG        -0.7500   -8.2300  -22.1150 C.ar  128  TRP128      0.0003
    127  CD1       -1.8030   -9.0650  -21.8310 C.ar  128  TRP128      0.0946
    128  CD2        0.1770   -8.9950  -22.8840 C.ar  128  TRP128      0.0152
    129  NE1       -1.5790  -10.3110  -22.3890 N.ar  128  TRP128     -0.2442
    130  CE2       -0.3800  -10.2870  -23.0500 C.ar  128  TRP128      0.0810
    131  CE3        1.4140   -8.7190  -23.4720 C.ar  128  TRP128      0.0012
    132  CZ2        0.2780  -11.2920  -23.7430 C.ar  128  TRP128      0.0191
    133  CZ3        2.0600   -9.7250  -24.1750 C.ar  128  TRP128      0.0001
    134  CH2        1.4830  -10.9920  -24.3030 C.ar  128  TRP128      0.0015
    135  N         -3.0850   -4.8880  -22.0210 N.am  129  ASP129     -0.1960
    136  CA        -4.5210   -4.7470  -22.2100 C.3   129  ASP129      0.1840
    137  C         -4.8610   -3.8270  -23.3790 C.2   129  ASP129      0.2622
    138  O         -5.9090   -3.9910  -23.9810 O.2   129  ASP129     -0.2715
    139  CB        -5.1930   -4.2600  -20.9190 C.3   129  ASP129      0.1450
    140  CG        -5.6600   -5.4080  -20.0320 C.2   129  ASP129      0.3671
    141  OD1       -5.6140   -6.5690  -20.4970 O.co2 129  ASP129     -0.2456
    142  OD2       -6.0760   -5.1490  -18.8770 O.co2 129  ASP129     -0.2456
    143  N         -3.9800   -2.8880  -23.7240 N.am  130  TYR130     -0.1974
    144  CA        -4.1610   -2.1070  -24.9580 C.3   130  TYR130      0.1639
    145  C         -3.9810   -2.9510  -26.2010 C.2   130  TYR130      0.2290
    146  O         -4.6200   -2.6970  -27.2260 O.2   130  TYR130     -0.2864
    147  CB        -3.1940   -0.9110  -25.0080 C.3   130  TYR130      0.0560
    148  CG        -3.6850    0.2700  -24.2080 C.ar  130  TYR130     -0.0198
    149  CD1       -4.7300    1.0400  -24.6700 C.ar  130  TYR130     -0.0009
    150  CD2       -3.1320    0.5900  -22.9690 C.ar  130  TYR130     -0.0009
    151  CE1       -5.1900    2.1140  -23.9420 C.ar  130  TYR130      0.0417
    152  CE2       -3.5950    1.6630  -22.2370 C.ar  130  TYR130      0.0417
    153  CZ        -4.6230    2.4170  -22.7270 C.ar  130  TYR130      0.1957
    154  OH        -5.1040    3.4890  -22.0030 O.3   130  TYR130     -0.2866
    155  N         -4.8240   -6.1990  -26.4490 N.3   132  TYR132     -0.1227
    156  CA        -6.1290   -6.8400  -26.5590 C.3   132  TYR132      0.1736
    157  C         -7.1650   -5.8930  -27.1470 C.2   132  TYR132      0.2595
    158  O         -7.9640   -6.2690  -28.0080 O.2   132  TYR132     -0.2718
    159  CB        -6.6390   -7.2980  -25.2120 C.3   132  TYR132      0.0548
    160  CG        -6.0240   -8.5330  -24.6440 C.ar  132  TYR132     -0.0200
    161  CD1       -6.0860   -9.7410  -25.3200 C.ar  132  TYR132     -0.0009
    162  CD2       -5.4620   -8.5160  -23.3820 C.ar  132  TYR132     -0.0009
    163  CE1       -5.5510  -10.8760  -24.7610 C.ar  132  TYR132      0.0417
    164  CE2       -4.9480   -9.6360  -22.8210 C.ar  132  TYR132      0.0417
    165  CZ        -4.9880  -10.8090  -23.4990 C.ar  132  TYR132      0.1957
    166  OH        -4.4430  -11.9240  -22.9110 O.3   132  TYR132     -0.2866
    167  N         -7.1720   -4.6680  -26.6280 N.am  133  TYR133     -0.1976
    168  CA        -8.1320   -3.6540  -27.0320 C.3   133  TYR133      0.1639
    169  C         -8.0090   -3.4240  -28.5360 C.2   133  TYR133      0.2290
    170  O         -9.0110   -3.3710  -29.2630 O.2   133  TYR133     -0.2864
    171  CB        -7.8760   -2.3770  -26.2280 C.3   133  TYR133      0.0560
    172  CG        -8.8820   -1.2710  -26.3800 C.ar  133  TYR133     -0.0198
    173  CD1      -10.1740   -1.5100  -26.8410 C.ar  133  TYR133     -0.0009
    174  CD2       -8.5290    0.0290  -26.0620 C.ar  133  TYR133     -0.0009
    175  CE1      -11.0740   -0.4850  -26.9830 C.ar  133  TYR133      0.0417
    176  CE2       -9.4220    1.0660  -26.2000 C.ar  133  TYR133      0.0417
    177  CZ       -10.6910    0.8000  -26.6580 C.ar  133  TYR133      0.1957
    178  OH       -11.5780    1.8340  -26.7800 O.3   133  TYR133     -0.2866
    179  N         -9.7790   -6.3470  -30.3260 N.3   136  GLU136     -0.1231
    180  CA       -11.2260   -6.3440  -30.1130 C.3   136  GLU136      0.1699
    181  C        -11.9180   -5.1530  -30.7760 C.2   136  GLU136      0.2592
    182  O        -13.0570   -5.2570  -31.2380 O.2   136  GLU136     -0.2718
    183  CB       -11.5140   -6.3480  -28.6050 C.3   136  GLU136      0.0402
    184  CG       -10.9530   -7.5870  -27.9020 C.3   136  GLU136      0.1161
    185  CD       -11.0340   -7.5170  -26.3750 C.2   136  GLU136      0.3649
    186  OE1      -10.2780   -8.2640  -25.6930 O.co2 136  GLU136     -0.2457
    187  OE2      -11.8560   -6.7300  -25.8660 O.co2 136  GLU136     -0.2457
    188  N        -11.2140   -4.0290  -30.8170 N.am  137  VAL137     -0.1980
    189  CA       -11.7100   -2.7800  -31.3900 C.3   137  VAL137      0.1595
    190  C        -10.6160   -2.1030  -32.2010 C.2   137  VAL137      0.2287
    191  O         -9.5810   -1.7640  -31.6400 O.2   137  VAL137     -0.2864
    192  CB       -12.1510   -1.7820  -30.2970 C.3   137  VAL137      0.0276
    193  CG1      -12.6090   -0.4630  -30.9140 C.3   137  VAL137      0.0022
    194  CG2      -13.2360   -2.3840  -29.4370 C.3   137  VAL137      0.0022
    195  N         -9.2380    9.4460  -25.7200 N.3   145  LYS145     -0.1231
    196  CA        -8.6480    9.3660  -24.3840 C.3   145  LYS145      0.1693
    197  C         -7.7900    8.0900  -24.2380 C.2   145  LYS145      0.2592
    198  O         -6.8740    8.0360  -23.4300 O.2   145  LYS145     -0.2718
    199  CB        -9.7240    9.3760  -23.2970 C.3   145  LYS145      0.0285
    200  CG       -10.6110    8.1350  -23.3080 C.3   145  LYS145      0.0035
    201  CD       -11.5830    8.0930  -22.1330 C.3   145  LYS145      0.0206
    202  CE       -12.4120    6.8100  -22.1640 C.3   145  LYS145      0.1093
    203  NZ       -13.3610    6.7040  -21.0200 N.3   145  LYS145     -0.1314
    204  N         -8.0870    7.0670  -25.0300 N.am  146  HIS146     -0.1976
    205  CA        -7.3210    5.8200  -24.9390 C.3   146  HIS146      0.1656
    206  C         -6.1430    5.8020  -25.8800 C.2   146  HIS146      0.2291
    207  O         -5.1250    5.2020  -25.5660 O.2   146  HIS146     -0.2864
    208  CB        -8.2160    4.6190  -25.1750 C.3   146  HIS146      0.0771
    209  CG        -8.8780    4.1760  -23.9190 C.ar  146  HIS146      0.0820
    210  ND1       -8.1590    3.9200  -22.7720 N.ar  146  HIS146     -0.2267
    211  CD2      -10.1800    4.0310  -23.5930 C.ar  146  HIS146      0.1154
    212  CE1       -8.9920    3.5980  -21.8000 C.ar  146  HIS146      0.1986
    213  NE2      -10.2210    3.6630  -22.2710 N.ar  146  HIS146     -0.2212
@<TRIPOS>BOND
     1   190   191    2
     2   190   189    1
     3   189   188    1
     4   189   192    1
     5   182   181    2
     6   193   192    1
     7   188   181   am
     8   181   180    1
     9   179   180    1
    10   192   194    1
    11   180   183    1
    12   170   169    2
    13   183   184    1
    14   169   168    1
    15   158   157    2
    16   184   185    1
    17   146   145    2
    18   157   167   am
    19   157   156    1
    20   168   167    1
    21   168   171    1
    22   175   173   ar
    23   175   177   ar
    24   173   172   ar
    25   178   177    1
    26   177   176   ar
    27   156   155    1
    28   156   159    1
    29   172   171    1
    30   172   174   ar
    31   185   187   ar
    32   185   186   ar
    33   145   144    1
    34   176   174   ar
    35   206   207    2
    36   206   205    1
    37   195   196    1
    38   161   163   ar
    39   161   160   ar
    40   159   160    1
    41   208   205    1
    42   208   209    1
    43   204   205    1
    44   204   197   am
    45   147   144    1
    46   147   148    1
    47   144   143    1
    48   163   165   ar
    49   149   148   ar
    50   149   151   ar
    51   160   162   ar
    52   196   197    1
    53   196   199    1
    54   134   133   ar
    55   134   132   ar
    56   197   198    2
    57   148   150   ar
    58   133   131   ar
    59   138   137    2
    60   151   153   ar
    61   209   211   ar
    62   209   210   ar
    63   124   123    2
    64   132   130   ar
    65   143   137   am
    66   211   213   ar
    67   165   166    1
    68   165   164   ar
    69   131   128   ar
    70   162   164   ar
    71   137   136    1
    72   200   199    1
    73   200   201    1
    74   130   128   ar
    75   130   129   ar
    76   150   152   ar
    77   123   122    1
    78   123   135   am
    79   128   126   ar
    80   210   212   ar
    81   153   152   ar
    82   153   154    1
    83   122   121    1
    84   122   125    1
    85    56    54   ar
    86   106   105   ar
    87   129   127   ar
    88   213   212   ar
    89   136   135    1
    90   136   139    1
    91   202   201    1
    92   202   203    1
    93   126   127   ar
    94   126   125    1
    95   105   107   ar
    96   105   104    1
    97    54    55   ar
    98    54    53    1
    99   102   101    2
   100   104   103    1
   101   139   140    1
   102   103   100    1
   103   116   115    2
   104   141   140   ar
   105    53    50    1
   106   115   114    1
   107   140   142   ar
   108   101   100    1
   109   101   108   am
   110   100    99    1
   111    24    22   ar
   112    50    49    1
   113    50    51    1
   114   108   109    1
   115    64    66   ar
   116    64    62   ar
   117   109   110    1
   118   109   112    1
   119    66    67   ar
   120    16    14    1
   121   110   111    2
   122   119   117    1
   123    22    23   ar
   124    22    21    1
   125   114   113    1
   126   114   117    1
   127    99    96   am
   128    49    43   am
   129    97    96    2
   130    51    52    2
   131    51    57   am
   132   117   118    1
   133    96    95    1
   134    61    62    1
   135    61    58    1
   136    62    63   ar
   137    67    68    1
   138    67    65   ar
   139    57    58    1
   140    21    18    1
   141    14    13    1
   142    43    42    1
   143    43    44    2
   144    15    13    1
   145    58    59    1
   146    48    46    1
   147    42    45    1
   148    42    41    1
   149    63    65   ar
   150    45    46    1
   151    98    95    1
   152    85    83   ar
   153    95    94    1
   154    13    10    1
   155   118   120    1
   156     5     6    1
   157     5     3   am
   158    17    18    1
   159    18    19    1
   160     6     7    1
   161     2     3    1
   162     2     1    1
   163    75    74   ar
   164    46    47    1
   165     3     4    2
   166    92    90    1
   167    89    88    2
   168    84    83   ar
   169    32    30   ar
   170    83    82    1
   171    59    60    2
   172    94    88   am
   173    76    74   ar
   174    74    73    1
   175    40    38   ar
   176    31    30   ar
   177    88    87    1
   178    39    38   ar
   179    30    29    1
   180    10     9    1
   181    10    11    1
   182    19    25   am
   183    19    20    2
   184     7     8    2
   185    25    26    1
   186    38    37    1
   187    90    87    1
   188    90    91    1
   189    29    26    1
   190    82    81    1
   191    11    12    2
   192    87    86    1
   193    73    70    1
   194    93    91    1
   195    26    27    1
   196    37    34    1
   197    81    78    1
   198    28    27    2
   199    70    71    1
   200    70    69    1
   201    78    77    1
   202    78    79    1
   203    34    33    1
   204    34    35    1
   205    71    72    2
   206    79    80    2
   207    35    36    2
