@<TRIPOS>MOLECULE
tmp/5cfvA01.pdb
 89 83 0 0 0
SMALL
GASTEIGER

@<TRIPOS>ATOM
      1  N        -31.7630   16.8700   30.0630 N.3   168  PHE168     -0.1241
      2  CA       -31.4600   17.2650   31.4410 C.3   168  PHE168      0.1605
      3  C        -31.2120   18.7700   31.5510 C.2   168  PHE168      0.2264
      4  O        -30.5020   19.3530   30.7370 O.2   168  PHE168     -0.2867
      5  CB       -30.2360   16.5130   31.9710 C.3   168  PHE168      0.0534
      6  CG       -30.3620   15.0160   31.9140 C.ar  168  PHE168     -0.0203
      7  CD1      -30.9290   14.3120   32.9630 C.ar  168  PHE168     -0.0042
      8  CD2      -29.8860   14.3110   30.8230 C.ar  168  PHE168     -0.0042
      9  CE1      -31.0370   12.9270   32.9150 C.ar  168  PHE168     -0.0003
     10  CE2      -29.9870   12.9350   30.7630 C.ar  168  PHE168     -0.0003
     11  CZ       -30.5630   12.2370   31.8110 C.ar  168  PHE168     -0.0000
     12  N        -29.2450   15.7970   36.8710 N.3   177  ILE177     -0.1231
     13  CA       -29.6630   14.4850   36.3920 C.3   177  ILE177      0.1692
     14  C        -31.0290   14.0730   36.9190 C.2   177  ILE177      0.2591
     15  O        -31.5750   13.0540   36.4920 O.2   177  ILE177     -0.2718
     16  CB       -28.6380   13.4130   36.7700 C.3   177  ILE177      0.0266
     17  CG1      -28.5480   13.2510   38.2940 C.3   177  ILE177      0.0019
     18  CG2      -27.2850   13.7560   36.1510 C.3   177  ILE177      0.0020
     19  CD1      -27.5540   12.1690   38.7380 C.3   177  ILE177      0.0001
     20  N        -31.5740   14.8540   37.8500 N.am  178  LYS178     -0.1980
     21  CA       -32.9200   14.5960   38.3570 C.3   178  LYS178      0.1596
     22  C        -33.9720   15.5440   37.7680 C.2   178  LYS178      0.2287
     23  O        -35.1490   15.4670   38.1180 O.2   178  LYS178     -0.2864
     24  CB       -32.9340   14.6860   39.8890 C.3   178  LYS178      0.0298
     25  CG       -32.0770   13.6270   40.5340 C.3   178  LYS178      0.0038
     26  CD       -32.5410   12.2380   40.1000 C.3   178  LYS178      0.0206
     27  CE       -31.6670   11.1770   40.7350 C.3   178  LYS178      0.1093
     28  NZ       -31.9700   11.1260   42.2240 N.3   178  LYS178     -0.1314
     29  N        -35.3510   15.9900   34.4290 N.3   180  VAL180     -0.1245
     30  CA       -35.5560   15.5320   33.0640 C.3   180  VAL180      0.1561
     31  C        -36.7110   16.3310   32.4510 C.2   180  VAL180      0.2260
     32  O        -37.7550   16.5080   33.0890 O.2   180  VAL180     -0.2867
     33  CB       -35.8410   14.0100   33.0310 C.3   180  VAL180      0.0252
     34  CG1      -35.9790   13.4980   31.5840 C.3   180  VAL180      0.0019
     35  CG2      -34.7230   13.2490   33.7710 C.3   180  VAL180      0.0019
     36  N        -25.8830    9.0840   32.1460 N.3   334  GLN334     -0.1245
     37  CA       -27.3290    8.8590   32.1530 C.3   334  GLN334      0.1566
     38  C        -27.9730    9.0030   30.7710 C.2   334  GLN334      0.2260
     39  O        -29.1860    8.8870   30.6500 O.2   334  GLN334     -0.2867
     40  CB       -28.0260    9.8270   33.1110 C.3   334  GLN334      0.0367
     41  CG       -27.6630    9.6220   34.5970 C.3   334  GLN334      0.0905
     42  CD       -26.3490   10.2690   35.0010 C.2   334  GLN334      0.2608
     43  OE1      -25.6960   10.9540   34.2130 O.2   334  GLN334     -0.2717
     44  NE2      -25.9490   10.0440   36.2550 N.am  334  GLN334     -0.0878
     45  N        -29.9610    5.9250   29.4190 N.3   337  ALA337     -0.1245
     46  CA       -31.2030    5.7590   30.1870 C.3   337  ALA337      0.1562
     47  C        -32.2610    6.7440   29.7370 C.2   337  ALA337      0.2260
     48  O        -33.4550    6.3940   29.6210 O.2   337  ALA337     -0.2867
     49  CB       -30.9240    5.9220   31.7140 C.3   337  ALA337      0.0290
     50  N        -39.1570    9.8560   33.5950 N.3   364  GLN364     -0.1245
     51  CA       -38.0430    9.9650   34.5420 C.3   364  GLN364      0.1566
     52  C        -37.8820    8.6790   35.3590 C.2   364  GLN364      0.2260
     53  O        -36.7580    8.2390   35.6490 O.2   364  GLN364     -0.2867
     54  CB       -38.2270   11.1540   35.4700 C.3   364  GLN364      0.0367
     55  CG       -37.0600   11.3150   36.4340 C.3   364  GLN364      0.0905
     56  CD       -36.8600   12.7370   36.8860 C.2   364  GLN364      0.2608
     57  OE1      -37.1840   13.6910   36.1700 O.2   364  GLN364     -0.2717
     58  NE2      -36.3570   12.8940   38.1150 N.am  364  GLN364     -0.0878
     59  N        -36.3950    6.0940   33.0950 N.3   367  ALA367     -0.1231
     60  CA       -34.9700    6.4070   32.9340 C.3   367  ALA367      0.1694
     61  C        -34.1850    5.9270   34.1510 C.2   367  ALA367      0.2591
     62  O        -33.0870    5.3970   34.0370 O.2   367  ALA367     -0.2718
     63  CB       -34.7710    7.8960   32.7410 C.3   367  ALA367      0.0304
     64  N        -34.7590    6.1250   35.3270 N.am  368  ALA368     -0.1980
     65  CA       -34.0780    5.7150   36.5450 C.3   368  ALA368      0.1597
     66  C        -33.9030    4.2010   36.5710 C.2   368  ALA368      0.2287
     67  O        -32.8240    3.6980   36.9150 O.2   368  ALA368     -0.2864
     68  CB       -34.8370    6.1910   37.7570 C.3   368  ALA368      0.0319
     69  N        -31.1900    3.2790   34.2910 N.3   371  TYR371     -0.1227
     70  CA       -29.8710    3.6490   34.8040 C.3   371  TYR371      0.1736
     71  C        -29.4270    2.7040   35.9190 C.2   371  TYR371      0.2595
     72  O        -28.2380    2.3810   36.0300 O.2   371  TYR371     -0.2718
     73  CB       -29.8350    5.0970   35.3020 C.3   371  TYR371      0.0548
     74  CG       -28.4150    5.5880   35.5270 C.ar  371  TYR371     -0.0200
     75  CD1      -27.9680    5.9550   36.7960 C.ar  371  TYR371     -0.0009
     76  CD2      -27.5090    5.6550   34.4740 C.ar  371  TYR371     -0.0009
     77  CE1      -26.6590    6.3940   36.9950 C.ar  371  TYR371      0.0417
     78  CE2      -26.1970    6.0940   34.6670 C.ar  371  TYR371      0.0417
     79  CZ       -25.7830    6.4530   35.9250 C.ar  371  TYR371      0.1957
     80  OH       -24.4940    6.8860   36.1170 O.3   371  TYR371     -0.2866
     81  N        -30.3700    2.2650   36.7450 N.am  372  GLN372     -0.1979
     82  CA       -30.0630    1.2990   37.7920 C.3   372  GLN372      0.1601
     83  C        -29.5520   -0.0070   37.1760 C.2   372  GLN372      0.2287
     84  O        -28.5920   -0.6020   37.6720 O.2   372  GLN372     -0.2864
     85  CB       -31.2940    1.0500   38.6730 C.3   372  GLN372      0.0394
     86  CG       -31.5630    2.1930   39.6360 C.3   372  GLN372      0.0908
     87  CD       -33.0250    2.2730   40.0640 C.2   372  GLN372      0.2608
     88  OE1      -33.8220    1.3880   39.7600 O.2   372  GLN372     -0.2717
     89  NE2      -33.3780    3.3420   40.7710 N.am  372  GLN372     -0.0878
@<TRIPOS>BOND
     1    45    46    1
     2    48    47    2
     3    47    46    1
     4     1     2    1
     5    46    49    1
     6    39    38    2
     7     4     3    2
     8    10     8   ar
     9    10    11   ar
    10    38    37    1
    11     8     6   ar
    12     2     3    1
    13     2     5    1
    14    34    33    1
    15    11     9   ar
    16     6     5    1
    17     6     7   ar
    18    36    37    1
    19    37    40    1
    20    31    30    1
    21    31    32    2
    22    63    60    1
    23     9     7   ar
    24    60    59    1
    25    60    61    1
    26    33    30    1
    27    33    35    1
    28    30    29    1
    29    40    41    1
    30    50    51    1
    31    62    61    2
    32    61    64   am
    33    43    42    2
    34    69    70    1
    35    76    78   ar
    36    76    74   ar
    37    51    52    1
    38    51    54    1
    39    41    42    1
    40    78    79   ar
    41    70    73    1
    42    70    71    1
    43    42    44   am
    44    73    74    1
    45    64    65    1
    46    52    53    2
    47    54    55    1
    48    74    75   ar
    49    71    72    2
    50    71    81   am
    51    79    80    1
    52    79    77   ar
    53    18    16    1
    54    57    56    2
    55    13    16    1
    56    13    12    1
    57    13    14    1
    58    55    56    1
    59    15    14    2
    60    65    66    1
    61    65    68    1
    62    66    67    2
    63    81    82    1
    64    16    17    1
    65    75    77   ar
    66    56    58   am
    67    14    20   am
    68    83    84    2
    69    83    82    1
    70    22    23    2
    71    22    21    1
    72    82    85    1
    73    20    21    1
    74    17    19    1
    75    21    24    1
    76    85    86    1
    77    86    87    1
    78    88    87    2
    79    24    25    1
    80    87    89   am
    81    26    25    1
    82    26    27    1
    83    27    28    1
