@<TRIPOS>MOLECULE
tmp/5cg0A01.pdb
 143 143 0 0 0
SMALL
GASTEIGER

@<TRIPOS>ATOM
      1  N        -15.9070   39.5860  -79.6400 N.3    18  GLN18      -0.1245
      2  CA       -16.9810   40.3060  -79.0110 C.3    18  GLN18       0.1566
      3  C        -16.8150   41.8110  -79.1480 C.2    18  GLN18       0.2260
      4  O        -17.8200   42.5010  -79.1440 O.2    18  GLN18      -0.2867
      5  CB       -17.1150   39.8850  -77.5380 C.3    18  GLN18       0.0367
      6  CG       -17.4600   38.4080  -77.4060 C.3    18  GLN18       0.0905
      7  CD       -17.7700   38.0050  -76.0030 C.2    18  GLN18       0.2608
      8  OE1      -16.8740   37.6050  -75.2580 O.2    18  GLN18      -0.2717
      9  NE2      -19.0420   38.0870  -75.6210 N.am   18  GLN18      -0.0878
     10  N        -10.1370   32.4460  -77.3010 N.3   121  HIS121     -0.1226
     11  CA       -11.4270   32.7570  -76.7180 C.3   121  HIS121      0.1752
     12  C        -12.5130   32.6450  -77.8020 C.2   121  HIS121      0.2596
     13  O        -13.3090   33.5700  -78.0240 O.2   121  HIS121     -0.2718
     14  CB       -11.3680   34.1370  -76.0830 C.3   121  HIS121      0.0759
     15  CG       -12.4740   34.4050  -75.1130 C.ar  121  HIS121      0.0818
     16  ND1      -12.2590   35.0250  -73.9010 N.ar  121  HIS121     -0.2268
     17  CD2      -13.8030   34.1370  -75.1720 C.ar  121  HIS121      0.1154
     18  CE1      -13.4040   35.1360  -73.2570 C.ar  121  HIS121      0.1986
     19  NE2      -14.3580   34.6130  -74.0090 N.ar  121  HIS121     -0.2212
     20  N        -12.4630   31.5050  -78.5010 N.am  122  TRP122     -0.1976
     21  CA       -13.5740   30.8720  -79.2170 C.3   122  TRP122      0.1640
     22  C        -13.6250   31.1740  -80.7150 C.2   122  TRP122      0.2290
     23  O        -14.5890   30.8170  -81.3840 O.2   122  TRP122     -0.2864
     24  CB       -14.9460   31.1590  -78.5850 C.3   122  TRP122      0.0576
     25  CG       -15.0570   30.9270  -77.1310 C.ar  122  TRP122      0.0006
     26  CD1      -14.1260   30.3710  -76.2910 C.ar  122  TRP122      0.0946
     27  CD2      -16.2080   31.1930  -76.3290 C.ar  122  TRP122      0.0152
     28  NE1      -14.6130   30.3280  -75.0140 N.ar  122  TRP122     -0.2442
     29  CE2      -15.8900   30.8240  -75.0090 C.ar  122  TRP122      0.0810
     30  CE3      -17.4710   31.7340  -76.5980 C.ar  122  TRP122      0.0012
     31  CZ2      -16.7900   30.9760  -73.9610 C.ar  122  TRP122      0.0191
     32  CZ3      -18.3600   31.8880  -75.5680 C.ar  122  TRP122      0.0001
     33  CH2      -18.0270   31.5050  -74.2600 C.ar  122  TRP122      0.0015
     34  N        -12.5840   29.0030  -70.9460 N.3   166  GLU166     -0.1245
     35  CA       -13.8430   28.2580  -70.8220 C.3   166  GLU166      0.1567
     36  C        -13.9970   27.1060  -71.8100 C.2   166  GLU166      0.2260
     37  O        -14.7640   27.1990  -72.7640 O.2   166  GLU166     -0.2867
     38  CB       -15.0320   29.2060  -70.9420 C.3   166  GLU166      0.0388
     39  CG       -15.1000   30.1940  -69.7900 C.3   166  GLU166      0.1160
     40  CD       -16.4160   30.9600  -69.7270 C.2   166  GLU166      0.3649
     41  OE1      -16.8500   31.2850  -68.6000 O.co2 166  GLU166     -0.2457
     42  OE2      -17.0160   31.2540  -70.7910 O.co2 166  GLU166     -0.2457
     43  N        -17.5420   25.6880  -72.7390 N.3   169  GLU169     -0.1245
     44  CA       -18.2220   26.4430  -73.7610 C.3   169  GLU169      0.1567
     45  C        -17.6540   26.1330  -75.1500 C.2   169  GLU169      0.2260
     46  O        -18.3740   26.1520  -76.1380 O.2   169  GLU169     -0.2867
     47  CB       -18.1370   27.9350  -73.4290 C.3   169  GLU169      0.0388
     48  CG       -19.1300   28.3740  -72.3540 C.3   169  GLU169      0.1160
     49  CD       -18.9120   27.7330  -70.9810 C.2   169  GLU169      0.3649
     50  OE1      -17.7580   27.7170  -70.4770 O.co2 169  GLU169     -0.2457
     51  OE2      -19.9090   27.2500  -70.3860 O.co2 169  GLU169     -0.2457
     52  N        -23.0620   27.2060  -79.2710 N.3   180  LYS180     -0.1245
     53  CA       -21.9160   28.0420  -79.6430 C.3   180  LYS180      0.1561
     54  C        -21.3070   27.5000  -80.9370 C.2   180  LYS180      0.2260
     55  O        -21.4170   26.3160  -81.2520 O.2   180  LYS180     -0.2867
     56  CB       -20.8310   28.0320  -78.5780 C.3   180  LYS180      0.0271
     57  CG       -21.2310   28.5290  -77.1910 C.3   180  LYS180      0.0035
     58  CD       -21.4320   30.0400  -77.1950 C.3   180  LYS180      0.0206
     59  CE       -21.6850   30.5970  -75.8140 C.3   180  LYS180      0.1093
     60  NZ       -22.9720   30.1100  -75.2700 N.3   180  LYS180     -0.1314
     61  N        -19.7990   33.1300  -62.0690 N.3   310  TYR310     -0.1241
     62  CA       -20.9330   34.0230  -62.0790 C.3   310  TYR310      0.1605
     63  C        -21.9550   33.7380  -60.9990 C.2   310  TYR310      0.2264
     64  O        -22.5570   34.6680  -60.4870 O.2   310  TYR310     -0.2867
     65  CB       -21.6390   33.9500  -63.4290 C.3   310  TYR310      0.0534
     66  CG       -20.8880   34.6460  -64.5170 C.ar  310  TYR310     -0.0201
     67  CD1      -19.8510   34.0080  -65.1940 C.ar  310  TYR310     -0.0009
     68  CD2      -21.1970   35.9470  -64.8650 C.ar  310  TYR310     -0.0009
     69  CE1      -19.1560   34.6510  -66.1960 C.ar  310  TYR310      0.0417
     70  CE2      -20.5050   36.5980  -65.8600 C.ar  310  TYR310      0.0417
     71  CZ       -19.4960   35.9450  -66.5210 C.ar  310  TYR310      0.1957
     72  OH       -18.8220   36.6070  -67.5150 O.3   310  TYR310     -0.2866
     73  N        -29.6630   31.7820  -67.0800 N.3   350  TRP350     -0.1241
     74  CA       -28.6870   31.0740  -66.2520 C.3   350  TRP350      0.1605
     75  C        -28.0140   31.9130  -65.1540 C.2   350  TRP350      0.2264
     76  O        -27.3360   31.3570  -64.2890 O.2   350  TRP350     -0.2867
     77  CB       -27.6140   30.4670  -67.1590 C.3   350  TRP350      0.0550
     78  CG       -26.8470   31.4980  -67.8890 C.ar  350  TRP350      0.0003
     79  CD1      -27.1610   32.0520  -69.0950 C.ar  350  TRP350      0.0946
     80  CD2      -25.6320   32.1220  -67.4650 C.ar  350  TRP350      0.0152
     81  NE1      -26.2180   32.9790  -69.4490 N.ar  350  TRP350     -0.2442
     82  CE2      -25.2660   33.0420  -68.4680 C.ar  350  TRP350      0.0810
     83  CE3      -24.8150   31.9910  -66.3340 C.ar  350  TRP350      0.0012
     84  CZ2      -24.1330   33.8270  -68.3760 C.ar  350  TRP350      0.0191
     85  CZ3      -23.6910   32.7640  -66.2480 C.ar  350  TRP350      0.0001
     86  CH2      -23.3560   33.6720  -67.2650 C.ar  350  TRP350      0.0015
     87  N        -13.3900   36.1740  -64.9000 N.3   378  GLU378     -0.1245
     88  CA       -14.6490   36.7680  -65.3420 C.3   378  GLU378      0.1567
     89  C        -15.6660   36.7120  -64.2120 C.2   378  GLU378      0.2260
     90  O        -15.7820   35.7110  -63.5190 O.2   378  GLU378     -0.2867
     91  CB       -15.2800   36.0090  -66.5100 C.3   378  GLU378      0.0388
     92  CG       -14.6480   36.1530  -67.8760 C.3   378  GLU378      0.1160
     93  CD       -15.5050   35.5350  -68.9930 C.2   378  GLU378      0.3649
     94  OE1      -16.6880   35.1680  -68.7370 O.co2 378  GLU378     -0.2457
     95  OE2      -14.9930   35.3960  -70.1320 O.co2 378  GLU378     -0.2457
     96  N        -16.3580   41.2020  -65.9810 N.3   423  TRP423     -0.1241
     97  CA       -16.8410   41.0310  -67.3330 C.3   423  TRP423      0.1605
     98  C        -18.0540   41.9350  -67.4520 C.2   423  TRP423      0.2264
     99  O        -19.0530   41.6460  -66.8160 O.2   423  TRP423     -0.2867
    100  CB       -17.2540   39.5880  -67.6040 C.3   423  TRP423      0.0550
    101  CG       -17.6650   39.4400  -69.0090 C.ar  423  TRP423      0.0003
    102  CD1      -18.9290   39.5780  -69.5180 C.ar  423  TRP423      0.0946
    103  CD2      -16.8020   39.2000  -70.1220 C.ar  423  TRP423      0.0152
    104  NE1      -18.9010   39.4180  -70.8840 N.ar  423  TRP423     -0.2442
    105  CE2      -17.6050   39.1900  -71.2780 C.ar  423  TRP423      0.0810
    106  CE3      -15.4290   38.9840  -70.2520 C.ar  423  TRP423      0.0012
    107  CZ2      -17.0820   38.9660  -72.5400 C.ar  423  TRP423      0.0191
    108  CZ3      -14.9110   38.7710  -71.5020 C.ar  423  TRP423      0.0001
    109  CH2      -15.7290   38.7630  -72.6320 C.ar  423  TRP423      0.0015
    110  N        -22.6840   39.4640  -77.5350 N.3   430  GLU430     -0.1231
    111  CA       -22.8110   38.4160  -76.5350 C.3   430  GLU430      0.1699
    112  C        -23.2380   37.0940  -77.1760 C.2   430  GLU430      0.2592
    113  O        -24.2750   36.5240  -76.8530 O.2   430  GLU430     -0.2718
    114  CB       -23.7710   38.8650  -75.4190 C.3   430  GLU430      0.0402
    115  CG       -23.9880   37.8910  -74.2640 C.3   430  GLU430      0.1161
    116  CD       -22.7230   37.2700  -73.6670 C.2   430  GLU430      0.3649
    117  OE1      -22.8240   36.0930  -73.2510 O.co2 430  GLU430     -0.2457
    118  OE2      -21.6480   37.9270  -73.5690 O.co2 430  GLU430     -0.2457
    119  N        -22.4080   36.6180  -78.0870 N.am  431  TRP431     -0.1976
    120  CA       -22.5890   35.3140  -78.7390 C.3   431  TRP431      0.1640
    121  C        -24.0160   35.1300  -79.2990 C.2   431  TRP431      0.2290
    122  O        -24.5080   36.0070  -80.0250 O.2   431  TRP431     -0.2864
    123  CB       -22.1480   34.1950  -77.7720 C.3   431  TRP431      0.0576
    124  CG       -20.8240   34.4850  -77.2190 C.ar  431  TRP431      0.0006
    125  CD1      -20.5240   34.7510  -75.9160 C.ar  431  TRP431      0.0946
    126  CD2      -19.5860   34.6080  -77.9500 C.ar  431  TRP431      0.0152
    127  NE1      -19.1720   34.9970  -75.7840 N.ar  431  TRP431     -0.2442
    128  CE2      -18.5770   34.9120  -77.0170 C.ar  431  TRP431      0.0810
    129  CE3      -19.2360   34.4670  -79.2920 C.ar  431  TRP431      0.0012
    130  CZ2      -17.2370   35.0930  -77.3870 C.ar  431  TRP431      0.0191
    131  CZ3      -17.9000   34.6470  -79.6670 C.ar  431  TRP431      0.0001
    132  CH2      -16.9210   34.9440  -78.7110 C.ar  431  TRP431      0.0015
    133  N        -23.4430   43.4200  -70.6720 N.3   439  PHE439     -0.1241
    134  CA       -22.5950   43.2250  -69.4880 C.3   439  PHE439      0.1605
    135  C        -21.6460   44.3880  -69.1990 C.2   439  PHE439      0.2264
    136  O        -20.8870   44.3580  -68.2280 O.2   439  PHE439     -0.2867
    137  CB       -21.7390   41.9700  -69.6550 C.3   439  PHE439      0.0534
    138  CG       -22.4870   40.6740  -69.4740 C.ar  439  PHE439     -0.0203
    139  CD1      -23.1780   40.1100  -70.5210 C.ar  439  PHE439     -0.0042
    140  CD2      -22.4560   40.0010  -68.2450 C.ar  439  PHE439     -0.0042
    141  CE1      -23.8530   38.9050  -70.3620 C.ar  439  PHE439     -0.0003
    142  CE2      -23.1300   38.7970  -68.0780 C.ar  439  PHE439     -0.0003
    143  CZ       -23.8240   38.2420  -69.1450 C.ar  439  PHE439     -0.0000
@<TRIPOS>BOND
     1    23    22    2
     2    55    54    2
     3    54    53    1
     4    22    21    1
     5   122   121    2
     6   131   129   ar
     7   131   132   ar
     8    53    52    1
     9    53    56    1
    10     1     2    1
    11   121   120    1
    12   129   126   ar
    13    21    24    1
    14    21    20    1
    15     3     4    2
    16     3     2    1
    17     2     5    1
    18   120   119    1
    19   120   123    1
    20   132   130   ar
    21    24    25    1
    22    56    57    1
    23    20    12   am
    24   119   112   am
    25    13    12    2
    26   126   124   ar
    27   126   128   ar
    28    12    11    1
    29   123   124    1
    30     5     6    1
    31   110   111    1
    32     6     7    1
    33   130   128   ar
    34    10    11    1
    35   124   125   ar
    36    58    57    1
    37    58    59    1
    38   112   113    2
    39   112   111    1
    40    25    27   ar
    41    25    26   ar
    42   128   127   ar
    43    11    14    1
    44    30    27   ar
    45    30    32   ar
    46   111   114    1
    47    27    29   ar
    48    26    28   ar
    49    46    45    2
    50    14    15    1
    51     7     9   am
    52     7     8    2
    53   125   127   ar
    54    59    60    1
    55    32    33   ar
    56   114   115    1
    57    17    15   ar
    58    17    19   ar
    59    45    44    1
    60    15    16   ar
    61    28    29   ar
    62    29    31   ar
    63   115   116    1
    64    33    31   ar
    65    19    18   ar
    66    16    18   ar
    67    44    47    1
    68    44    43    1
    69   116   118   ar
    70   116   117   ar
    71    47    48    1
    72    37    36    2
    73   109   107   ar
    74   109   108   ar
    75   107   105   ar
    76    48    49    1
    77    36    35    1
    78   108   106   ar
    79   105   104   ar
    80   105   103   ar
    81    49    50   ar
    82    49    51   ar
    83    34    35    1
    84    38    35    1
    85    38    39    1
    86   104   102   ar
    87    42    40   ar
    88   133   134    1
    89   139   141   ar
    90   139   138   ar
    91   141   143   ar
    92   106   103   ar
    93    95    93   ar
    94   103   101   ar
    95    39    40    1
    96    40    41   ar
    97   137   134    1
    98   137   138    1
    99   102   101   ar
   100   134   135    1
   101   138   140   ar
   102    81    79   ar
   103    81    82   ar
   104   135   136    2
   105   143   142   ar
   106    79    78   ar
   107   101   100    1
   108    93    94   ar
   109    93    92    1
   110    82    84   ar
   111    82    80   ar
   112    84    86   ar
   113   140   142   ar
   114    78    80   ar
   115    78    77    1
   116    92    91    1
   117   100    97    1
   118    72    71    1
   119    80    83   ar
   120    98    97    1
   121    98    99    2
   122    97    96    1
   123    86    85   ar
   124    77    74    1
   125    73    74    1
   126    71    69   ar
   127    71    70   ar
   128    91    88    1
   129    83    85   ar
   130    74    75    1
   131    69    67   ar
   132    70    68   ar
   133    88    87    1
   134    88    89    1
   135    67    66   ar
   136    75    76    2
   137    68    66   ar
   138    66    65    1
   139    89    90    2
   140    65    62    1
   141    62    61    1
   142    62    63    1
   143    63    64    2
