@<TRIPOS>MOLECULE
tmp/5cg1B01.pdb
 105 101 0 0 0
SMALL
GASTEIGER

@<TRIPOS>ATOM
      1  N         -7.3330  -20.7920  -21.0450 N.3    91  ILE91      -0.1231
      2  CA        -6.1630  -19.9750  -20.6950 C.3    91  ILE91       0.1692
      3  C         -4.8930  -20.7920  -20.9960 C.2    91  ILE91       0.2593
      4  O         -4.8230  -21.9820  -20.6470 O.2    91  ILE91      -0.2718
      5  CB        -6.1950  -19.6650  -19.1720 C.3    91  ILE91       0.0266
      6  CG1       -7.3680  -18.7290  -18.8360 C.3    91  ILE91       0.0019
      7  CG2       -4.8600  -19.1040  -18.6770 C.3    91  ILE91       0.0020
      8  CD1       -7.5730  -18.5470  -17.3490 C.3    91  ILE91       0.0001
      9  N         -3.9160  -20.1690  -21.6390 N.am   92  GLY92      -0.1942
     10  CA        -2.6100  -20.7700  -21.8430 C.3    92  GLY92       0.2014
     11  C         -1.5920  -19.6930  -22.1530 C.2    92  GLY92       0.2638
     12  O         -1.9420  -18.6350  -22.6670 O.2    92  GLY92      -0.2714
     13  N         -0.3330  -19.9250  -21.8290 N.am   93  PHE93      -0.1973
     14  CA         0.6990  -18.9610  -22.2040 C.3    93  PHE93       0.1639
     15  C          2.0520  -19.6440  -22.1400 C.2    93  PHE93       0.2290
     16  O          2.2980  -20.4590  -21.2460 O.2    93  PHE93      -0.2864
     17  CB         0.6760  -17.7450  -21.2280 C.3    93  PHE93       0.0560
     18  CG         1.7870  -16.7610  -21.4560 C.ar   93  PHE93      -0.0200
     19  CD1        1.7670  -15.9110  -22.5610 C.ar   93  PHE93      -0.0042
     20  CD2        2.8670  -16.6870  -20.5750 C.ar   93  PHE93      -0.0042
     21  CE1        2.8170  -15.0200  -22.8070 C.ar   93  PHE93      -0.0003
     22  CE2        3.9120  -15.7940  -20.8140 C.ar   93  PHE93      -0.0003
     23  CZ         3.8850  -14.9640  -21.9260 C.ar   93  PHE93      -0.0000
     24  N         -4.7630  -29.1940  -27.0480 N.3   145  TYR145     -0.1241
     25  CA        -4.3760  -29.1700  -28.4440 C.3   145  TYR145      0.1605
     26  C         -3.5650  -30.4420  -28.7610 C.2   145  TYR145      0.2264
     27  O         -2.9120  -30.9800  -27.8830 O.2   145  TYR145     -0.2867
     28  CB        -3.6300  -27.8590  -28.7690 C.3   145  TYR145      0.0534
     29  CG        -3.1450  -27.7920  -30.2000 C.ar  145  TYR145     -0.0201
     30  CD1       -4.0320  -27.8840  -31.2640 C.ar  145  TYR145     -0.0009
     31  CD2       -1.7970  -27.6580  -30.4850 C.ar  145  TYR145     -0.0009
     32  CE1       -3.5850  -27.8400  -32.5750 C.ar  145  TYR145      0.0417
     33  CE2       -1.3430  -27.6080  -31.7820 C.ar  145  TYR145      0.0417
     34  CZ        -2.2370  -27.7150  -32.8190 C.ar  145  TYR145      0.1957
     35  OH        -1.7630  -27.6880  -34.1110 O.3   145  TYR145     -0.2866
     36  N          5.6020  -25.6830  -31.5280 N.3   155  TYR155     -0.1241
     37  CA         4.6810  -25.7230  -30.4040 C.3   155  TYR155      0.1605
     38  C          5.5210  -26.0010  -29.1280 C.2   155  TYR155      0.2264
     39  O          5.2300  -25.4650  -28.0360 O.2   155  TYR155     -0.2867
     40  CB         3.5810  -26.7670  -30.6210 C.3   155  TYR155      0.0534
     41  CG         2.3930  -26.5530  -29.7230 C.ar  155  TYR155     -0.0201
     42  CD1        1.5970  -25.3940  -29.8450 C.ar  155  TYR155     -0.0009
     43  CD2        2.0430  -27.4940  -28.7680 C.ar  155  TYR155     -0.0009
     44  CE1        0.5120  -25.1710  -29.0060 C.ar  155  TYR155      0.0417
     45  CE2        0.9400  -27.2970  -27.9350 C.ar  155  TYR155      0.0417
     46  CZ         0.1880  -26.1340  -28.0550 C.ar  155  TYR155      0.1957
     47  OH        -0.8900  -25.9340  -27.2260 O.3   155  TYR155     -0.2866
     48  N          4.9270  -25.8810  -25.0520 N.3   158  MET158     -0.1245
     49  CA         3.4580  -25.8700  -24.8730 C.3   158  MET158      0.1570
     50  C          2.8520  -27.2850  -24.9680 C.2   158  MET158      0.2261
     51  O          1.8790  -27.6140  -24.2940 O.2   158  MET158     -0.2867
     52  CB         2.7610  -24.9390  -25.8720 C.3   158  MET158      0.0387
     53  CG         2.5370  -23.5140  -25.4110 C.3   158  MET158      0.0595
     54  SD         1.7660  -23.2530  -23.7760 S.3   158  MET158     -0.1393
     55  CE         0.3600  -24.3060  -23.8530 C.3   158  MET158      0.0692
     56  N          0.4640  -28.8600  -22.2760 N.3   162  LYS162     -0.1245
     57  CA        -0.8530  -29.4420  -22.6560 C.3   162  LYS162      0.1561
     58  C         -0.9720  -30.9080  -22.2550 C.2   162  LYS162      0.2260
     59  O         -2.0570  -31.3930  -21.8720 O.2   162  LYS162     -0.2867
     60  CB        -1.1270  -29.2620  -24.1580 C.3   162  LYS162      0.0271
     61  CG        -1.3650  -27.8160  -24.5650 C.3   162  LYS162      0.0035
     62  CD        -2.6910  -27.2500  -24.0500 C.3   162  LYS162      0.0206
     63  CE        -2.9330  -25.8530  -24.6290 C.3   162  LYS162      0.1093
     64  NZ        -4.0290  -25.1050  -23.9330 N.3   162  LYS162     -0.1314
     65  N         -6.8750  -26.2720  -35.2900 N.3   190  PRO190     -0.2102
     66  CA        -6.4360  -24.8870  -35.3450 C.3   190  PRO190      0.1504
     67  C         -7.5340  -23.9230  -35.7980 C.2   190  PRO190      0.2575
     68  O         -8.3260  -24.2480  -36.6760 O.2   190  PRO190     -0.2718
     69  CB        -5.2650  -24.9130  -36.3400 C.3   190  PRO190      0.0282
     70  CG        -5.5220  -26.1050  -37.1770 C.3   190  PRO190      0.0208
     71  CD        -6.1880  -27.1160  -36.2810 C.3   190  PRO190      0.0893
     72  N         -7.5550  -22.7610  -35.1490 N.am  191  ILE191     -0.1980
     73  CA        -8.4780  -21.6720  -35.3910 C.3   191  ILE191      0.1595
     74  C         -7.6770  -20.3550  -35.2720 C.2   191  ILE191      0.2287
     75  O         -6.8460  -20.2080  -34.3490 O.2   191  ILE191     -0.2864
     76  CB        -9.6050  -21.6430  -34.3280 C.3   191  ILE191      0.0276
     77  CG1      -10.3270  -22.9940  -34.2490 C.3   191  ILE191      0.0022
     78  CG2      -10.6020  -20.5230  -34.6260 C.3   191  ILE191      0.0022
     79  CD1      -11.2860  -23.1120  -33.0810 C.3   191  ILE191      0.0001
     80  N         -7.0540  -17.0620  -33.9440 N.3   193  THR193     -0.1218
     81  CA        -7.4430  -16.3500  -32.7020 C.3   193  THR193      0.1862
     82  C         -6.4520  -15.2560  -32.2340 C.2   193  THR193      0.2287
     83  O         -5.2280  -15.4360  -32.2610 O.2   193  THR193     -0.2866
     84  CB        -7.6730  -17.3330  -31.5240 C.3   193  THR193      0.1770
     85  OG1       -6.4500  -18.0370  -31.2480 O.3   193  THR193     -0.2211
     86  CG2       -8.8120  -18.3340  -31.8220 C.3   193  THR193      0.0375
     87  N          1.7260  -20.3560  -38.6060 N.3   194  PHE194     -0.1241
     88  CA         0.3520  -20.7200  -38.2960 C.3   194  PHE194      0.1605
     89  C         -0.5730  -20.5970  -39.5030 C.2   194  PHE194      0.2264
     90  O         -1.5430  -21.3510  -39.6010 O.2   194  PHE194     -0.2867
     91  CB        -0.1850  -19.8970  -37.1120 C.3   194  PHE194      0.0534
     92  CG        -1.5540  -20.3330  -36.6140 C.ar  194  PHE194     -0.0203
     93  CD1       -1.6860  -21.4020  -35.7050 C.ar  194  PHE194     -0.0042
     94  CD2       -2.7120  -19.6650  -37.0300 C.ar  194  PHE194     -0.0042
     95  CE1       -2.9380  -21.7990  -35.2270 C.ar  194  PHE194     -0.0003
     96  CE2       -3.9620  -20.0580  -36.5570 C.ar  194  PHE194     -0.0003
     97  CZ        -4.0730  -21.1230  -35.6530 C.ar  194  PHE194     -0.0000
     98  N         -0.0080  -23.9010  -41.0590 N.3   197  MET197     -0.1245
     99  CA        -0.6730  -24.8470  -40.1350 C.3   197  MET197      0.1570
    100  C         -2.2020  -24.9500  -40.3370 C.2   197  MET197      0.2261
    101  O         -2.7420  -26.0630  -40.4780 O.2   197  MET197     -0.2867
    102  CB        -0.3680  -24.4230  -38.6930 C.3   197  MET197      0.0387
    103  CG        -0.4490  -25.5060  -37.6290 C.3   197  MET197      0.0595
    104  SD         0.6710  -25.1960  -36.2230 S.3   197  MET197     -0.1393
    105  CE         2.2750  -25.7160  -36.8470 C.3   197  MET197      0.0692
@<TRIPOS>BOND
     1    98    99    1
     2   101   100    2
     3   100    99    1
     4    99   102    1
     5    90    89    2
     6    89    88    1
     7   102   103    1
     8    87    88    1
     9    88    91    1
    10   103   104    1
    11    70    69    1
    12    70    71    1
    13    91    92    1
    14    94    92   ar
    15    94    96   ar
    16   105   104    1
    17    68    67    2
    18    92    93   ar
    19    96    97   ar
    20    69    66    1
    21    71    65    1
    22    67    66    1
    23    67    72   am
    24    93    95   ar
    25    97    95   ar
    26    73    74    1
    27    73    72    1
    28    73    76    1
    29    66    65    1
    30    74    75    2
    31    78    76    1
    32    76    77    1
    33    77    79    1
    34    35    34    1
    35    80    81    1
    36    34    32   ar
    37    34    33   ar
    38    81    82    1
    39    81    84    1
    40    32    30   ar
    41    83    82    2
    42    86    84    1
    43    33    31   ar
    44    36    37    1
    45    84    85    1
    46    30    29   ar
    47    40    37    1
    48    40    41    1
    49    31    29   ar
    50    37    38    1
    51    29    28    1
    52    42    41   ar
    53    42    44   ar
    54    41    43   ar
    55    38    39    2
    56    44    46   ar
    57    28    25    1
    58    43    45   ar
    59    26    25    1
    60    26    27    2
    61    25    24    1
    62    46    45   ar
    63    46    47    1
    64    52    53    1
    65    52    49    1
    66    53    54    1
    67    48    49    1
    68    50    49    1
    69    50    51    2
    70    63    62    1
    71    63    64    1
    72    61    60    1
    73    61    62    1
    74    60    57    1
    75    55    54    1
    76    21    19   ar
    77    21    23   ar
    78    12    11    2
    79    57    56    1
    80    57    58    1
    81    19    18   ar
    82    58    59    2
    83    14    15    1
    84    14    13    1
    85    14    17    1
    86    11    10    1
    87    11    13   am
    88    15    16    2
    89    23    22   ar
    90    10     9    1
    91     9     3   am
    92    18    17    1
    93    18    20   ar
    94     1     2    1
    95     3     2    1
    96     3     4    2
    97    22    20   ar
    98     2     5    1
    99     5     6    1
   100     5     7    1
   101     6     8    1
