@<TRIPOS>MOLECULE
tmp/5cg2B01.pdb
 95 92 0 0 0
SMALL
GASTEIGER

@<TRIPOS>ATOM
      1  N          6.7590  -20.7950   21.1950 N.3    91  ILE91      -0.1231
      2  CA         5.6710  -19.9510   20.7160 C.3    91  ILE91       0.1692
      3  C          4.4000  -20.7380   20.9720 C.2    91  ILE91       0.2593
      4  O          4.3650  -21.9480   20.7380 O.2    91  ILE91      -0.2718
      5  CB         5.7870  -19.7410   19.1820 C.3    91  ILE91       0.0266
      6  CG1        6.8290  -18.6700   18.8510 C.3    91  ILE91       0.0019
      7  CG2        4.4540  -19.3280   18.5530 C.3    91  ILE91       0.0020
      8  CD1        6.9960  -18.5180   17.3510 C.3    91  ILE91       0.0001
      9  N          3.3530  -20.0650   21.4130 N.am   92  GLY92      -0.1942
     10  CA         2.0500  -20.7070   21.5330 C.3    92  GLY92       0.2014
     11  C          1.0860  -19.7010   22.0950 C.2    92  GLY92       0.2638
     12  O          1.5110  -18.6980   22.6790 O.2    92  GLY92      -0.2714
     13  N         -0.2070  -19.9520   21.9060 N.am   93  PHE93      -0.1973
     14  CA        -1.2360  -18.9880   22.2670 C.3    93  PHE93       0.1639
     15  C         -2.6100  -19.6510   22.1440 C.2    93  PHE93       0.2290
     16  O         -2.8620  -20.4060   21.1920 O.2    93  PHE93      -0.2864
     17  CB        -1.1830  -17.7650   21.3290 C.3    93  PHE93       0.0560
     18  CG        -2.2770  -16.7740   21.5800 C.ar   93  PHE93      -0.0200
     19  CD1       -2.2130  -15.9030   22.6720 C.ar   93  PHE93      -0.0042
     20  CD2       -3.3830  -16.7190   20.7430 C.ar   93  PHE93      -0.0042
     21  CE1       -3.2410  -14.9850   22.9240 C.ar   93  PHE93      -0.0003
     22  CE2       -4.4170  -15.8080   20.9880 C.ar   93  PHE93      -0.0003
     23  CZ        -4.3460  -14.9440   22.0810 C.ar   93  PHE93      -0.0000
     24  N          0.1320  -22.7670   18.1080 N.3   119  SER119     -0.1217
     25  CA         0.9900  -23.5470   19.0000 C.3   119  SER119      0.1889
     26  C          1.5150  -24.8260   18.3560 C.2   119  SER119      0.2288
     27  O          2.5080  -25.3840   18.8290 O.2   119  SER119     -0.2866
     28  CB         0.2910  -23.8700   20.3260 C.3   119  SER119      0.2089
     29  OG        -0.5120  -22.7880   20.7390 O.3   119  SER119     -0.2183
     30  N          6.9750  -28.2250   24.7880 N.3   144  SER144     -0.1202
     31  CA         5.6630  -28.7650   25.1520 C.3   144  SER144      0.2020
     32  C          5.4700  -28.7550   26.6530 C.2   144  SER144      0.2618
     33  O          6.2750  -28.1500   27.4050 O.2   144  SER144     -0.2717
     34  CB         5.4870  -30.1750   24.5730 C.3   144  SER144      0.2103
     35  OG         4.1350  -30.6150   24.7190 O.3   144  SER144     -0.2182
     36  N          4.3810  -29.3760   27.0900 N.am  145  TYR145     -0.1975
     37  CA         3.9360  -29.3770   28.4960 C.3   145  TYR145      0.1639
     38  C          3.1430  -30.6490   28.7870 C.2   145  TYR145      0.2290
     39  O          2.5410  -31.2240   27.8860 O.2   145  TYR145     -0.2864
     40  CB         3.0710  -28.1490   28.7880 C.3   145  TYR145      0.0560
     41  CG         2.6400  -28.0120   30.2420 C.ar  145  TYR145     -0.0198
     42  CD1        3.5760  -28.0470   31.2690 C.ar  145  TYR145     -0.0009
     43  CD2        1.2940  -27.8260   30.5830 C.ar  145  TYR145     -0.0009
     44  CE1        3.1950  -27.9000   32.5930 C.ar  145  TYR145      0.0417
     45  CE2        0.8980  -27.6790   31.8990 C.ar  145  TYR145      0.0417
     46  CZ         1.8500  -27.7320   32.9070 C.ar  145  TYR145      0.1957
     47  OH         1.4800  -27.6000   34.2470 O.3   145  TYR145     -0.2866
     48  N         -6.0190  -25.8670   31.6690 N.3   155  TYR155     -0.1241
     49  CA        -5.1650  -25.8810   30.4850 C.3   155  TYR155      0.1605
     50  C         -5.9870  -26.0990   29.2050 C.2   155  TYR155      0.2264
     51  O         -5.6590  -25.5500   28.1210 O.2   155  TYR155     -0.2867
     52  CB        -4.0780  -26.9300   30.6210 C.3   155  TYR155      0.0534
     53  CG        -2.8670  -26.6750   29.7520 C.ar  155  TYR155     -0.0201
     54  CD1       -2.0900  -25.5140   29.9200 C.ar  155  TYR155     -0.0009
     55  CD2       -2.4700  -27.6120   28.7960 C.ar  155  TYR155     -0.0009
     56  CE1       -0.9660  -25.2750   29.1280 C.ar  155  TYR155      0.0417
     57  CE2       -1.3500  -27.3960   28.0040 C.ar  155  TYR155      0.0417
     58  CZ        -0.5990  -26.2330   28.1750 C.ar  155  TYR155      0.1957
     59  OH         0.5230  -26.0250   27.3920 O.3   155  TYR155     -0.2866
     60  N         -5.3730  -26.0200   25.0790 N.3   158  MET158     -0.1245
     61  CA        -3.9290  -26.0100   24.8580 C.3   158  MET158      0.1570
     62  C         -3.3370  -27.4120   24.9970 C.2   158  MET158      0.2261
     63  O         -2.3530  -27.7490   24.3450 O.2   158  MET158     -0.2867
     64  CB        -3.2560  -25.0390   25.8230 C.3   158  MET158      0.0387
     65  CG        -1.8020  -24.7630   25.4930 C.3   158  MET158      0.0595
     66  SD        -1.5620  -24.0960   23.8150 S.3   158  MET158     -0.1393
     67  CE        -2.5920  -22.6690   23.8730 C.3   158  MET158      0.0692
     68  N         -0.9050  -28.9660   22.2240 N.3   162  LYS162     -0.1245
     69  CA         0.4070  -29.5380   22.6160 C.3   162  LYS162      0.1561
     70  C          0.4780  -30.9930   22.2290 C.2   162  LYS162      0.2260
     71  O          1.5300  -31.4920   21.8600 O.2   162  LYS162     -0.2867
     72  CB         0.6310  -29.3970   24.1310 C.3   162  LYS162      0.0271
     73  CG         0.7680  -27.9670   24.6120 C.3   162  LYS162      0.0035
     74  CD         1.9210  -27.2460   23.9360 C.3   162  LYS162      0.0206
     75  CE         2.2900  -25.9410   24.6790 C.3   162  LYS162      0.1093
     76  NZ         3.4630  -25.3280   23.9590 N.3   162  LYS162     -0.1314
     77  N          8.5470  -28.4640   33.1310 N.3   189  GLY189     -0.1210
     78  CA         7.7040  -28.2260   34.3090 C.3   189  GLY189      0.1940
     79  C          7.3260  -26.7480   34.3910 C.2   189  GLY189      0.2454
     80  O          7.8540  -25.9260   33.6220 O.2   189  GLY189     -0.2732
     81  N          6.4190  -26.3950   35.3210 N.am  190  PRO190     -0.2717
     82  CA         6.0550  -24.9890   35.4530 C.3   190  PRO190      0.1535
     83  C          7.2300  -24.1380   35.9580 C.2   190  PRO190      0.2598
     84  O          8.0000  -24.5910   36.8070 O.2   190  PRO190     -0.2715
     85  CB         4.9180  -25.0020   36.4920 C.3   190  PRO190      0.0310
     86  CG         4.5310  -26.4410   36.6610 C.3   190  PRO190      0.0237
     87  CD         5.7580  -27.2340   36.3430 C.3   190  PRO190      0.0939
     88  N          7.3650  -22.9310   35.4070 N.am  191  ILE191     -0.1978
     89  CA         8.4200  -22.0050   35.8080 C.3   191  ILE191      0.1596
     90  C          7.8640  -20.7030   36.4000 C.2   191  ILE191      0.2287
     91  O          7.2120  -19.9200   35.7040 O.2   191  ILE191     -0.2864
     92  CB         9.3780  -21.7020   34.6410 C.3   191  ILE191      0.0276
     93  CG1        9.6540  -22.9860   33.8670 C.3   191  ILE191      0.0022
     94  CG2       10.6680  -21.0790   35.1740 C.3   191  ILE191      0.0022
     95  CD1       10.9390  -23.0070   33.0910 C.3   191  ILE191      0.0001
@<TRIPOS>BOND
     1     8     6    1
     2    24    25    1
     3    26    27    2
     4    26    25    1
     5     7     5    1
     6     6     5    1
     7    25    28    1
     8     5     2    1
     9    28    29    1
    10     2     3    1
    11     2     1    1
    12     4     3    2
    13    20    22   ar
    14    20    18   ar
    15     3     9   am
    16    22    23   ar
    17    16    15    2
    18    17    18    1
    19    17    14    1
    20     9    10    1
    21    10    11    1
    22    18    19   ar
    23    71    70    2
    24    13    11   am
    25    13    14    1
    26    23    21   ar
    27    11    12    2
    28    15    14    1
    29    68    69    1
    30    70    69    1
    31    69    72    1
    32    19    21   ar
    33    66    67    1
    34    66    65    1
    35    74    73    1
    36    74    75    1
    37    76    75    1
    38    72    73    1
    39    63    62    2
    40    34    35    1
    41    34    31    1
    42    30    31    1
    43    61    62    1
    44    61    60    1
    45    61    64    1
    46    31    32    1
    47    65    64    1
    48    32    36   am
    49    32    33    2
    50    36    37    1
    51    59    58    1
    52    39    38    2
    53    57    58   ar
    54    57    55   ar
    55    51    50    2
    56    58    56   ar
    57    37    38    1
    58    37    40    1
    59    40    41    1
    60    55    53   ar
    61    56    54   ar
    62    50    49    1
    63    53    54   ar
    64    53    52    1
    65    41    43   ar
    66    41    42   ar
    67    49    52    1
    68    49    48    1
    69    43    45   ar
    70    42    44   ar
    71    45    46   ar
    72    44    46   ar
    73    46    47    1
    74    95    93    1
    75    77    78    1
    76    80    79    2
    77    93    92    1
    78    78    79    1
    79    79    81   am
    80    92    94    1
    81    92    89    1
    82    81    82    1
    83    81    87    1
    84    88    89    1
    85    88    83   am
    86    82    83    1
    87    82    85    1
    88    91    90    2
    89    89    90    1
    90    83    84    2
    91    87    86    1
    92    85    86    1
