@<TRIPOS>MOLECULE
tmp/5cg9A00.pdb
 128 118 0 0 0
SMALL
GASTEIGER

@<TRIPOS>ATOM
      1  N         41.7160   28.4770   48.6980 N.3   158  ALA158     -0.1245
      2  CA        40.3640   27.9850   48.4760 C.3   158  ALA158      0.1562
      3  C         39.3980   29.1550   48.5030 C.2   158  ALA158      0.2260
      4  O         39.5000   30.0420   49.3490 O.2   158  ALA158     -0.2867
      5  CB        39.9800   26.9610   49.5170 C.3   158  ALA158      0.0290
      6  N         35.4200   29.9960   48.8020 N.3   160  ASN160     -0.1240
      7  CA        34.1380   29.4440   49.2400 C.3   160  ASN160      0.1653
      8  C         32.9870   30.4450   49.1200 C.2   160  ASN160      0.2266
      9  O         32.9550   31.4500   49.8320 O.2   160  ASN160     -0.2867
     10  CB        34.2450   28.9670   50.6920 C.3   160  ASN160      0.1155
     11  CG        35.1320   27.7490   50.8470 C.2   160  ASN160      0.2627
     12  OD1       35.1060   26.8410   50.0180 O.2   160  ASN160     -0.2716
     13  ND2       35.9210   27.7200   51.9170 N.am  160  ASN160     -0.0877
     14  N         30.4390   22.1600   51.3770 N.3   170  ARG170     -0.1231
     15  CA        31.3240   21.3390   52.1930 C.3   170  ARG170      0.1694
     16  C         31.6880   21.9770   53.5340 C.2   170  ARG170      0.2591
     17  O         32.1230   21.2810   54.4510 O.2   170  ARG170     -0.2718
     18  CB        32.6040   21.0130   51.4180 C.3   170  ARG170      0.0321
     19  CG        33.4300   22.2160   51.0070 C.3   170  ARG170      0.0489
     20  CD        34.7820   21.7800   50.4620 C.3   170  ARG170      0.2205
     21  NE        35.5610   21.0570   51.4660 N.pl3 170  ARG170     -0.0865
     22  CZ        36.3930   21.6270   52.3350 C.cat 170  ARG170      0.5346
     23  NH1       36.5820   22.9420   52.3380 N.pl3 170  ARG170      0.1354
     24  NH2       37.0450   20.8760   53.2090 N.pl3 170  ARG170      0.1354
     25  N         31.5140   23.2900   53.6590 N.am  171  ILE171     -0.1980
     26  CA        31.8570   23.9740   54.9040 C.3   171  ILE171      0.1595
     27  C         30.6960   23.9160   55.8960 C.2   171  ILE171      0.2287
     28  O         30.8480   24.2690   57.0650 O.2   171  ILE171     -0.2864
     29  CB        32.2630   25.4450   54.6490 C.3   171  ILE171      0.0276
     30  CG1       31.0710   26.2660   54.1480 C.3   171  ILE171      0.0022
     31  CG2       33.4230   25.5040   53.6560 C.3   171  ILE171      0.0022
     32  CD1       31.3860   27.7370   53.9340 C.3   171  ILE171      0.0001
     33  N         33.8870   18.8780   59.7200 N.3   175  HIS175     -0.1241
     34  CA        35.0050   18.1820   59.1090 C.3   175  HIS175      0.1621
     35  C         36.3310   18.6580   59.6750 C.2   175  HIS175      0.2264
     36  O         36.3940   19.6750   60.3640 O.2   175  HIS175     -0.2867
     37  CB        34.9850   18.3820   57.5910 C.3   175  HIS175      0.0745
     38  CG        35.3530   19.7690   57.1600 C.ar  175  HIS175      0.0817
     39  ND1       34.4420   20.8050   57.1170 N.ar  175  HIS175     -0.2268
     40  CD2       36.5330   20.2890   56.7530 C.ar  175  HIS175      0.1154
     41  CE1       35.0480   21.9020   56.7030 C.ar  175  HIS175      0.1986
     42  NE2       36.3170   21.6180   56.4730 N.ar  175  HIS175     -0.2212
     43  N         40.3070   19.3030   57.9420 N.3   177  ASP177     -0.1239
     44  CA        41.0670   19.2660   56.7010 C.3   177  ASP177      0.1674
     45  C         42.3420   18.4980   56.9670 C.2   177  ASP177      0.2266
     46  O         43.2890   19.0110   57.5570 O.2   177  ASP177     -0.2867
     47  CB        41.3440   20.6770   56.2040 C.3   177  ASP177      0.1410
     48  CG        40.0680   21.4240   55.8930 C.2   177  ASP177      0.3668
     49  OD1       39.4000   21.0380   54.9100 O.co2 177  ASP177     -0.2456
     50  OD2       39.7180   22.3680   56.6390 O.co2 177  ASP177     -0.2456
     51  N         42.5980   32.2710   57.1250 N.3   186  LEU186     -0.1245
     52  CA        41.2810   32.5100   56.5400 C.3   186  LEU186      0.1561
     53  C         40.9180   33.9960   56.5500 C.2   186  LEU186      0.2260
     54  O         41.1280   34.6840   57.5470 O.2   186  LEU186     -0.2867
     55  CB        40.2160   31.7070   57.2930 C.3   186  LEU186      0.0270
     56  CG        40.3180   30.1800   57.1810 C.3   186  LEU186      0.0019
     57  CD1       41.3260   29.6090   58.1630 C.3   186  LEU186      0.0001
     58  CD2       38.9610   29.5290   57.3880 C.3   186  LEU186      0.0001
     59  N         37.6780   36.7940   55.3110 N.3   188  TYR188     -0.1241
     60  CA        36.2490   36.8010   55.0190 C.3   188  TYR188      0.1605
     61  C         35.7960   38.0470   54.2630 C.2   188  TYR188      0.2264
     62  O         36.3260   39.1450   54.4510 O.2   188  TYR188     -0.2867
     63  CB        35.4700   36.6510   56.3220 C.3   188  TYR188      0.0534
     64  CG        35.7960   35.3550   57.0270 C.ar  188  TYR188     -0.0201
     65  CD1       35.1240   34.1810   56.7120 C.ar  188  TYR188     -0.0009
     66  CD2       36.7960   35.2990   57.9880 C.ar  188  TYR188     -0.0009
     67  CE1       35.4280   32.9900   57.3460 C.ar  188  TYR188      0.0417
     68  CE2       37.1060   34.1140   58.6280 C.ar  188  TYR188      0.0417
     69  CZ        36.4200   32.9650   58.3020 C.ar  188  TYR188      0.1957
     70  OH        36.7320   31.7900   58.9400 O.3   188  TYR188     -0.2866
     71  N         32.0020   30.3540   62.4800 N.3   199  LEU199     -0.1245
     72  CA        32.7530   29.1080   62.4580 C.3   199  LEU199      0.1561
     73  C         32.6580   28.4450   63.8170 C.2   199  LEU199      0.2260
     74  O         33.1410   28.9840   64.8130 O.2   199  LEU199     -0.2867
     75  CB        34.2210   29.3480   62.0990 C.3   199  LEU199      0.0270
     76  CG        35.0620   28.0710   62.0300 C.3   199  LEU199      0.0019
     77  CD1       34.7500   27.2960   60.7630 C.3   199  LEU199      0.0001
     78  CD2       36.5280   28.3930   62.1080 C.3   199  LEU199      0.0001
     79  N         44.0150   29.0810   62.1290 N.3   218  PHE218     -0.1241
     80  CA        43.8550   27.8870   62.9710 C.3   218  PHE218      0.1605
     81  C         44.1600   26.5750   62.2430 C.2   218  PHE218      0.2264
     82  O         44.1560   26.5200   61.0130 O.2   218  PHE218     -0.2867
     83  CB        42.4350   27.8320   63.5490 C.3   218  PHE218      0.0534
     84  CG        41.4390   27.1310   62.6700 C.ar  218  PHE218     -0.0203
     85  CD1       41.1000   27.6480   61.4340 C.ar  218  PHE218     -0.0042
     86  CD2       40.8230   25.9650   63.0960 C.ar  218  PHE218     -0.0042
     87  CE1       40.1770   27.0080   60.6310 C.ar  218  PHE218     -0.0003
     88  CE2       39.8990   25.3210   62.2980 C.ar  218  PHE218     -0.0003
     89  CZ        39.5750   25.8430   61.0650 C.ar  218  PHE218     -0.0000
     90  N         35.6200   21.3630   62.6960 N.3   225  HIS225     -0.1241
     91  CA        34.9490   22.6510   62.5520 C.3   225  HIS225      0.1621
     92  C         33.8320   22.6150   61.5200 C.2   225  HIS225      0.2264
     93  O         33.8010   21.7490   60.6450 O.2   225  HIS225     -0.2867
     94  CB        35.9620   23.7410   62.1750 C.3   225  HIS225      0.0745
     95  CG        36.7790   23.4250   60.9620 C.ar  225  HIS225      0.0817
     96  ND1       37.9490   22.6970   61.0240 N.ar  225  HIS225     -0.2268
     97  CD2       36.6070   23.7470   59.6580 C.ar  225  HIS225      0.1154
     98  CE1       38.4560   22.5790   59.8110 C.ar  225  HIS225      0.1986
     99  NE2       37.6620   23.2090   58.9630 N.ar  225  HIS225     -0.2212
    100  N         30.7490   25.5620   59.5280 N.3   227  VAL227     -0.1245
    101  CA        30.2610   26.9270   59.3370 C.3   227  VAL227      0.1561
    102  C         28.7410   26.9440   59.3590 C.2   227  VAL227      0.2260
    103  O         28.0940   26.1560   58.6720 O.2   227  VAL227     -0.2867
    104  CB        30.7610   27.5300   58.0120 C.3   227  VAL227      0.0252
    105  CG1       30.1170   28.8880   57.7530 C.3   227  VAL227      0.0019
    106  CG2       32.2720   27.6650   58.0370 C.3   227  VAL227      0.0019
    107  N         27.9450   35.0050   52.0350 N.3   235  ARG235     -0.1245
    108  CA        29.1720   34.7400   52.7830 C.3   235  ARG235      0.1563
    109  C         30.2580   34.2180   51.8520 C.2   235  ARG235      0.2260
    110  O         30.1580   33.1140   51.3150 O.2   235  ARG235     -0.2867
    111  CB        28.9170   33.7400   53.9110 C.3   235  ARG235      0.0307
    112  CG        30.1080   33.5370   54.8460 C.3   235  ARG235      0.0489
    113  CD        29.8380   32.3820   55.7920 C.3   235  ARG235      0.2205
    114  NE        30.7700   32.2890   56.9180 N.pl3 235  ARG235     -0.0865
    115  CZ        31.9060   31.5910   56.9180 C.cat 235  ARG235      0.5346
    116  NH1       32.3030   30.9290   55.8380 N.pl3 235  ARG235      0.1354
    117  NH2       32.6580   31.5620   58.0080 N.pl3 235  ARG235      0.1354
    118  N         34.5040   33.6220   51.4490 N.3   237  GLY237     -0.1225
    119  CA        35.7220   33.4990   52.2220 C.3   237  GLY237      0.1811
    120  C         36.8450   32.8710   51.4310 C.2   237  GLY237      0.2280
    121  O         36.6210   32.1380   50.4650 O.2   237  GLY237     -0.2866
    122  N         40.4930   30.7040   51.9180 N.3   239  VAL239     -0.1245
    123  CA        41.3080   29.8820   52.7980 C.3   239  VAL239      0.1561
    124  C         42.6720   29.6460   52.1670 C.2   239  VAL239      0.2260
    125  O         42.7770   29.0530   51.0950 O.2   239  VAL239     -0.2867
    126  CB        40.6470   28.5270   53.0940 C.3   239  VAL239      0.0252
    127  CG1       41.3900   27.8210   54.2060 C.3   239  VAL239      0.0019
    128  CG2       39.1830   28.7130   53.4610 C.3   239  VAL239      0.0019
@<TRIPOS>BOND
     1     2     3    1
     2     2     1    1
     3     2     5    1
     4     3     4    2
     5     6     7    1
     6     8     7    1
     7     8     9    2
     8     7    10    1
     9    12    11    2
    10    20    19    1
    11    20    21    1
    12   121   120    2
    13    10    11    1
    14    11    13   am
    15    19    18    1
    16   125   124    2
    17   110   109    2
    18    14    15    1
    19    18    15    1
    20   120   119    1
    21   118   119    1
    22    21    22    2
    23   109   108    1
    24   122   123    1
    25   107   108    1
    26   124   123    1
    27    15    16    1
    28    22    23    1
    29    22    24    1
    30   108   111    1
    31   123   126    1
    32   126   128    1
    33   126   127    1
    34    16    25   am
    35    16    17    2
    36    31    29    1
    37    25    26    1
    38   111   112    1
    39    32    30    1
    40    30    29    1
    41    61    62    2
    42    61    60    1
    43    29    26    1
    44   112   113    1
    45    26    27    1
    46    49    48   ar
    47    60    59    1
    48    60    63    1
    49   113   114    1
    50   116   115    1
    51    48    47    1
    52    48    50   ar
    53    27    28    2
    54    47    44    1
    55    63    64    1
    56    42    41   ar
    57    42    40   ar
    58    52    53    1
    59    52    51    1
    60    52    55    1
    61    53    54    2
    62    44    45    1
    63    44    43    1
    64    41    39   ar
    65    65    64   ar
    66    65    67   ar
    67    40    38   ar
    68   114   115    2
    69   115   117    1
    70    45    46    2
    71    64    66   ar
    72    39    38   ar
    73    38    37    1
    74    56    55    1
    75    56    58    1
    76    56    57    1
    77    67    69   ar
    78    37    34    1
    79   105   104    1
    80    66    68   ar
    81   104   106    1
    82   104   101    1
    83    69    68   ar
    84    69    70    1
    85   103   102    2
    86    99    97   ar
    87    99    98   ar
    88    34    35    1
    89    34    33    1
    90   101   102    1
    91   101   100    1
    92    97    95   ar
    93    35    36    2
    94    98    96   ar
    95    87    89   ar
    96    87    85   ar
    97    93    92    2
    98    77    76    1
    99    95    96   ar
   100    95    94    1
   101    82    81    2
   102    89    88   ar
   103    85    84   ar
   104    92    91    1
   105    76    75    1
   106    76    78    1
   107    75    72    1
   108    79    80    1
   109    94    91    1
   110    81    80    1
   111    88    86   ar
   112    72    71    1
   113    72    73    1
   114    91    90    1
   115    84    86   ar
   116    84    83    1
   117    80    83    1
   118    73    74    2
