@<TRIPOS>MOLECULE
tmp/5cgaA00.pdb
 77 71 0 0 0
SMALL
GASTEIGER

@<TRIPOS>ATOM
      1  N         -1.0430   -1.4010   -9.7730 N.3    19  ASN19      -0.1240
      2  CA        -1.2980   -0.0480   -9.3600 C.3    19  ASN19       0.1653
      3  C         -0.9150    0.1490   -7.9260 C.2    19  ASN19       0.2266
      4  O         -0.8780   -0.7580   -7.0800 O.2    19  ASN19      -0.2867
      5  CB        -2.7970    0.2940   -9.6860 C.3    19  ASN19       0.1155
      6  CG        -3.7570   -0.3390   -8.7610 C.2    19  ASN19       0.2627
      7  OD1       -3.8810    0.0420   -7.5930 O.2    19  ASN19      -0.2716
      8  ND2       -4.5520   -1.2120   -9.3050 N.am   19  ASN19      -0.0877
      9  N         -2.5180    1.3100   -5.4020 N.3    21  VAL21      -0.1231
     10  CA        -3.4390    1.1110   -4.3170 C.3    21  VAL21       0.1692
     11  C         -3.4270   -0.3250   -3.8360 C.2    21  VAL21       0.2591
     12  O         -3.7580   -0.6130   -2.7180 O.2    21  VAL21      -0.2718
     13  CB        -4.8700    1.4500   -4.8170 C.3    21  VAL21       0.0266
     14  CG1       -5.8760    1.3460   -3.7020 C.3    21  VAL21       0.0020
     15  CG2       -4.8790    2.8460   -5.3940 C.3    21  VAL21       0.0020
     16  N         -2.9950   -1.2060   -4.6660 N.am   22  VAL22      -0.1980
     17  CA        -3.1730   -2.6490   -4.4260 C.3    22  VAL22       0.1595
     18  C         -1.8690   -3.4530   -4.4820 C.2    22  VAL22       0.2287
     19  O         -1.9390   -4.6530   -4.3430 O.2    22  VAL22      -0.2864
     20  CB        -4.0900   -3.2480   -5.4280 C.3    22  VAL22       0.0276
     21  CG1       -5.3680   -2.4490   -5.5000 C.3    22  VAL22       0.0022
     22  CG2       -3.4250   -3.3090   -6.8150 C.3    22  VAL22       0.0022
     23  N         -4.5120    0.3750  -13.2560 N.3    61  GLY61      -0.1210
     24  CA        -5.2870    1.1130  -12.2880 C.3    61  GLY61       0.1956
     25  C         -4.8360    2.5070  -12.0210 C.2    61  GLY61       0.2612
     26  O         -5.6950    3.4320  -11.8770 O.2    61  GLY61      -0.2717
     27  N         -3.5570    2.7470  -11.9300 N.am   62  THR62      -0.1952
     28  CA        -3.2510    4.1540  -11.6770 C.3    62  THR62       0.1897
     29  C         -2.4020    4.6970  -12.8120 C.2    62  THR62       0.2313
     30  O         -1.4040    5.3560  -12.5850 O.2    62  THR62      -0.2863
     31  CB        -2.5530    4.3480  -10.2960 C.3    62  THR62       0.1794
     32  OG1       -1.5370    3.3090  -10.1360 O.3    62  THR62      -0.2208
     33  CG2       -3.6250    4.2230   -9.2020 C.3    62  THR62       0.0378
     34  N         -8.1810   -1.7030  -16.0210 N.3    90  VAL90      -0.1245
     35  CA        -8.9680   -1.0780  -14.9190 C.3    90  VAL90       0.1561
     36  C         -9.6150    0.2520  -15.2670 C.2    90  VAL90       0.2260
     37  O         -8.9500    1.1330  -15.8100 O.2    90  VAL90      -0.2867
     38  CB        -8.1120   -0.8470  -13.6570 C.3    90  VAL90       0.0252
     39  CG1       -8.9840   -0.1830  -12.5890 C.3    90  VAL90       0.0019
     40  CG2       -7.4970   -2.1170  -13.1350 C.3    90  VAL90       0.0019
     41  N         -7.6200    6.2080  -20.7460 N.3    98  ARG98      -0.1245
     42  CA        -7.4060    4.7600  -20.5520 C.3    98  ARG98       0.1563
     43  C         -7.8110    3.9310  -21.7780 C.2    98  ARG98       0.2260
     44  O         -7.1140    3.0380  -22.1740 O.2    98  ARG98      -0.2867
     45  CB        -8.1870    4.2600  -19.3630 C.3    98  ARG98       0.0307
     46  CG        -7.6760    4.7170  -18.0690 C.3    98  ARG98       0.0489
     47  CD        -8.6290    4.4540  -16.9040 C.3    98  ARG98       0.2205
     48  NE        -8.1140    5.1310  -15.7230 N.pl3  98  ARG98      -0.0865
     49  CZ        -7.4010    4.5600  -14.7850 C.cat  98  ARG98       0.5346
     50  NH1       -7.3070    3.2420  -14.7340 N.pl3  98  ARG98       0.1354
     51  NH2       -6.9570    5.2750  -13.7790 N.pl3  98  ARG98       0.1354
     52  N        -10.6900   -2.9560   -1.1380 N.3   173  THR173     -0.1203
     53  CA       -10.1000   -2.4000   -2.3960 C.3   173  THR173      0.1994
     54  C         -9.1160   -3.3560   -2.9990 C.2   173  THR173      0.2618
     55  O         -8.3450   -4.0760   -2.2940 O.2   173  THR173     -0.2717
     56  CB        -9.4110   -0.9750   -2.2620 C.3   173  THR173      0.1784
     57  OG1       -9.3330   -0.3910   -3.5860 O.3   173  THR173     -0.2211
     58  CG2       -8.0830   -1.0630   -1.7530 C.3   173  THR173      0.0376
     59  N         -9.1710   -3.4220   -4.3110 N.am  174  GLY174     -0.1942
     60  CA        -8.2540   -4.2150   -5.0340 C.3   174  GLY174      0.2014
     61  C         -8.5370   -5.7120   -5.0220 C.2   174  GLY174      0.2639
     62  O         -7.6190   -6.4800   -5.3460 O.2   174  GLY174     -0.2714
     63  N         -9.7800   -6.1320   -4.7030 N.am  175  ALA175     -0.1963
     64  CA       -10.0920   -7.6410   -4.7250 C.3   175  ALA175      0.1728
     65  C         -9.8500   -8.0810   -6.1260 C.2   175  ALA175      0.2617
     66  O         -9.1010   -9.0500   -6.3580 O.2   175  ALA175     -0.2715
     67  CB       -11.5230   -7.9060   -4.3220 C.3   175  ALA175      0.0334
     68  N        -10.4140   -7.3690   -7.1020 N.am  176  GLY176     -0.1940
     69  CA       -10.3780   -7.9410   -8.4610 C.3   176  GLY176      0.2014
     70  C         -8.9980   -7.6720   -9.0230 C.2   176  GLY176      0.2635
     71  O         -8.4910   -8.4210   -9.8540 O.2   176  GLY176     -0.2714
     72  N         -8.3060   -6.6530   -8.4430 N.am  177  CYS177     -0.2021
     73  CA        -6.8780   -6.4380   -8.8210 C.3   177  CYS177      0.1398
     74  C         -5.9940   -7.6190   -8.3540 C.3   177  CYS177      0.2045
     75  O         -5.0790   -8.1300   -9.1240 O.3   177  CYS177     -0.2185
     76  CB        -6.3950   -5.0840   -8.3460 C.3   177  CYS177      0.0930
     77  SG        -7.4580   -3.5980   -8.8840 S.3   177  CYS177     -0.0802
@<TRIPOS>BOND
     1    44    43    2
     2    43    42    1
     3    41    42    1
     4    42    45    1
     5    45    46    1
     6    46    47    1
     7    47    48    1
     8    34    35    1
     9    37    36    2
    10    48    49    2
    11    36    35    1
    12    35    38    1
    13    49    50    1
    14    49    51    1
    15    38    40    1
    16    38    39    1
    17    23    24    1
    18    29    30    2
    19    29    28    1
    20    24    25    1
    21    25    27   am
    22    25    26    2
    23    27    28    1
    24    28    31    1
    25    31    32    1
    26    31    33    1
    27    71    70    2
    28     1     2    1
    29     5     2    1
    30     5     6    1
    31     2     3    1
    32     8     6   am
    33    75    74    1
    34    70    69    1
    35    70    72   am
    36    77    76    1
    37    73    72    1
    38    73    74    1
    39    73    76    1
    40     6     7    2
    41    69    68    1
    42     3     4    2
    43    68    65   am
    44    22    20    1
    45    66    65    2
    46    65    64    1
    47    21    20    1
    48    20    17    1
    49     9    10    1
    50    15    13    1
    51    62    61    2
    52    60    61    1
    53    60    59    1
    54    61    63   am
    55    13    10    1
    56    13    14    1
    57    64    63    1
    58    64    67    1
    59    16    17    1
    60    16    11   am
    61    18    17    1
    62    18    19    2
    63    10    11    1
    64    59    54   am
    65    11    12    2
    66    57    56    1
    67    54    53    1
    68    54    55    2
    69    53    56    1
    70    53    52    1
    71    56    58    1
