@<TRIPOS>MOLECULE
tmp/5cgbA00.pdb
 119 113 0 0 0
SMALL
GASTEIGER

@<TRIPOS>ATOM
      1  N        -19.9430   -3.6690   -9.9010 N.3     1  PHE1       -0.1241
      2  CA       -20.1140   -3.6350   -8.4210 C.3     1  PHE1        0.1605
      3  C        -18.7920   -3.3240   -7.7530 C.2     1  PHE1        0.2264
      4  O        -17.7860   -3.9530   -8.0540 O.2     1  PHE1       -0.2867
      5  CB       -20.6420   -4.9670   -7.9040 C.3     1  PHE1        0.0534
      6  CG       -20.8280   -4.9970   -6.4100 C.ar    1  PHE1       -0.0203
      7  CD1      -19.7820   -5.3680   -5.5720 C.ar    1  PHE1       -0.0042
      8  CD2      -22.0300   -4.6230   -5.8480 C.ar    1  PHE1       -0.0042
      9  CE1      -19.9500   -5.3950   -4.2050 C.ar    1  PHE1       -0.0003
     10  CE2      -22.2030   -4.6420   -4.4730 C.ar    1  PHE1       -0.0003
     11  CZ       -21.1520   -5.0230   -3.6570 C.ar    1  PHE1       -0.0000
     12  N        -14.2210   -3.1560   -8.8740 N.3    13  ILE13      -0.1245
     13  CA       -14.7510   -4.2900   -9.6160 C.3    13  ILE13       0.1561
     14  C        -13.7840   -5.4660   -9.5480 C.2    13  ILE13       0.2260
     15  O        -12.5890   -5.3080   -9.7990 O.2    13  ILE13      -0.2867
     16  CB       -15.0200   -3.8670  -11.0710 C.3    13  ILE13       0.0252
     17  CG1      -16.2710   -2.9910  -11.1370 C.3    13  ILE13       0.0019
     18  CG2      -15.1500   -5.0860  -12.0020 C.3    13  ILE13       0.0019
     19  CD1      -16.4070   -2.2520  -12.4370 C.3    13  ILE13       0.0001
     20  N        -24.0910   -0.9380   -7.4500 N.3    46  ASN46      -0.1225
     21  CA       -24.2170   -1.7110   -8.6830 C.3    46  ASN46       0.1785
     22  C        -23.8430   -0.8210   -9.8730 C.2    46  ASN46       0.2597
     23  O        -24.3590    0.2880   -9.9870 O.2    46  ASN46      -0.2718
     24  CB       -25.6620   -2.2110   -8.7610 C.3    46  ASN46       0.1169
     25  CG       -25.9810   -3.0200   -9.9990 C.2    46  ASN46       0.2627
     26  OD1      -25.4290   -2.8240  -11.0880 O.2    46  ASN46      -0.2716
     27  ND2      -26.9290   -3.9270   -9.8380 N.am   46  ASN46      -0.0877
     28  N        -22.9460   -1.2850  -10.7420 N.am   47  ASP47      -0.1960
     29  CA       -22.4650   -0.4510  -11.8530 C.3    47  ASP47       0.1840
     30  C        -23.3090   -0.5260  -13.1250 C.2    47  ASP47       0.2622
     31  O        -23.0590    0.2220  -14.0740 O.2    47  ASP47      -0.2715
     32  CB       -21.0210   -0.8210  -12.2110 C.3    47  ASP47       0.1450
     33  CG       -20.0110   -0.2280  -11.2490 C.2    47  ASP47       0.3671
     34  OD1      -19.9410    1.0230  -11.1640 O.co2  47  ASP47      -0.2456
     35  OD2      -19.2720   -1.0060  -10.5910 O.co2  47  ASP47      -0.2456
     36  N        -24.2990   -1.4090  -13.1530 N.am   48  TYR48      -0.1974
     37  CA       -25.0910   -1.6200  -14.3640 C.3    48  TYR48       0.1639
     38  C        -26.5020   -2.0870  -14.0050 C.2    48  TYR48       0.2290
     39  O        -26.9310   -3.1540  -14.4490 O.2    48  TYR48      -0.2864
     40  CB       -24.3710   -2.6450  -15.2400 C.3    48  TYR48       0.0560
     41  CG       -24.7930   -2.7970  -16.6860 C.ar   48  TYR48      -0.0198
     42  CD1      -25.5170   -1.8150  -17.3590 C.ar   48  TYR48      -0.0009
     43  CD2      -24.4300   -3.9320  -17.3850 C.ar   48  TYR48      -0.0009
     44  CE1      -25.8760   -1.9920  -18.7120 C.ar   48  TYR48       0.0417
     45  CE2      -24.7790   -4.1130  -18.7110 C.ar   48  TYR48       0.0417
     46  CZ       -25.5010   -3.1460  -19.3640 C.ar   48  TYR48       0.1957
     47  OH       -25.8350   -3.3490  -20.6880 O.3    48  TYR48      -0.2866
     48  N        -28.2890   -5.6280  -14.7560 N.3    52  ILE52      -0.1245
     49  CA       -27.7850   -6.6020  -13.7940 C.3    52  ILE52       0.1561
     50  C        -28.3360   -6.3590  -12.4010 C.2    52  ILE52       0.2260
     51  O        -28.4770   -5.2130  -11.9630 O.2    52  ILE52      -0.2867
     52  CB       -26.2410   -6.5790  -13.7420 C.3    52  ILE52       0.0252
     53  CG1      -25.6650   -6.8380  -15.1370 C.3    52  ILE52       0.0019
     54  CG2      -25.7180   -7.5890  -12.7090 C.3    52  ILE52       0.0019
     55  CD1      -24.1370   -6.8350  -15.2050 C.3    52  ILE52       0.0001
     56  N        -27.1760   -7.3490   -8.5600 N.3    54  ASP54      -0.1239
     57  CA       -26.0920   -7.8750   -7.7320 C.3    54  ASP54       0.1674
     58  C        -26.6260   -8.4800   -6.4430 C.2    54  ASP54       0.2266
     59  O        -27.6140   -8.0050   -5.8800 O.2    54  ASP54      -0.2867
     60  CB       -25.0850   -6.7790   -7.3910 C.3    54  ASP54       0.1410
     61  CG       -24.2820   -6.3340   -8.5900 C.2    54  ASP54       0.3668
     62  OD1      -23.8620   -7.2010   -9.4000 O.co2  54  ASP54      -0.2456
     63  OD2      -24.0890   -5.1060   -8.7430 O.co2  54  ASP54      -0.2456
     64  N        -19.8490  -11.1440   -3.5050 N.3   133  GLN133     -0.1245
     65  CA       -20.7310  -10.5730   -4.5110 C.3   133  GLN133      0.1566
     66  C        -20.8670  -11.4900   -5.7200 C.2   133  GLN133      0.2260
     67  O        -19.8760  -11.9200   -6.3270 O.2   133  GLN133     -0.2867
     68  CB       -20.2180   -9.1990   -4.9550 C.3   133  GLN133      0.0367
     69  CG       -21.0600   -8.5580   -6.0700 C.3   133  GLN133      0.0905
     70  CD       -20.3210   -8.4620   -7.3920 C.2   133  GLN133      0.2608
     71  OE1      -19.1120   -8.2610   -7.4250 O.2   133  GLN133     -0.2717
     72  NE2      -21.0520   -8.6080   -8.4870 N.am  133  GLN133     -0.0878
     73  N        -24.0440  -12.2040   -9.1150 N.3   135  ASN135     -0.1240
     74  CA       -25.0940  -11.4910   -9.8270 C.3   135  ASN135      0.1653
     75  C        -25.9880  -12.4510  -10.6040 C.2   135  ASN135      0.2266
     76  O        -25.8380  -13.6720  -10.5070 O.2   135  ASN135     -0.2867
     77  CB       -24.4780  -10.4330  -10.7450 C.3   135  ASN135      0.1155
     78  CG       -23.5750  -11.0300  -11.8100 C.2   135  ASN135      0.2627
     79  OD1      -23.8900  -12.0610  -12.3970 O.2   135  ASN135     -0.2716
     80  ND2      -22.4320  -10.3950  -12.0480 N.am  135  ASN135     -0.0877
     81  N        -26.2280  -12.3050  -13.9520 N.3   137  TYR137     -0.1227
     82  CA       -25.8060  -11.9760  -15.3130 C.3   137  TYR137      0.1736
     83  C        -24.7330  -12.9130  -15.8460 C.2   137  TYR137      0.2595
     84  O        -24.8100  -13.3680  -16.9890 O.2   137  TYR137     -0.2718
     85  CB       -25.2930  -10.5350  -15.3570 C.3   137  TYR137      0.0548
     86  CG       -24.8220  -10.0700  -16.7110 C.ar  137  TYR137     -0.0200
     87  CD1      -25.7260   -9.6370  -17.6680 C.ar  137  TYR137     -0.0009
     88  CD2      -23.4720  -10.0390  -17.0200 C.ar  137  TYR137     -0.0009
     89  CE1      -25.2980   -9.1970  -18.9040 C.ar  137  TYR137      0.0417
     90  CE2      -23.0320   -9.6050  -18.2540 C.ar  137  TYR137      0.0417
     91  CZ       -23.9510   -9.1820  -19.1920 C.ar  137  TYR137      0.1957
     92  OH       -23.5290   -8.7440  -20.4280 O.3   137  TYR137     -0.2866
     93  N        -23.7130  -13.1680  -15.0370 N.am  138  ASN138     -0.1974
     94  CA       -22.6240  -14.0400  -15.4500 C.3   138  ASN138      0.1688
     95  C        -22.1330  -14.8610  -14.2590 C.2   138  ASN138      0.2292
     96  O        -22.8510  -15.0190  -13.2680 O.2   138  ASN138     -0.2864
     97  CB       -21.4880  -13.2160  -16.0680 C.3   138  ASN138      0.1181
     98  CG       -20.8840  -12.2100  -15.0940 C.2   138  ASN138      0.2629
     99  OD1      -21.0410  -12.3210  -13.8770 O.2   138  ASN138     -0.2716
    100  ND2      -20.2020  -11.2080  -15.6390 N.am  138  ASN138     -0.0877
    101  N        -19.5770  -14.2820  -12.2500 N.3   140  ASP140     -0.1239
    102  CA       -18.7790  -13.5220  -11.2880 C.3   140  ASP140      0.1674
    103  C        -19.0630  -13.9400   -9.8480 C.2   140  ASP140      0.2266
    104  O        -20.2160  -14.0650   -9.4230 O.2   140  ASP140     -0.2867
    105  CB       -19.0420  -12.0190  -11.4130 C.3   140  ASP140      0.1410
    106  CG       -18.4780  -11.4110  -12.6930 C.2   140  ASP140      0.3668
    107  OD1      -17.7590  -12.1020  -13.4500 O.co2 140  ASP140     -0.2456
    108  OD2      -18.7750  -10.2220  -12.9430 O.co2 140  ASP140     -0.2456
    109  N        -17.0530  -12.7620   -6.4570 N.3   142  PHE142     -0.1241
    110  CA       -15.9380  -11.9500   -5.9750 C.3   142  PHE142      0.1605
    111  C        -15.9750  -11.7360   -4.4660 C.2   142  PHE142      0.2264
    112  O        -17.0450  -11.5770   -3.8740 O.2   142  PHE142     -0.2867
    113  CB       -15.9370  -10.5820   -6.6650 C.3   142  PHE142      0.0534
    114  CG       -15.7640  -10.6290   -8.1610 C.ar  142  PHE142     -0.0203
    115  CD1      -14.8120  -11.4430   -8.7580 C.ar  142  PHE142     -0.0042
    116  CD2      -16.5520   -9.8270   -8.9720 C.ar  142  PHE142     -0.0042
    117  CE1      -14.6620  -11.4570  -10.1350 C.ar  142  PHE142     -0.0003
    118  CE2      -16.4020   -9.8350  -10.3300 C.ar  142  PHE142     -0.0003
    119  CZ       -15.4600  -10.6550  -10.9190 C.ar  142  PHE142     -0.0000
@<TRIPOS>BOND
     1    47    46    1
     2    92    91    1
     3    46    44   ar
     4    46    45   ar
     5    91    89   ar
     6    91    90   ar
     7    89    87   ar
     8    44    42   ar
     9    45    43   ar
    10    90    88   ar
    11    87    86   ar
    12    43    41   ar
    13    42    41   ar
    14    88    86   ar
    15    84    83    2
    16    86    85    1
    17    41    40    1
    18    97    94    1
    19    97    98    1
    20    83    82    1
    21    83    93   am
    22   100    98   am
    23    94    93    1
    24    94    95    1
    25    85    82    1
    26    82    81    1
    27    40    37    1
    28    55    53    1
    29    53    52    1
    30    98    99    2
    31    48    49    1
    32    39    38    2
    33    37    38    1
    34    37    36    1
    35    95    96    2
    36    31    30    2
    37    49    52    1
    38    49    50    1
    39    52    54    1
    40   107   106   ar
    41    36    30   am
    42    30    29    1
    43   108   106   ar
    44   106   105    1
    45    19    17    1
    46    50    51    2
    47    79    78    2
    48   101   102    1
    49    32    29    1
    50    32    33    1
    51    80    78   am
    52    18    16    1
    53    29    28    1
    54    78    77    1
    55   105   102    1
    56   102   103    1
    57    33    34   ar
    58    33    35   ar
    59    17    16    1
    60    26    25    2
    61    16    13    1
    62   119   118   ar
    63   119   117   ar
    64    77    74    1
    65    28    22   am
    66    75    76    2
    67    75    74    1
    68   118   116   ar
    69   117   115   ar
    70    25    27   am
    71    25    24    1
    72    23    22    2
    73     1     2    1
    74    22    21    1
    75   103   104    2
    76    74    73    1
    77    15    14    2
    78    13    14    1
    79    13    12    1
    80    62    61   ar
    81   116   114   ar
    82    24    21    1
    83   115   114   ar
    84    63    61   ar
    85    21    20    1
    86    61    60    1
    87    56    57    1
    88    72    70   am
    89     2     5    1
    90     2     3    1
    91   114   113    1
    92     4     3    2
    93     5     6    1
    94    57    60    1
    95    57    58    1
    96    71    70    2
    97    70    69    1
    98   113   110    1
    99   109   110    1
   100    58    59    2
   101     6     8   ar
   102     6     7   ar
   103    67    66    2
   104    69    68    1
   105   110   111    1
   106     8    10   ar
   107    66    65    1
   108     7     9   ar
   109    68    65    1
   110    65    64    1
   111    10    11   ar
   112   111   112    2
   113     9    11   ar
