@<TRIPOS>MOLECULE
tmp/5cgcA05.pdb
 165 156 0 0 0
SMALL
GASTEIGER

@<TRIPOS>ATOM
      1  N        -25.1620    7.3230   37.5690 N.3    57  GLY57      -0.1210
      2  CA       -24.6710    8.3600   38.4550 C.3    57  GLY57       0.1956
      3  C        -25.8110    9.1700   39.0360 C.2    57  GLY57       0.2611
      4  O        -25.7890    9.5390   40.2080 O.2    57  GLY57      -0.2717
      5  N        -26.8140    9.4440   38.2090 N.am   58  ILE58      -0.1979
      6  CA       -27.9890   10.1910   38.6420 C.3    58  ILE58       0.1595
      7  C        -28.8100    9.3840   39.6470 C.2    58  ILE58       0.2287
      8  O        -29.3270    9.9310   40.6230 O.2    58  ILE58      -0.2864
      9  CB       -28.8760   10.5820   37.4430 C.3    58  ILE58       0.0276
     10  CG1      -28.1050   11.4960   36.4890 C.3    58  ILE58       0.0022
     11  CG2      -30.1430   11.2760   37.9110 C.3    58  ILE58       0.0022
     12  CD1      -28.9210   11.9740   35.3060 C.3    58  ILE58       0.0001
     13  N        -27.2650    9.5120   42.8540 N.3    61  GLY61      -0.1225
     14  CA       -27.4400   10.8750   43.3170 C.3    61  GLY61       0.1811
     15  C        -28.6880   11.0030   44.1680 C.2    61  GLY61       0.2280
     16  O        -28.6840   11.6780   45.1940 O.2    61  GLY61      -0.2866
     17  N        -28.6410    9.1370   47.5370 N.3    64  CYS64      -0.1235
     18  CA       -27.8770    9.8410   48.5590 C.3    64  CYS64       0.1677
     19  C        -28.7480   10.3040   49.7150 C.2    64  CYS64       0.2270
     20  O        -28.3500   10.1980   50.8720 O.2    64  CYS64      -0.2867
     21  CB       -27.1520   11.0390   47.9520 C.3    64  CYS64       0.0956
     22  SG       -25.5360   10.6440   47.2590 S.3    64  CYS64      -0.0801
     23  N        -21.1010    8.3010   48.1270 N.3    83  GLY83      -0.1210
     24  CA       -22.2130    8.5590   47.2260 C.3    83  GLY83       0.1956
     25  C        -22.2430   10.0000   46.7470 C.2    83  GLY83       0.2611
     26  O        -22.5530   10.2780   45.5910 O.2    83  GLY83      -0.2717
     27  N        -21.9120   10.9220   47.6430 N.am   84  ILE84      -0.1979
     28  CA       -21.8630   12.3410   47.3020 C.3    84  ILE84       0.1595
     29  C        -20.6040   12.6410   46.4840 C.2    84  ILE84       0.2287
     30  O        -20.5410   13.6240   45.7400 O.2    84  ILE84      -0.2864
     31  CB       -21.9040   13.2220   48.5770 C.3    84  ILE84       0.0276
     32  CG1      -23.1020   12.8330   49.4440 C.3    84  ILE84       0.0022
     33  CG2      -21.9760   14.7060   48.2280 C.3    84  ILE84       0.0022
     34  CD1      -23.2370   13.6450   50.7100 C.3    84  ILE84       0.0001
     35  N        -21.0060    9.7150   42.6920 N.3    87  SER87      -0.1203
     36  CA       -22.1800    9.8770   41.8370 C.3    87  SER87       0.2005
     37  C        -22.0310   11.0240   40.8280 C.2    87  SER87       0.2460
     38  O        -22.3750   10.8490   39.6590 O.2    87  SER87      -0.2732
     39  CB       -23.4370   10.0860   42.6830 C.3    87  SER87       0.2103
     40  OG       -23.4800    9.1700   43.7640 O.3    87  SER87      -0.2182
     41  N        -21.5230   12.1990   41.2620 N.am   88  PRO88      -0.2728
     42  CA       -21.2920   13.2260   40.2390 C.3    88  PRO88       0.1401
     43  C        -20.1970   12.8300   39.2570 C.2    88  PRO88       0.2269
     44  O        -20.2710   13.1740   38.0780 O.2    88  PRO88      -0.2865
     45  CB       -20.8610   14.4500   41.0530 C.3    88  PRO88       0.0296
     46  CG       -21.3510   14.1940   42.4270 C.3    88  PRO88       0.0237
     47  CD       -21.2700   12.7240   42.6160 C.3    88  PRO88       0.0939
     48  N        -21.1830   10.7360   36.3320 N.3    91  SER91      -0.1202
     49  CA       -21.9760   11.4640   35.3520 C.3    91  SER91       0.2020
     50  C        -21.1310   12.4420   34.5540 C.2    91  SER91       0.2618
     51  O        -21.2830   12.5430   33.3420 O.2    91  SER91      -0.2717
     52  CB       -23.1210   12.2080   36.0380 C.3    91  SER91       0.2103
     53  OG       -24.0670   11.2980   36.5720 O.3    91  SER91      -0.2182
     54  N        -20.2360   13.1550   35.2300 N.am   92  TYR92      -0.1975
     55  CA       -19.4790   14.2200   34.5800 C.3    92  TYR92       0.1639
     56  C        -18.1890   13.7300   33.9310 C.2    92  TYR92       0.2290
     57  O        -17.6710   14.3710   33.0210 O.2    92  TYR92      -0.2864
     58  CB       -19.1760   15.3300   35.5880 C.3    92  TYR92       0.0560
     59  CG       -20.4280   15.9700   36.1420 C.ar   92  TYR92      -0.0198
     60  CD1      -21.5250   16.2010   35.3260 C.ar   92  TYR92      -0.0009
     61  CD2      -20.5230   16.3220   37.4800 C.ar   92  TYR92      -0.0009
     62  CE1      -22.6750   16.7750   35.8230 C.ar   92  TYR92       0.0417
     63  CE2      -21.6700   16.8970   37.9840 C.ar   92  TYR92       0.0417
     64  CZ       -22.7430   17.1210   37.1510 C.ar   92  TYR92       0.1957
     65  OH       -23.8890   17.6910   37.6520 O.3    92  TYR92      -0.2866
     66  N        -15.0050   16.8960   52.4180 N.3   317  VAL317     -0.1245
     67  CA       -16.0000   17.3330   51.4500 C.3   317  VAL317      0.1561
     68  C        -15.3650   18.1490   50.3290 C.2   317  VAL317      0.2260
     69  O        -15.7220   17.9950   49.1640 O.2   317  VAL317     -0.2867
     70  CB       -17.1090   18.1690   52.1220 C.3   317  VAL317      0.0252
     71  CG1      -18.0930   18.6910   51.0850 C.3   317  VAL317      0.0019
     72  CG2      -17.8310   17.3420   53.1730 C.3   317  VAL317      0.0019
     73  N        -13.0770   16.0360   47.2080 N.3   320  PRO320     -0.2102
     74  CA       -13.8460   15.4810   46.0850 C.3   320  PRO320      0.1504
     75  C        -14.6540   16.5450   45.3380 C.2   320  PRO320      0.2575
     76  O        -14.7740   16.4840   44.1140 O.2   320  PRO320     -0.2718
     77  CB       -14.7760   14.4640   46.7590 C.3   320  PRO320      0.0282
     78  CG       -14.8320   14.8790   48.1960 C.3   320  PRO320      0.0208
     79  CD       -13.4770   15.4280   48.4920 C.3   320  PRO320      0.0893
     80  N        -15.1920   17.5100   46.0770 N.am  321  LEU321     -0.1980
     81  CA       -15.9450   18.6120   45.4870 C.3   321  LEU321      0.1596
     82  C        -15.0780   19.3910   44.5120 C.2   321  LEU321      0.2287
     83  O        -15.5490   19.8600   43.4790 O.2   321  LEU321     -0.2864
     84  CB       -16.4720   19.5440   46.5770 C.3   321  LEU321      0.0297
     85  CG       -17.2410   20.8010   46.1690 C.3   321  LEU321      0.0022
     86  CD1      -18.6360   20.4530   45.6780 C.3   321  LEU321      0.0001
     87  CD2      -17.3010   21.7760   47.3340 C.3   321  LEU321      0.0001
     88  N        -14.5790   17.1410   41.2450 N.3   324  ASN324     -0.1240
     89  CA       -15.7720   17.1920   40.4070 C.3   324  ASN324      0.1653
     90  C        -15.8460   18.5130   39.6560 C.2   324  ASN324      0.2266
     91  O        -16.2450   18.5570   38.4930 O.2   324  ASN324     -0.2867
     92  CB       -17.0370   17.0010   41.2440 C.3   324  ASN324      0.1155
     93  CG       -17.1480   15.6080   41.8260 C.2   324  ASN324      0.2627
     94  OD1      -17.0870   15.4250   43.0410 O.2   324  ASN324     -0.2716
     95  ND2      -17.3180   14.6170   40.9600 N.am  324  ASN324     -0.0877
     96  N        -25.2350   26.0650   39.7760 N.3   361  ILE361     -0.1231
     97  CA       -25.6590   25.3450   40.9720 C.3   361  ILE361      0.1692
     98  C        -24.4800   25.0400   41.8910 C.2   361  ILE361      0.2592
     99  O        -24.5800   25.1650   43.1110 O.2   361  ILE361     -0.2718
    100  CB       -26.3710   24.0210   40.6100 C.3   361  ILE361      0.0266
    101  CG1      -27.6520   24.3010   39.8230 C.3   361  ILE361      0.0019
    102  CG2      -26.6900   23.2150   41.8570 C.3   361  ILE361      0.0020
    103  CD1      -28.4100   23.0540   39.4290 C.3   361  ILE361      0.0001
    104  N        -23.3570   24.6560   41.2950 N.am  362  TRP362     -0.1976
    105  CA       -22.1880   24.2290   42.0570 C.3   362  TRP362      0.1640
    106  C        -21.3800   25.3940   42.6210 C.2   362  TRP362      0.2290
    107  O        -20.7580   25.2670   43.6740 O.2   362  TRP362     -0.2864
    108  CB       -21.2980   23.3480   41.1830 C.3   362  TRP362      0.0576
    109  CG       -21.8050   21.9500   41.0670 C.ar  362  TRP362      0.0006
    110  CD1      -22.9650   21.5470   40.4780 C.ar  362  TRP362      0.0946
    111  CD2      -21.1690   20.7620   41.5550 C.ar  362  TRP362      0.0152
    112  NE1      -23.0930   20.1830   40.5670 N.ar  362  TRP362     -0.2442
    113  CE2      -22.0030   19.6770   41.2240 C.ar  362  TRP362      0.0810
    114  CE3      -19.9760   20.5120   42.2380 C.ar  362  TRP362      0.0012
    115  CZ2      -21.6820   18.3620   41.5530 C.ar  362  TRP362      0.0191
    116  CZ3      -19.6590   19.2060   42.5620 C.ar  362  TRP362      0.0001
    117  CH2      -20.5090   18.1480   42.2210 C.ar  362  TRP362      0.0015
    118  N        -23.2640   26.5680   45.5530 N.3   365  PHE365     -0.1241
    119  CA       -23.2480   25.5640   46.6120 C.3   365  PHE365      0.1605
    120  C        -22.2120   25.8690   47.6940 C.2   365  PHE365      0.2264
    121  O        -22.4700   25.6680   48.8820 O.2   365  PHE365     -0.2867
    122  CB       -22.9870   24.1760   46.0160 C.3   365  PHE365      0.0534
    123  CG       -22.8840   23.0820   47.0420 C.ar  365  PHE365     -0.0203
    124  CD1      -24.0250   22.4990   47.5670 C.ar  365  PHE365     -0.0042
    125  CD2      -21.6460   22.6320   47.4780 C.ar  365  PHE365     -0.0042
    126  CE1      -23.9340   21.4910   48.5120 C.ar  365  PHE365     -0.0003
    127  CE2      -21.5490   21.6250   48.4230 C.ar  365  PHE365     -0.0003
    128  CZ       -22.6950   21.0540   48.9390 C.ar  365  PHE365     -0.0000
    129  N        -27.6210   19.7240   51.4560 N.3   379  MET379     -0.1245
    130  CA       -26.9430   18.6950   50.6830 C.3   379  MET379      0.1570
    131  C        -27.9720   17.9370   49.8510 C.2   379  MET379      0.2261
    132  O        -27.8610   17.8820   48.6310 O.2   379  MET379     -0.2867
    133  CB       -26.1640   17.7420   51.5940 C.3   379  MET379      0.0387
    134  CG       -25.3120   16.7200   50.8480 C.3   379  MET379      0.0595
    135  SD       -24.0870   17.4540   49.7400 S.3   379  MET379     -0.1393
    136  CE       -22.7430   17.7950   50.8730 C.3   379  MET379      0.0692
    137  N        -29.5250   20.2180   47.0390 N.3   382  SER382     -0.1202
    138  CA       -28.4860   20.5540   46.0710 C.3   382  SER382      0.2020
    139  C        -28.1520   19.3440   45.2130 C.2   382  SER382      0.2618
    140  O        -28.0690   19.4350   43.9880 O.2   382  SER382     -0.2717
    141  CB       -27.2250   21.0470   46.7770 C.3   382  SER382      0.2103
    142  OG       -27.5380   21.9540   47.8190 O.3   382  SER382     -0.2182
    143  N        -27.9640   18.2110   45.8790 N.am  383  VAL383     -0.1979
    144  CA       -27.6340   16.9570   45.2210 C.3   383  VAL383      0.1595
    145  C        -28.7110   16.5320   44.2270 C.2   383  VAL383      0.2287
    146  O        -28.4130   16.2220   43.0750 O.2   383  VAL383     -0.2864
    147  CB       -27.4240   15.8370   46.2580 C.3   383  VAL383      0.0276
    148  CG1      -27.4650   14.4880   45.6000 C.3   383  VAL383      0.0022
    149  CG2      -26.1020   16.0350   46.9880 C.3   383  VAL383      0.0022
    150  N        -29.1640   18.9190   41.2020 N.3   386  SER386     -0.1202
    151  CA       -28.1080   18.7180   40.2210 C.3   386  SER386      0.2020
    152  C        -28.3730   17.4820   39.3700 C.2   386  SER386      0.2618
    153  O        -28.1560   17.4950   38.1590 O.2   386  SER386     -0.2717
    154  CB       -26.7560   18.5970   40.9150 C.3   386  SER386      0.2103
    155  OG       -25.7350   18.2630   39.9940 O.3   386  SER386     -0.2182
    156  N        -28.8440   16.4180   40.0100 N.am  387  ALA387     -0.1979
    157  CA       -29.1500   15.1800   39.3080 C.3   387  ALA387      0.1597
    158  C        -30.3920   15.3450   38.4350 C.2   387  ALA387      0.2287
    159  O        -30.4860   14.7630   37.3530 O.2   387  ALA387     -0.2864
    160  CB       -29.3420   14.0440   40.3000 C.3   387  ALA387      0.0319
    161  N        -29.6080   17.4090   35.1300 N.3   390  ALA390     -0.1245
    162  CA       -28.9420   16.5610   34.1480 C.3   390  ALA390      0.1562
    163  C        -29.9380   15.6480   33.4470 C.2   390  ALA390      0.2260
    164  O        -29.8440   15.4150   32.2440 O.2   390  ALA390     -0.2867
    165  CB       -27.8500   15.7360   34.8090 C.3   390  ALA390      0.0290
@<TRIPOS>BOND
     1   164   163    2
     2    57    56    2
     3    51    50    2
     4   163   162    1
     5    56    55    1
     6   162   165    1
     7   162   161    1
     8    50    54   am
     9    50    49    1
    10    55    54    1
    11    55    58    1
    12    12    10    1
    13    60    62   ar
    14    60    59   ar
    15    49    52    1
    16    49    48    1
    17    58    59    1
    18    62    64   ar
    19    52    53    1
    20    59    61   ar
    21    10     9    1
    22    64    65    1
    23    64    63   ar
    24   159   158    2
    25     9    11    1
    26     9     6    1
    27    61    63   ar
    28     1     2    1
    29    44    43    2
    30   153   152    2
    31     5     6    1
    32     5     3   am
    33   158   157    1
    34     2     3    1
    35    91    90    2
    36     6     7    1
    37     3     4    2
    38    43    42    1
    39   157   156    1
    40   157   160    1
    41   152   156   am
    42   152   151    1
    43   103   101    1
    44     7     8    2
    45    90    89    1
    46    38    37    2
    47    96    97    1
    48   101   100    1
    49   155   154    1
    50   151   154    1
    51   151   150    1
    52    42    45    1
    53    42    41    1
    54    89    92    1
    55    89    88    1
    56   110   112   ar
    57   110   109   ar
    58   112   113   ar
    59   100    97    1
    60   100   102    1
    61    37    41   am
    62    37    36    1
    63    95    93   am
    64    97    98    1
    65    45    46    1
    66   109   108    1
    67   109   111   ar
    68   108   105    1
    69   113   115   ar
    70   113   111   ar
    71    92    93    1
    72    41    47    1
    73   104    98   am
    74   104   105    1
    75   115   117   ar
    76   111   114   ar
    77    93    94    2
    78    36    39    1
    79    36    35    1
    80    98    99    2
    81   105   106    1
    82   117   116   ar
    83   114   116   ar
    84    46    47    1
    85   106   107    2
    86    39    40    1
    87    13    14    1
    88   146   145    2
    89    14    15    1
    90    83    82    2
    91   140   139    2
    92    76    75    2
    93    15    16    2
    94   145   144    1
    95    82    81    1
    96   139   143   am
    97   139   138    1
    98   144   143    1
    99   144   147    1
   100    75    80   am
   101    75    74    1
   102    81    80    1
   103    81    84    1
   104   118   119    1
   105    26    25    2
   106   148   147    1
   107    86    85    1
   108    30    29    2
   109   122   119    1
   110   122   123    1
   111   138   141    1
   112   138   137    1
   113    74    77    1
   114    74    73    1
   115    85    84    1
   116    85    87    1
   117   147   149    1
   118    29    28    1
   119   119   120    1
   120    25    24    1
   121    25    27   am
   122    77    78    1
   123   141   142    1
   124   123   125   ar
   125   123   124   ar
   126    73    79    1
   127    24    23    1
   128    22    21    1
   129    28    27    1
   130    28    31    1
   131   125   127   ar
   132    17    18    1
   133   124   126   ar
   134   120   121    2
   135    21    18    1
   136    78    79    1
   137    33    31    1
   138   127   128   ar
   139   126   128   ar
   140    18    19    1
   141    31    32    1
   142   132   131    2
   143    69    68    2
   144    32    34    1
   145    19    20    2
   146   135   134    1
   147   135   136    1
   148   131   130    1
   149    68    67    1
   150   130   129    1
   151   130   133    1
   152   134   133    1
   153    71    70    1
   154    67    70    1
   155    67    66    1
   156    70    72    1
