@<TRIPOS>MOLECULE
tmp/5cgdA04.pdb
 166 155 0 0 0
SMALL
GASTEIGER

@<TRIPOS>ATOM
      1  N        -24.0590    7.2690   33.0660 N.3    54  ILE54      -0.1245
      2  CA       -24.6300    8.5530   33.4560 C.3    54  ILE54       0.1561
      3  C        -25.9210    8.3410   34.2430 C.2    54  ILE54       0.2260
      4  O        -26.1760    9.0240   35.2350 O.2    54  ILE54      -0.2867
      5  CB       -24.9090    9.4470   32.2300 C.3    54  ILE54       0.0252
      6  CG1      -23.6080    9.7500   31.4840 C.3    54  ILE54       0.0019
      7  CG2      -25.5760   10.7460   32.6520 C.3    54  ILE54       0.0019
      8  CD1      -23.7850   10.6540   30.2810 C.3    54  ILE54       0.0001
      9  N        -25.1220    6.9660   37.7800 N.3    57  GLY57      -0.1210
     10  CA       -24.6380    8.0250   38.6470 C.3    57  GLY57       0.1956
     11  C        -25.7640    8.8900   39.1820 C.2    57  GLY57       0.2611
     12  O        -25.7250    9.3370   40.3280 O.2    57  GLY57      -0.2717
     13  N        -26.7680    9.1290   38.3450 N.am   58  ILE58      -0.1979
     14  CA       -27.9430    9.8940   38.7470 C.3    58  ILE58       0.1595
     15  C        -28.7790    9.0920   39.7430 C.2    58  ILE58       0.2287
     16  O        -29.3190    9.6430   40.7050 O.2    58  ILE58      -0.2864
     17  CB       -28.8060   10.2830   37.5270 C.3    58  ILE58       0.0276
     18  CG1      -28.0100   11.1810   36.5790 C.3    58  ILE58       0.0022
     19  CG2      -30.0810   10.9890   37.9650 C.3    58  ILE58       0.0022
     20  CD1      -28.7270   11.5010   35.2880 C.3    58  ILE58       0.0001
     21  N        -27.1990    9.1290   42.9810 N.3    61  GLY61      -0.1225
     22  CA       -27.3950   10.4750   43.4860 C.3    61  GLY61       0.1811
     23  C        -28.6240   10.5670   44.3660 C.2    61  GLY61       0.2280
     24  O        -28.5630   11.0730   45.4820 O.2    61  GLY61      -0.2866
     25  N        -28.4310    8.8570   47.6990 N.3    64  CYS64      -0.1235
     26  CA       -27.6310    9.5270   48.7220 C.3    64  CYS64       0.1677
     27  C        -28.4770   10.0170   49.8870 C.2    64  CYS64       0.2270
     28  O        -28.0720    9.9100   51.0430 O.2    64  CYS64      -0.2867
     29  CB       -26.8640   10.7080   48.1240 C.3    64  CYS64       0.0956
     30  SG       -25.4240   10.2530   47.1380 S.3    64  CYS64      -0.0801
     31  N        -21.0920    7.8790   48.2120 N.3    83  GLY83      -0.1210
     32  CA       -22.2110    8.2860   47.3830 C.3    83  GLY83       0.1956
     33  C        -22.1380    9.7240   46.9060 C.2    83  GLY83       0.2611
     34  O        -22.3920   10.0080   45.7390 O.2    83  GLY83      -0.2717
     35  N        -21.7990   10.6370   47.8090 N.am   84  ILE84      -0.1979
     36  CA       -21.7310   12.0560   47.4720 C.3    84  ILE84       0.1595
     37  C        -20.4860   12.3420   46.6260 C.2    84  ILE84       0.2287
     38  O        -20.4280   13.3300   45.8910 O.2    84  ILE84      -0.2864
     39  CB       -21.7400   12.9300   48.7530 C.3    84  ILE84       0.0276
     40  CG1      -22.9990   12.6430   49.5760 C.3    84  ILE84       0.0022
     41  CG2      -21.6870   14.4150   48.4160 C.3    84  ILE84       0.0022
     42  CD1      -23.0690   13.4060   50.8800 C.3    84  ILE84       0.0001
     43  N        -20.8590    9.4380   42.8020 N.3    87  SER87      -0.1203
     44  CA       -22.0310    9.6390   41.9490 C.3    87  SER87       0.2005
     45  C        -21.8550   10.7740   40.9270 C.2    87  SER87       0.2460
     46  O        -22.1970   10.5940   39.7550 O.2    87  SER87      -0.2732
     47  CB       -23.2770    9.9000   42.7960 C.3    87  SER87       0.2103
     48  OG       -23.5030    8.8420   43.7090 O.3    87  SER87      -0.2182
     49  N        -21.3300   11.9430   41.3510 N.am   88  PRO88      -0.2728
     50  CA       -21.0770   12.9460   40.3100 C.3    88  PRO88       0.1401
     51  C        -19.9500   12.5150   39.3800 C.2    88  PRO88       0.2269
     52  O        -19.9670   12.8330   38.1940 O.2    88  PRO88      -0.2865
     53  CB       -20.6730   14.1950   41.1030 C.3    88  PRO88       0.0296
     54  CG       -21.1190   13.9470   42.4970 C.3    88  PRO88       0.0237
     55  CD       -21.0370   12.4750   42.6940 C.3    88  PRO88       0.0939
     56  N        -21.2360   10.2550   36.4620 N.3    91  SER91      -0.1202
     57  CA       -22.0130   10.9130   35.4180 C.3    91  SER91       0.2020
     58  C        -21.1680   11.8960   34.6170 C.2    91  SER91       0.2618
     59  O        -21.2190   11.9140   33.3870 O.2    91  SER91      -0.2717
     60  CB       -23.2180   11.6360   36.0250 C.3    91  SER91       0.2103
     61  OG       -24.0960   10.7170   36.6480 O.3    91  SER91      -0.2182
     62  N        -20.3830   12.7030   35.3230 N.am   92  TYR92      -0.1975
     63  CA       -19.6100   13.7710   34.6960 C.3    92  TYR92       0.1639
     64  C        -18.3900   13.2580   33.9250 C.2    92  TYR92       0.2290
     65  O        -18.0820   13.7600   32.8450 O.2    92  TYR92      -0.2864
     66  CB       -19.1750   14.7880   35.7550 C.3    92  TYR92       0.0560
     67  CG       -20.3340   15.5080   36.4190 C.ar   92  TYR92      -0.0198
     68  CD1      -21.4880   15.8110   35.7070 C.ar   92  TYR92      -0.0009
     69  CD2      -20.2780   15.8750   37.7580 C.ar   92  TYR92      -0.0009
     70  CE1      -22.5510   16.4650   36.3070 C.ar   92  TYR92       0.0417
     71  CE2      -21.3360   16.5280   38.3670 C.ar   92  TYR92       0.0417
     72  CZ       -22.4700   16.8210   37.6360 C.ar   92  TYR92       0.1957
     73  OH       -23.5250   17.4690   38.2350 O.3    92  TYR92      -0.2866
     74  N        -14.9220   16.7190   52.4610 N.3   317  VAL317     -0.1245
     75  CA       -15.9200   17.2040   51.5190 C.3   317  VAL317      0.1561
     76  C        -15.2610   17.9450   50.3610 C.2   317  VAL317      0.2260
     77  O        -15.6320   17.7540   49.2030 O.2   317  VAL317     -0.2867
     78  CB       -16.9370   18.1390   52.2060 C.3   317  VAL317      0.0252
     79  CG1      -17.9760   18.6260   51.2060 C.3   317  VAL317      0.0019
     80  CG2      -17.6060   17.4310   53.3730 C.3   317  VAL317      0.0019
     81  N        -15.0130   17.2580   46.1820 N.3   321  LEU321     -0.1245
     82  CA       -15.7630   18.3560   45.5740 C.3   321  LEU321      0.1561
     83  C        -14.9510   19.0150   44.4690 C.2   321  LEU321      0.2260
     84  O        -15.4580   19.2740   43.3770 O.2   321  LEU321     -0.2867
     85  CB       -16.1500   19.4010   46.6270 C.3   321  LEU321      0.0270
     86  CG       -16.9870   20.5980   46.1620 C.3   321  LEU321      0.0019
     87  CD1      -18.3820   20.1490   45.7690 C.3   321  LEU321      0.0001
     88  CD2      -17.0530   21.6840   47.2330 C.3   321  LEU321      0.0001
     89  N        -14.5360   16.7530   41.3500 N.3   324  ASN324     -0.1240
     90  CA       -15.7800   16.7920   40.5920 C.3   324  ASN324      0.1653
     91  C        -15.9270   18.1340   39.8930 C.2   324  ASN324      0.2266
     92  O        -16.5080   18.2210   38.8140 O.2   324  ASN324     -0.2867
     93  CB       -16.9840   16.5310   41.5000 C.3   324  ASN324      0.1155
     94  CG       -17.0950   15.0790   41.9180 C.2   324  ASN324      0.2627
     95  OD1      -16.6880   14.1780   41.1840 O.2   324  ASN324     -0.2716
     96  ND2      -17.6450   14.8440   43.1030 N.am  324  ASN324     -0.0877
     97  N        -25.0970   25.7850   39.8980 N.3   361  ILE361     -0.1231
     98  CA       -25.5550   25.0640   41.0840 C.3   361  ILE361      0.1692
     99  C        -24.3950   24.6940   42.0030 C.2   361  ILE361      0.2592
    100  O        -24.4620   24.8890   43.2170 O.2   361  ILE361     -0.2718
    101  CB       -26.3180   23.7740   40.7040 C.3   361  ILE361      0.0266
    102  CG1      -27.6040   24.1060   39.9420 C.3   361  ILE361      0.0019
    103  CG2      -26.6430   22.9540   41.9450 C.3   361  ILE361      0.0020
    104  CD1      -28.3740   22.8800   39.4930 C.3   361  ILE361      0.0001
    105  N        -23.3260   24.1670   41.4150 N.am  362  TRP362     -0.1976
    106  CA       -22.1690   23.7120   42.1800 C.3   362  TRP362      0.1640
    107  C        -21.3430   24.8680   42.7400 C.2   362  TRP362      0.2290
    108  O        -20.7480   24.7460   43.8100 O.2   362  TRP362     -0.2864
    109  CB       -21.2910   22.8110   41.3110 C.3   362  TRP362      0.0576
    110  CG       -21.7650   21.3930   41.2720 C.ar  362  TRP362      0.0006
    111  CD1      -22.9420   20.9340   40.7570 C.ar  362  TRP362      0.0946
    112  CD2      -21.0680   20.2430   41.7670 C.ar  362  TRP362      0.0152
    113  NE1      -23.0230   19.5700   40.9040 N.ar  362  TRP362     -0.2442
    114  CE2      -21.8840   19.1220   41.5200 C.ar  362  TRP362      0.0810
    115  CE3      -19.8310   20.0540   42.3930 C.ar  362  TRP362      0.0012
    116  CZ2      -21.5040   17.8300   41.8790 C.ar  362  TRP362      0.0191
    117  CZ3      -19.4570   18.7720   42.7480 C.ar  362  TRP362      0.0001
    118  CH2      -20.2900   17.6770   42.4910 C.ar  362  TRP362      0.0015
    119  N        -23.3380   26.3040   45.5520 N.3   365  PHE365     -0.1241
    120  CA       -23.3740   25.3240   46.6350 C.3   365  PHE365      0.1605
    121  C        -22.3440   25.6210   47.7190 C.2   365  PHE365      0.2264
    122  O        -22.6250   25.4670   48.9070 O.2   365  PHE365     -0.2867
    123  CB       -23.1480   23.9140   46.0740 C.3   365  PHE365      0.0534
    124  CG       -22.8500   22.8760   47.1240 C.ar  365  PHE365     -0.0203
    125  CD1      -23.8750   22.2570   47.8190 C.ar  365  PHE365     -0.0042
    126  CD2      -21.5440   22.5090   47.4030 C.ar  365  PHE365     -0.0042
    127  CE1      -23.6030   21.3000   48.7780 C.ar  365  PHE365     -0.0003
    128  CE2      -21.2640   21.5530   48.3640 C.ar  365  PHE365     -0.0003
    129  CZ       -22.2970   20.9470   49.0510 C.ar  365  PHE365     -0.0000
    130  N        -27.5430   19.3820   51.7290 N.3   379  MET379     -0.1245
    131  CA       -26.8540   18.4170   50.8790 C.3   379  MET379      0.1570
    132  C        -27.8590   17.5810   50.0930 C.2   379  MET379      0.2261
    133  O        -27.6590   17.3100   48.9130 O.2   379  MET379     -0.2867
    134  CB       -25.9500   17.5060   51.7110 C.3   379  MET379      0.0387
    135  CG       -25.1880   16.4740   50.8880 C.3   379  MET379      0.0595
    136  SD       -23.9540   17.2120   49.8010 S.3   379  MET379     -0.1393
    137  CE       -22.7170   17.7140   50.9880 C.3   379  MET379      0.0692
    138  N        -29.3340   19.7160   47.2390 N.3   382  SER382     -0.1202
    139  CA       -28.2820   20.0320   46.2760 C.3   382  SER382      0.2020
    140  C        -27.9940   18.8420   45.3710 C.2   382  SER382      0.2618
    141  O        -27.8740   18.9890   44.1580 O.2   382  SER382     -0.2717
    142  CB       -27.0030   20.4610   46.9960 C.3   382  SER382      0.2103
    143  OG       -27.2360   21.5800   47.8310 O.3   382  SER382     -0.2182
    144  N        -27.8830   17.6650   45.9790 N.am  383  VAL383     -0.1979
    145  CA       -27.6290   16.4300   45.2490 C.3   383  VAL383      0.1595
    146  C        -28.7700   16.1000   44.2920 C.2   383  VAL383      0.2287
    147  O        -28.5460   15.8370   43.1090 O.2   383  VAL383     -0.2864
    148  CB       -27.4210   15.2420   46.2110 C.3   383  VAL383      0.0276
    149  CG1      -27.3960   13.9380   45.4430 C.3   383  VAL383      0.0022
    150  CG2      -26.1280   15.4100   46.9790 C.3   383  VAL383      0.0022
    151  N        -29.0260   18.6060   41.4700 N.3   386  SER386     -0.1202
    152  CA       -27.9370   18.3410   40.5370 C.3   386  SER386      0.2020
    153  C        -28.2500   17.1330   39.6590 C.2   386  SER386      0.2618
    154  O        -27.9120   17.1050   38.4770 O.2   386  SER386     -0.2717
    155  CB       -26.6320   18.1150   41.2960 C.3   386  SER386      0.2103
    156  OG       -25.5470   17.9330   40.4060 O.3   386  SER386     -0.2182
    157  N        -28.9090   16.1420   40.2470 N.am  387  ALA387     -0.1979
    158  CA       -29.2690   14.9270   39.5280 C.3   387  ALA387      0.1597
    159  C        -30.5170   15.1330   38.6710 C.2   387  ALA387      0.2287
    160  O        -30.6860   14.4830   37.6410 O.2   387  ALA387     -0.2864
    161  CB       -29.4810   13.7830   40.5030 C.3   387  ALA387      0.0319
    162  N        -29.5390   17.1350   35.2730 N.3   390  ALA390     -0.1245
    163  CA       -28.8880   16.2670   34.2980 C.3   390  ALA390      0.1562
    164  C        -29.8800   15.2760   33.6990 C.2   390  ALA390      0.2260
    165  O        -29.7230   14.8400   32.5610 O.2   390  ALA390     -0.2867
    166  CB       -27.7270   15.5320   34.9360 C.3   390  ALA390      0.0290
@<TRIPOS>BOND
     1     8     6    1
     2     6     5    1
     3     5     7    1
     4     5     2    1
     5   165   164    2
     6    65    64    2
     7     1     2    1
     8    59    58    2
     9     2     3    1
    10   164   163    1
    11    64    63    1
    12     3     4    2
    13   163   166    1
    14   163   162    1
    15    58    62   am
    16    58    57    1
    17    63    62    1
    18    63    66    1
    19    20    18    1
    20    57    60    1
    21    57    56    1
    22    68    70   ar
    23    68    67   ar
    24    66    67    1
    25    60    61    1
    26    70    72   ar
    27    67    69   ar
    28    18    17    1
    29    17    19    1
    30    17    14    1
    31    72    73    1
    32    72    71   ar
    33   160   159    2
    34    69    71   ar
    35     9    10    1
    36    52    51    2
    37    13    14    1
    38    13    11   am
    39   154   153    2
    40    10    11    1
    41   159   158    1
    42    14    15    1
    43    92    91    2
    44    11    12    2
    45    51    50    1
    46   104   102    1
    47   158   157    1
    48   158   161    1
    49   153   157   am
    50   153   152    1
    51    15    16    2
    52    46    45    2
    53    91    90    1
    54    97    98    1
    55   102   101    1
    56    50    53    1
    57    50    49    1
    58   156   155    1
    59   152   155    1
    60   152   151    1
    61    90    89    1
    62    90    93    1
    63   101    98    1
    64   101   103    1
    65   111   113   ar
    66   111   110   ar
    67   113   114   ar
    68    45    49   am
    69    45    44    1
    70    98    99    1
    71    53    54    1
    72    95    94    2
    73   110   109    1
    74   110   112   ar
    75   109   106    1
    76    49    55    1
    77   105    99   am
    78   105   106    1
    79    93    94    1
    80   114   112   ar
    81   114   116   ar
    82   112   115   ar
    83   116   118   ar
    84    94    96   am
    85    44    47    1
    86    44    43    1
    87    99   100    2
    88   106   107    1
    89   115   117   ar
    90   118   117   ar
    91    54    55    1
    92   107   108    2
    93    47    48    1
    94    21    22    1
    95   147   146    2
    96    84    83    2
    97    22    23    1
    98   141   140    2
    99   146   145    1
   100    23    24    2
   101    83    82    1
   102   145   144    1
   103   145   148    1
   104   140   144   am
   105   140   139    1
   106   149   148    1
   107   119   120    1
   108    82    81    1
   109    82    85    1
   110    34    33    2
   111    87    86    1
   112    38    37    2
   113   123   120    1
   114   123   124    1
   115    86    85    1
   116    86    88    1
   117   148   150    1
   118   139   142    1
   119   139   138    1
   120    37    36    1
   121   120   121    1
   122    33    32    1
   123    33    35   am
   124   142   143    1
   125   124   126   ar
   126   124   125   ar
   127    30    29    1
   128    32    31    1
   129   126   128   ar
   130    36    35    1
   131    36    39    1
   132    25    26    1
   133   121   122    2
   134   125   127   ar
   135    29    26    1
   136   128   129   ar
   137    41    39    1
   138    26    27    1
   139    39    40    1
   140   127   129   ar
   141   133   132    2
   142    77    76    2
   143    40    42    1
   144   136   135    1
   145   136   137    1
   146    27    28    2
   147   132   131    1
   148    76    75    1
   149   131   134    1
   150   131   130    1
   151   135   134    1
   152    79    78    1
   153    75    78    1
   154    75    74    1
   155    78    80    1
