@<TRIPOS>MOLECULE
tmp/5cggY00.pdb
 130 122 0 0 0
SMALL
GASTEIGER

@<TRIPOS>ATOM
      1  N         56.5170 -152.3530    8.3900 N.3     1  THR1       -0.1218
      2  CA        56.8400 -153.3280    7.3020 C.3     1  THR1        0.1862
      3  C         56.2980 -152.8650    5.9520 C.2     1  THR1        0.2287
      4  O         55.2680 -152.1960    5.8830 O.2     1  THR1       -0.2866
      5  CB        56.2630 -154.7270    7.6230 C.3     1  THR1        0.1770
      6  OG1       56.8390 -155.2110    8.8420 O.3     1  THR1       -0.2211
      7  CG2       56.5340 -155.7340    6.4970 C.3     1  THR1        0.0375
      8  N         63.0430 -153.9060    8.0160 N.3    19  ARG19      -0.1231
      9  CA        62.9250 -153.2520    9.3190 C.3    19  ARG19       0.1694
     10  C         61.9890 -153.9970   10.2740 C.2    19  ARG19       0.2592
     11  O         60.9610 -154.5330    9.8570 O.2    19  ARG19      -0.2718
     12  CB        62.4340 -151.8130    9.1640 C.3    19  ARG19       0.0321
     13  CG        62.3100 -151.0850   10.4970 C.3    19  ARG19       0.0489
     14  CD        62.1180 -149.5880   10.3410 C.3    19  ARG19       0.2205
     15  NE        63.2970 -148.9330    9.7770 N.pl3  19  ARG19      -0.0865
     16  CZ        63.4860 -147.6150    9.7340 C.cat  19  ARG19       0.5346
     17  NH1       62.5780 -146.7780   10.2250 N.pl3  19  ARG19       0.1354
     18  NH2       64.5990 -147.1300    9.1960 N.pl3  19  ARG19       0.1354
     19  N         62.3510 -154.0100   11.5560 N.am   20  ALA20      -0.1966
     20  CA        61.4870 -154.5430   12.6110 C.3    20  ALA20       0.1728
     21  C         61.3730 -153.5360   13.7500 C.2    20  ALA20       0.2617
     22  O         62.3800 -153.0170   14.2290 O.2    20  ALA20      -0.2715
     23  CB        62.0200 -155.8690   13.1250 C.3    20  ALA20       0.0334
     24  N         60.1420 -153.2710   14.1770 N.am   21  THR21      -0.1937
     25  CA        59.8660 -152.2150   15.1450 C.3    21  THR21       0.2028
     26  C         59.0830 -152.7260   16.3540 C.2    21  THR21       0.2642
     27  O         58.2580 -153.6350   16.2420 O.2    21  THR21      -0.2714
     28  CB        59.0590 -151.0690   14.4980 C.3    21  THR21       0.1808
     29  OG1       57.8200 -151.5770   13.9850 O.3    21  THR21      -0.2208
     30  CG2       59.8380 -150.4320   13.3620 C.3    21  THR21       0.0379
     31  N         59.3650 -152.1350   17.5100 N.am   22  ALA22      -0.1963
     32  CA        58.5850 -152.3600   18.7220 C.3    22  ALA22       0.1728
     33  C         58.0820 -150.9980   19.1930 C.2    22  ALA22       0.2616
     34  O         58.7150 -150.3340   20.0180 O.2    22  ALA22      -0.2715
     35  CB        59.4350 -153.0280   19.7910 C.3    22  ALA22       0.0334
     36  N         56.9420 -150.5850   18.6480 N.am   23  GLY23      -0.1955
     37  CA        56.4600 -149.2210   18.8180 C.3    23  GLY23       0.1869
     38  C         57.2900 -148.3040   17.9410 C.2    23  GLY23       0.2309
     39  O         57.4250 -148.5480   16.7410 O.2    23  GLY23      -0.2863
     40  N         63.9270 -151.9740   16.2180 N.3    27  ALA27      -0.1245
     41  CA        64.5350 -153.1390   16.8550 C.3    27  ALA27       0.1562
     42  C         65.6050 -153.7750   15.9860 C.2    27  ALA27       0.2260
     43  O         66.6240 -154.2310   16.5000 O.2    27  ALA27      -0.2867
     44  CB        63.4680 -154.1650   17.2030 C.3    27  ALA27       0.0290
     45  N         66.2140 -157.8460    9.0490 N.3    31  VAL31      -0.1231
     46  CA        65.3050 -158.9810    9.1790 C.3    31  VAL31       0.1692
     47  C         64.9680 -159.5880    7.8230 C.2    31  VAL31       0.2592
     48  O         64.6360 -158.8650    6.8820 O.2    31  VAL31      -0.2718
     49  CB        63.9950 -158.5540    9.8630 C.3    31  VAL31       0.0266
     50  CG1       62.9240 -159.6180    9.6940 C.3    31  VAL31       0.0020
     51  CG2       64.2390 -158.2760   11.3360 C.3    31  VAL31       0.0020
     52  N         65.0340 -160.9170    7.7390 N.am   32  LYS32      -0.1966
     53  CA        64.6080 -161.6390    6.5420 C.3    32  LYS32       0.1728
     54  C         63.0950 -161.8130    6.5690 C.2    32  LYS32       0.2616
     55  O         62.5670 -162.5460    7.4080 O.2    32  LYS32      -0.2715
     56  CB        65.2910 -163.0070    6.4390 C.3    32  LYS32       0.0311
     57  CG        66.6920 -162.9630    5.8390 C.3    32  LYS32       0.0038
     58  CD        67.1040 -164.3050    5.2390 C.3    32  LYS32       0.0206
     59  CE        66.4580 -164.5500    3.8780 C.3    32  LYS32       0.1093
     60  NZ        66.6860 -165.9340    3.3750 N.3    32  LYS32      -0.1314
     61  N         62.4070 -161.1280    5.6550 N.am   33  LYS33      -0.1977
     62  CA        60.9450 -161.1870    5.5550 C.3    33  LYS33       0.1596
     63  C         60.4520 -162.0860    4.4240 C.2    33  LYS33       0.2287
     64  O         59.2500 -162.2950    4.2840 O.2    33  LYS33      -0.2864
     65  CB        60.3730 -159.7800    5.3840 C.3    33  LYS33       0.0298
     66  CG        60.6540 -158.8890    6.5770 C.3    33  LYS33       0.0038
     67  CD        59.9040 -157.5740    6.5080 C.3    33  LYS33       0.0206
     68  CE        60.5040 -156.5830    7.4870 C.3    33  LYS33       0.1093
     69  NZ        59.6440 -155.3910    7.6930 N.3    33  LYS33      -0.1314
     70  N         56.4490 -161.9090    4.6640 N.3    45  MET45      -0.1230
     71  CA        56.0670 -161.7790    6.0690 C.3    45  MET45       0.1702
     72  C         55.8120 -160.3270    6.4670 C.2    45  MET45       0.2592
     73  O         56.6730 -159.4650    6.2950 O.2    45  MET45      -0.2718
     74  CB        57.1660 -162.3540    6.9580 C.3    45  MET45       0.0401
     75  CG        57.4680 -163.8230    6.7150 C.3    45  MET45       0.0596
     76  SD        58.6950 -164.4330    7.8860 S.3    45  MET45      -0.1393
     77  CE        59.3470 -165.8490    7.0160 C.3    45  MET45       0.0692
     78  N         54.6200 -160.0730    6.9990 N.am   46  ALA46      -0.1966
     79  CA        54.2580 -158.7680    7.5480 C.3    46  ALA46       0.1728
     80  C         53.2850 -158.9690    8.7010 C.2    46  ALA46       0.2617
     81  O         52.4580 -159.8810    8.6690 O.2    46  ALA46      -0.2715
     82  CB        53.6350 -157.8880    6.4760 C.3    46  ALA46       0.0334
     83  N         53.3810 -158.1080    9.7110 N.am   47  GLY47      -0.1940
     84  CA        52.5940 -158.2560   10.9360 C.3    47  GLY47       0.2014
     85  C         53.4880 -158.6980   12.0790 C.2    47  GLY47       0.2639
     86  O         54.6320 -158.2520   12.1760 O.2    47  GLY47      -0.2714
     87  N         52.9970 -159.5950   12.9140 N.am   48  CYS48      -0.1953
     88  CA        53.7530 -160.0490   14.0640 C.3    48  CYS48       0.1843
     89  C         54.9030 -160.8690   13.5880 C.2    48  CYS48       0.2625
     90  O         54.7260 -161.7820   12.8310 O.2    48  CYS48      -0.2714
     91  CB        52.8920 -160.9050   14.9580 C.3    48  CYS48       0.0997
     92  SG        53.6270 -161.3680   16.5520 S.3    48  CYS48      -0.0797
     93  N         56.0930 -160.5640   14.0550 N.am   49  ALA49      -0.1977
     94  CA        57.3080 -161.2360   13.6000 C.3    49  ALA49       0.1597
     95  C         57.2550 -162.7350   13.8680 C.2    49  ALA49       0.2287
     96  O         57.4720 -163.5440   12.9620 O.2    49  ALA49      -0.2864
     97  CB        58.5260 -160.6280   14.2790 C.3    49  ALA49       0.0319
     98  N         54.6670 -164.7420   14.6920 N.3    51  ASP51      -0.1225
     99  CA        53.5630 -165.4120   14.0020 C.3    51  ASP51       0.1805
    100  C         53.9350 -165.7670   12.5720 C.2    51  ASP51       0.2598
    101  O         53.7480 -166.9010   12.1390 O.2    51  ASP51      -0.2718
    102  CB        52.3110 -164.5310   13.9890 C.3    51  ASP51       0.1424
    103  CG        51.6680 -164.4000   15.3560 C.2    51  ASP51       0.3668
    104  OD1       51.9260 -165.2480   16.2370 O.co2  51  ASP51      -0.2456
    105  OD2       50.8860 -163.4470   15.5470 O.co2  51  ASP51      -0.2456
    106  N         54.4610 -164.7900   11.8440 N.am   52  CYS52      -0.1956
    107  CA        54.8950 -165.0090   10.4660 C.3    52  CYS52       0.1843
    108  C         56.0390 -166.0200   10.3950 C.2    52  CYS52       0.2625
    109  O         55.9530 -167.0130    9.6720 O.2    52  CYS52      -0.2714
    110  CB        55.3250 -163.6880    9.8250 C.3    52  CYS52       0.0997
    111  SG        53.9650 -162.5220    9.5730 S.3    52  CYS52      -0.0797
    112  N         57.0950 -165.7680   11.1640 N.am   53  GLN53      -0.1977
    113  CA        58.3020 -166.6010   11.1300 C.3    53  GLN53       0.1601
    114  C         58.0160 -168.0550   11.5120 C.2    53  GLN53       0.2287
    115  O         58.4990 -168.9790   10.8570 O.2    53  GLN53      -0.2864
    116  CB        59.3700 -166.0240   12.0620 C.3    53  GLN53       0.0394
    117  CG        60.7900 -166.4000   11.6900 C.3    53  GLN53       0.0908
    118  CD        61.8110 -165.7260   12.5850 C.2    53  GLN53       0.2608
    119  OE1       62.1410 -166.2320   13.6580 O.2    53  GLN53      -0.2717
    120  NE2       62.3140 -164.5730   12.1520 N.am   53  GLN53      -0.0878
    121  N         44.1290 -163.6100   18.1330 N.3    94  GLY94      -0.1225
    122  CA        45.0100 -162.4470   18.0770 C.3    94  GLY94       0.1811
    123  C         46.2840 -162.6260   17.2730 C.2    94  GLY94       0.2280
    124  O         47.2430 -161.8840   17.4790 O.2    94  GLY94      -0.2866
    125  N         48.6080 -162.0330   14.1380 N.3    96  SER96      -0.1217
    126  CA        48.7430 -160.8690   13.2670 C.3    96  SER96       0.1889
    127  C         49.7120 -161.1990   12.1360 C.2    96  SER96       0.2288
    128  O         50.9260 -161.2240   12.3340 O.2    96  SER96      -0.2866
    129  CB        49.2180 -159.6580   14.0720 C.3    96  SER96       0.2089
    130  OG        48.9700 -158.4520   13.3760 O.3    96  SER96      -0.2183
@<TRIPOS>BOND
     1    60    59    1
     2    59    58    1
     3    64    63    2
     4    63    62    1
     5    70    71    1
     6    58    57    1
     7    65    62    1
     8    65    66    1
     9    62    61    1
    10    61    54   am
    11    57    56    1
    12     4     3    2
    13     3     2    1
    14    71    72    1
    15    71    74    1
    16    73    72    2
    17    56    53    1
    18    72    78   am
    19    82    79    1
    20     7     5    1
    21    67    66    1
    22    67    68    1
    23    53    54    1
    24    53    52    1
    25    54    55    2
    26    75    74    1
    27    75    76    1
    28    48    47    2
    29    78    79    1
    30    77    76    1
    31     2     5    1
    32     2     1    1
    33    68    69    1
    34    79    80    1
    35     5     6    1
    36    52    47   am
    37    47    46    1
    38     8     9    1
    39    81    80    2
    40    80    83   am
    41    45    46    1
    42    12     9    1
    43    12    13    1
    44    46    49    1
    45    18    16    1
    46     9    10    1
    47   111   110    1
    48   109   108    2
    49    50    49    1
    50    83    84    1
    51    16    15    2
    52    16    17    1
    53    15    14    1
    54   110   107    1
    55    11    10    2
    56    49    51    1
    57    10    19   am
    58    14    13    1
    59   108   107    1
    60   108   112   am
    61   107   106    1
    62   115   114    2
    63    84    85    1
    64   113   112    1
    65   113   114    1
    66   113   116    1
    67    19    20    1
    68   117   116    1
    69   117   118    1
    70   106   100   am
    71    85    86    2
    72    85    87   am
    73   127   128    2
    74   127   126    1
    75   101   100    2
    76   120   118   am
    77   100    99    1
    78   118   119    2
    79    20    23    1
    80    20    21    1
    81    90    89    2
    82    87    88    1
    83    96    95    2
    84   126   129    1
    85   126   125    1
    86    30    28    1
    87   130   129    1
    88    89    93   am
    89    89    88    1
    90    94    95    1
    91    94    93    1
    92    94    97    1
    93    21    24   am
    94    21    22    2
    95    29    28    1
    96   102    99    1
    97   102   103    1
    98    99    98    1
    99    88    91    1
   100    24    25    1
   101    28    25    1
   102    91    92    1
   103    25    26    1
   104   103   105   ar
   105   103   104   ar
   106    42    43    2
   107    42    41    1
   108    40    41    1
   109    27    26    2
   110    26    31   am
   111    39    38    2
   112    41    44    1
   113   123   124    2
   114   123   122    1
   115    31    32    1
   116    38    37    1
   117   122   121    1
   118    36    37    1
   119    36    33   am
   120    32    33    1
   121    32    35    1
   122    33    34    2
