@<TRIPOS>MOLECULE
tmp/5cghY00.pdb
 135 128 0 0 0
SMALL
GASTEIGER

@<TRIPOS>ATOM
      1  N         56.7120 -152.1170    8.6310 N.3     1  THR1       -0.1218
      2  CA        56.9820 -153.1430    7.5780 C.3     1  THR1        0.1862
      3  C         56.3930 -152.7350    6.2300 C.2     1  THR1        0.2287
      4  O         55.3180 -152.1360    6.1650 O.2     1  THR1       -0.2866
      5  CB        56.4040 -154.5190    7.9760 C.3     1  THR1        0.1770
      6  OG1       56.9930 -154.9400    9.2100 O.3     1  THR1       -0.2211
      7  CG2       56.6670 -155.5800    6.9000 C.3     1  THR1        0.0375
      8  N         63.1380 -153.6650    8.5330 N.3    19  ARG19      -0.1231
      9  CA        63.0250 -152.9740    9.8190 C.3    19  ARG19       0.1694
     10  C         62.0930 -153.7060   10.7790 C.2    19  ARG19       0.2592
     11  O         61.0580 -154.2350   10.3720 O.2    19  ARG19      -0.2718
     12  CB        62.5320 -151.5370    9.6370 C.3    19  ARG19       0.0321
     13  CG        62.4360 -150.7730   10.9520 C.3    19  ARG19       0.0489
     14  CD        62.2050 -149.2850   10.7650 C.3    19  ARG19       0.2205
     15  NE        63.3750 -148.6080   10.2120 N.pl3  19  ARG19      -0.0865
     16  CZ        63.5560 -147.2870   10.1940 C.cat  19  ARG19       0.5346
     17  NH1       62.6460 -146.4620   10.7060 N.pl3  19  ARG19       0.1354
     18  NH2       64.6630 -146.7850    9.6600 N.pl3  19  ARG19       0.1354
     19  N         62.4720 -153.7220   12.0560 N.am   20  ALA20      -0.1966
     20  CA        61.6290 -154.2590   13.1190 C.3    20  ALA20       0.1728
     21  C         61.4720 -153.2100   14.2110 C.2    20  ALA20       0.2617
     22  O         62.4530 -152.6020   14.6380 O.2    20  ALA20      -0.2715
     23  CB        62.2290 -155.5350   13.6890 C.3    20  ALA20       0.0334
     24  N         60.2370 -153.0020   14.6600 N.am   21  THR21      -0.1937
     25  CA        59.9390 -151.9590   15.6390 C.3    21  THR21       0.2028
     26  C         59.1130 -152.4800   16.8110 C.2    21  THR21       0.2642
     27  O         58.2240 -153.3150   16.6370 O.2    21  THR21      -0.2714
     28  CB        59.1770 -150.7840   14.9910 C.3    21  THR21       0.1808
     29  OG1       57.9650 -151.2620   14.3950 O.3    21  THR21      -0.2208
     30  CG2       60.0320 -150.1140   13.9260 C.3    21  THR21       0.0379
     31  N         59.4330 -151.9800   18.0030 N.am   22  ALA22      -0.1963
     32  CA        58.6330 -152.2000   19.2030 C.3    22  ALA22       0.1728
     33  C         58.1990 -150.8250   19.7000 C.2    22  ALA22       0.2616
     34  O         58.9200 -150.1670   20.4510 O.2    22  ALA22      -0.2715
     35  CB        59.4440 -152.9280   20.2620 C.3    22  ALA22       0.0334
     36  N         57.0220 -150.3900   19.2600 N.am   23  GLY23      -0.1955
     37  CA        56.5900 -149.0110   19.4640 C.3    23  GLY23       0.1869
     38  C         57.3800 -148.1060   18.5360 C.2    23  GLY23       0.2309
     39  O         57.4420 -148.3560   17.3320 O.2    23  GLY23      -0.2863
     40  N         64.0450 -151.8210   16.7950 N.3    27  ALA27      -0.1245
     41  CA        64.6580 -153.0090   17.3840 C.3    27  ALA27       0.1562
     42  C         65.7510 -153.5890   16.4950 C.2    27  ALA27       0.2260
     43  O         66.8120 -153.9730   16.9870 O.2    27  ALA27      -0.2867
     44  CB        63.5990 -154.0630   17.6710 C.3    27  ALA27       0.0290
     45  N         66.4260 -157.7010    9.5490 N.3    31  VAL31      -0.1231
     46  CA        65.5030 -158.8240    9.6950 C.3    31  VAL31       0.1692
     47  C         65.1610 -159.4360    8.3370 C.2    31  VAL31       0.2592
     48  O         64.9330 -158.7130    7.3660 O.2    31  VAL31      -0.2718
     49  CB        64.2080 -158.3720   10.4070 C.3    31  VAL31       0.0266
     50  CG1       63.0900 -159.3830   10.2230 C.3    31  VAL31       0.0020
     51  CG2       64.4730 -158.1440   11.8870 C.3    31  VAL31       0.0020
     52  N         65.1200 -160.7670    8.2820 N.am   32  LYS32      -0.1966
     53  CA        64.7110 -161.4860    7.0740 C.3    32  LYS32       0.1728
     54  C         63.1950 -161.6650    7.0620 C.2    32  LYS32       0.2616
     55  O         62.6500 -162.4410    7.8510 O.2    32  LYS32      -0.2715
     56  CB        65.3960 -162.8560    6.9820 C.3    32  LYS32       0.0311
     57  CG        66.7820 -162.8260    6.3520 C.3    32  LYS32       0.0038
     58  CD        67.2210 -164.2080    5.8780 C.3    32  LYS32       0.0206
     59  CE        66.6060 -164.5710    4.5330 C.3    32  LYS32       0.1093
     60  NZ        67.0410 -165.9120    4.0500 N.3    32  LYS32      -0.1314
     61  N         62.5250 -160.9470    6.1610 N.am   33  LYS33      -0.1977
     62  CA        61.0660 -160.9810    6.0540 C.3    33  LYS33       0.1596
     63  C         60.5670 -161.8480    4.9010 C.2    33  LYS33       0.2287
     64  O         59.3600 -161.9560    4.6840 O.2    33  LYS33      -0.2864
     65  CB        60.5200 -159.5610    5.9180 C.3    33  LYS33       0.0298
     66  CG        60.8420 -158.6970    7.1220 C.3    33  LYS33       0.0038
     67  CD        60.0870 -157.3840    7.0990 C.3    33  LYS33       0.0206
     68  CE        60.5970 -156.4640    8.1910 C.3    33  LYS33       0.1093
     69  NZ        59.7520 -155.2500    8.3290 N.3    33  LYS33      -0.1314
     70  N         56.5080 -161.7510    5.1420 N.3    45  MET45      -0.1230
     71  CA        56.1210 -161.6070    6.5400 C.3    45  MET45       0.1702
     72  C         55.8320 -160.1580    6.9220 C.2    45  MET45       0.2592
     73  O         56.6750 -159.2760    6.7580 O.2    45  MET45      -0.2718
     74  CB        57.2240 -162.1530    7.4360 C.3    45  MET45       0.0401
     75  CG        57.5990 -163.6010    7.1650 C.3    45  MET45       0.0596
     76  SD        58.7240 -164.2200    8.4260 S.3    45  MET45      -0.1393
     77  CE        59.4520 -165.6260    7.6000 C.3    45  MET45       0.0692
     78  N         54.6260 -159.9270    7.4310 N.am   46  ALA46      -0.1966
     79  CA        54.2390 -158.6320    7.9800 C.3    46  ALA46       0.1728
     80  C         53.2770 -158.8640    9.1320 C.2    46  ALA46       0.2617
     81  O         52.5170 -159.8300    9.1300 O.2    46  ALA46      -0.2715
     82  CB        53.5950 -157.7590    6.9160 C.3    46  ALA46       0.0334
     83  N         53.3150 -157.9690   10.1120 N.am   47  GLY47      -0.1940
     84  CA        52.5650 -158.1480   11.3460 C.3    47  GLY47       0.2014
     85  C         53.5210 -158.6250   12.4170 C.2    47  GLY47       0.2639
     86  O         54.6370 -158.1230   12.5150 O.2    47  GLY47      -0.2714
     87  N         53.1080 -159.6270   13.1850 N.am   48  CYS48      -0.1953
     88  CA        53.8710 -160.0710   14.3440 C.3    48  CYS48       0.1843
     89  C         55.0210 -160.9580   13.8700 C.2    48  CYS48       0.2625
     90  O         54.7970 -161.9450   13.1660 O.2    48  CYS48      -0.2714
     91  CB        52.9940 -160.8540   15.2840 C.3    48  CYS48       0.0997
     92  SG        54.0480 -161.3730   16.6910 S.3    48  CYS48      -0.0797
     93  N         56.2400 -160.5960   14.2670 N.am   49  ALA49      -0.1963
     94  CA        57.4510 -161.3200   13.8740 C.3    49  ALA49       0.1728
     95  C         57.3420 -162.8110   14.1690 C.2    49  ALA49       0.2616
     96  O         57.5190 -163.6410   13.2760 O.2    49  ALA49      -0.2715
     97  CB        58.6620 -160.7400   14.5890 C.3    49  ALA49       0.0334
     98  N         57.0370 -163.1360   15.4230 N.am   50  ALA50      -0.1963
     99  CA        57.0000 -164.5250   15.8850 C.3    50  ALA50       0.1728
    100  C         55.9360 -165.3470   15.1670 C.2    50  ALA50       0.2616
    101  O         56.2020 -166.4680   14.7380 O.2    50  ALA50      -0.2715
    102  CB        56.7780 -164.5760   17.3880 C.3    50  ALA50       0.0334
    103  N         54.7360 -164.7860   15.0340 N.am   51  ASP51      -0.1957
    104  CA        53.6420 -165.4660   14.3400 C.3    51  ASP51       0.1840
    105  C         54.0260 -165.7960   12.9030 C.2    51  ASP51       0.2622
    106  O         53.8360 -166.9220   12.4490 O.2    51  ASP51      -0.2715
    107  CB        52.3760 -164.6060   14.3330 C.3    51  ASP51       0.1450
    108  CG        51.7620 -164.4410   15.7140 C.2    51  ASP51       0.3671
    109  OD1       52.1290 -165.1940   16.6460 O.co2  51  ASP51      -0.2456
    110  OD2       50.8920 -163.5570   15.8630 O.co2  51  ASP51      -0.2456
    111  N         54.5650 -164.8080   12.1940 N.am   52  CYS52      -0.1954
    112  CA        54.9800 -164.9980   10.8040 C.3    52  CYS52       0.1843
    113  C         56.1320 -165.9910   10.6900 C.2    52  CYS52       0.2625
    114  O         56.0750 -166.9200    9.8910 O.2    52  CYS52      -0.2714
    115  CB        55.3890 -163.6660   10.1730 C.3    52  CYS52       0.0997
    116  SG        54.0010 -162.5620    9.8370 S.3    52  CYS52      -0.0797
    117  N         57.1660 -165.7930   11.5030 N.am   53  GLN53      -0.1977
    118  CA        58.3650 -166.6270   11.4450 C.3    53  GLN53       0.1601
    119  C         58.0690 -168.0730   11.8420 C.2    53  GLN53       0.2287
    120  O         58.5000 -169.0070   11.1660 O.2    53  GLN53      -0.2864
    121  CB        59.4600 -166.0510   12.3460 C.3    53  GLN53       0.0394
    122  CG        60.8560 -166.5550   12.0280 C.3    53  GLN53       0.0908
    123  CD        61.9110 -165.9330   12.9230 C.2    53  GLN53       0.2608
    124  OE1       62.0610 -166.3220   14.0820 O.2    53  GLN53      -0.2717
    125  NE2       62.6470 -164.9610   12.3930 N.am   53  GLN53      -0.0878
    126  N         44.2600 -163.7970   18.6740 N.3    94  GLY94      -0.1225
    127  CA        45.1290 -162.6180   18.6230 C.3    94  GLY94       0.1811
    128  C         46.3580 -162.7210   17.7340 C.2    94  GLY94       0.2280
    129  O         47.2880 -161.9240   17.8760 O.2    94  GLY94      -0.2866
    130  N         48.5940 -162.0360   14.5690 N.3    96  SER96      -0.1217
    131  CA        48.7170 -160.8630   13.7130 C.3    96  SER96       0.1889
    132  C         49.6800 -161.1720   12.5740 C.2    96  SER96       0.2288
    133  O         50.8950 -161.1800   12.7640 O.2    96  SER96      -0.2866
    134  CB        49.2080 -159.6630   14.5240 C.3    96  SER96       0.2089
    135  OG        49.2100 -158.4880   13.7340 O.3    96  SER96      -0.2183
@<TRIPOS>BOND
     1    60    59    1
     2    59    58    1
     3    64    63    2
     4    63    62    1
     5    70    71    1
     6    58    57    1
     7    65    62    1
     8    65    66    1
     9    62    61    1
    10    61    54   am
    11     4     3    2
    12     3     2    1
    13    57    56    1
    14    71    72    1
    15    71    74    1
    16    73    72    2
    17     7     5    1
    18    82    79    1
    19    72    78   am
    20    56    53    1
    21    54    53    1
    22    54    55    2
    23    53    52    1
    24    67    66    1
    25    67    68    1
    26    75    74    1
    27    75    76    1
    28    48    47    2
    29    78    79    1
    30     2     5    1
    31     2     1    1
    32    77    76    1
    33     5     6    1
    34    79    80    1
    35    68    69    1
    36    52    47   am
    37    47    46    1
    38     8     9    1
    39    81    80    2
    40    80    83   am
    41    45    46    1
    42    12     9    1
    43    12    13    1
    44    18    16    1
    45    46    49    1
    46     9    10    1
    47   116   115    1
    48   114   113    2
    49    83    84    1
    50   115   112    1
    51    16    15    2
    52    16    17    1
    53    15    14    1
    54    50    49    1
    55    11    10    2
    56    49    51    1
    57   113   112    1
    58   113   117   am
    59    14    13    1
    60    10    19   am
    61   112   111    1
    62   120   119    2
    63    84    85    1
    64   118   117    1
    65   118   119    1
    66   118   121    1
    67   122   121    1
    68   122   123    1
    69    19    20    1
    70   111   105   am
    71   125   123   am
    72    85    86    2
    73    85    87   am
    74   106   105    2
    75   132   133    2
    76   132   131    1
    77   105   104    1
    78   123   124    2
    79    20    23    1
    80    20    21    1
    81    90    89    2
    82    87    88    1
    83    96    95    2
    84   131   134    1
    85   131   130    1
    86   135   134    1
    87    89    93   am
    88    89    88    1
    89    94    95    1
    90    94    93    1
    91    94    97    1
    92    30    28    1
    93    95    98   am
    94    21    22    2
    95    21    24   am
    96   107   104    1
    97   107   108    1
    98   104   103    1
    99    88    91    1
   100    29    28    1
   101    24    25    1
   102   101   100    2
   103    28    25    1
   104   103   100   am
   105   100    99    1
   106    91    92    1
   107    98    99    1
   108    25    26    1
   109   108   110   ar
   110   108   109   ar
   111    99   102    1
   112    42    43    2
   113    42    41    1
   114    27    26    2
   115    40    41    1
   116    26    31   am
   117    39    38    2
   118    41    44    1
   119   128   129    2
   120   128   127    1
   121    31    32    1
   122    38    37    1
   123   127   126    1
   124    32    33    1
   125    32    35    1
   126    36    37    1
   127    36    33   am
   128    33    34    2
