@<TRIPOS>MOLECULE
tmp/5cgjA00.pdb
 162 154 0 0 0
SMALL
GASTEIGER

@<TRIPOS>ATOM
      1  N         41.2700  -23.8450    3.4300 N.3    11  TYR11      -0.1241
      2  CA        41.2840  -25.0370    2.5830 C.3    11  TYR11       0.1605
      3  C         42.6870  -25.5600    2.2270 C.2    11  TYR11       0.2264
      4  O         43.5880  -24.7960    1.8900 O.2    11  TYR11      -0.2867
      5  CB        40.4790  -24.7720    1.3200 C.3    11  TYR11       0.0534
      6  CG        40.6900  -25.7900    0.2300 C.ar   11  TYR11      -0.0201
      7  CD1       39.9330  -26.9520    0.1810 C.ar   11  TYR11      -0.0009
      8  CD2       41.6170  -25.5740   -0.7800 C.ar   11  TYR11      -0.0009
      9  CE1       40.1250  -27.8950   -0.8220 C.ar   11  TYR11       0.0417
     10  CE2       41.8290  -26.5180   -1.7760 C.ar   11  TYR11       0.0417
     11  CZ        41.0720  -27.6700   -1.8000 C.ar   11  TYR11       0.1957
     12  OH        41.2690  -28.5790   -2.8000 O.3    11  TYR11      -0.2866
     13  N         35.2910  -22.6480    3.6970 N.3    40  SER40      -0.1202
     14  CA        36.3980  -22.0390    2.9530 C.3    40  SER40       0.2020
     15  C         35.9550  -20.9130    2.0310 C.2    40  SER40       0.2619
     16  O         34.9550  -21.0240    1.3060 O.2    40  SER40      -0.2717
     17  CB        37.2520  -23.0570    2.2000 C.3    40  SER40       0.2103
     18  OG        36.6140  -23.5810    1.0420 O.3    40  SER40      -0.2182
     19  N         36.7400  -19.8490    2.0460 N.am   41  GLY41      -0.1956
     20  CA        36.4400  -18.6710    1.2580 C.3    41  GLY41       0.1869
     21  C         35.3520  -17.9050    1.9640 C.2    41  GLY41       0.2309
     22  O         34.4810  -17.2950    1.3290 O.2    41  GLY41      -0.2863
     23  N         33.8510  -27.4830    0.9700 N.3    59  ASN59      -0.1240
     24  CA        34.3360  -28.3910   -0.0820 C.3    59  ASN59       0.1653
     25  C         34.8010  -29.6610    0.6270 C.2    59  ASN59       0.2266
     26  O         35.9400  -29.7240    1.0860 O.2    59  ASN59      -0.2867
     27  CB        35.4850  -27.7650   -0.9090 C.3    59  ASN59       0.1155
     28  CG        35.0610  -26.7030   -1.9000 C.2    59  ASN59       0.2627
     29  OD1       34.5130  -26.9790   -2.9720 O.2    59  ASN59      -0.2716
     30  ND2       35.3470  -25.4560   -1.5830 N.am   59  ASN59      -0.0877
     31  N         29.7180  -18.0070   -1.0400 N.3    91  ASN91      -0.1225
     32  CA        31.0550  -18.5890   -1.0290 C.3    91  ASN91       0.1785
     33  C         31.9600  -17.6080   -1.7680 C.2    91  ASN91       0.2597
     34  O         31.5410  -17.0300   -2.7830 O.2    91  ASN91      -0.2718
     35  CB        31.0260  -19.9480   -1.6860 C.3    91  ASN91       0.1169
     36  CG        32.3460  -20.4600   -2.1400 C.2    91  ASN91       0.2627
     37  OD1       33.2940  -20.6470   -1.3500 O.2    91  ASN91      -0.2716
     38  ND2       32.3970  -20.7490   -3.4290 N.am   91  ASN91      -0.0877
     39  N         33.1930  -17.3930   -1.2380 N.am   92  ARG92      -0.1966
     40  CA        34.1520  -16.3930   -1.7260 C.3    92  ARG92       0.1729
     41  C         33.5010  -15.0390   -1.4400 C.2    92  ARG92       0.2616
     42  O         33.3200  -14.2270   -2.3360 O.2    92  ARG92      -0.2715
     43  CB        34.4730  -16.5850   -3.2180 C.3    92  ARG92       0.0348
     44  CG        35.0520  -17.9370   -3.5480 C.3    92  ARG92       0.0492
     45  CD        34.5210  -18.3850   -4.8780 C.3    92  ARG92       0.2205
     46  NE        35.5880  -18.9040   -5.7250 N.pl3  92  ARG92      -0.0865
     47  CZ        35.3820  -19.5040   -6.8900 C.cat  92  ARG92       0.5346
     48  NH1       36.4090  -19.9580   -7.5990 N.pl3  92  ARG92       0.1354
     49  NH2       34.1450  -19.6610   -7.3560 N.pl3  92  ARG92       0.1354
     50  N         33.0500  -14.8700   -0.1940 N.am   93  ILE93      -0.1977
     51  CA        32.3440  -13.6950    0.3230 C.3    93  ILE93       0.1596
     52  C         33.3000  -12.4970    0.5660 C.2    93  ILE93       0.2287
     53  O         34.5340  -12.6120    0.4680 O.2    93  ILE93      -0.2864
     54  CB        31.5240  -14.0810    1.6130 C.3    93  ILE93       0.0276
     55  CG1       30.5350  -12.9710    2.0820 C.3    93  ILE93       0.0022
     56  CG2       32.4410  -14.5200    2.7480 C.3    93  ILE93       0.0022
     57  CD1       29.5310  -13.3600    3.2200 C.3    93  ILE93       0.0001
     58  N         32.4670  -12.1380   -7.0600 N.3   138  ILE138     -0.1231
     59  CA        32.9160  -13.1990   -6.1720 C.3   138  ILE138      0.1692
     60  C         34.4160  -13.0390   -5.9520 C.2   138  ILE138      0.2592
     61  O         35.0920  -12.3770   -6.7350 O.2   138  ILE138     -0.2718
     62  CB        32.5990  -14.5970   -6.7350 C.3   138  ILE138      0.0266
     63  CG1       33.5390  -14.9460   -7.8860 C.3   138  ILE138      0.0019
     64  CG2       31.1530  -14.6660   -7.1950 C.3   138  ILE138      0.0020
     65  CD1       33.1220  -16.1810   -8.6530 C.3   138  ILE138      0.0001
     66  N         34.9370  -13.6320   -4.8850 N.am  139  GLY139     -0.1957
     67  CA        36.3350  -13.4510   -4.5470 C.3   139  GLY139      0.1869
     68  C         36.6060  -11.9720   -4.3660 C.2   139  GLY139      0.2309
     69  O         37.7030  -11.4840   -4.6240 O.2   139  GLY139     -0.2863
     70  N         35.2910  -11.4710   -9.3930 N.3   155  PHE155     -0.1241
     71  CA        34.9700  -12.1260  -10.6660 C.3   155  PHE155      0.1605
     72  C         33.4520  -12.0760  -10.9060 C.2   155  PHE155      0.2264
     73  O         32.6720  -12.5730  -10.0830 O.2   155  PHE155     -0.2867
     74  CB        35.4960  -13.5600  -10.6650 C.3   155  PHE155      0.0534
     75  CG        35.1560  -14.3820  -11.8860 C.ar  155  PHE155     -0.0203
     76  CD1       35.8620  -14.2210  -13.0730 C.ar  155  PHE155     -0.0042
     77  CD2       34.1870  -15.3740  -11.8280 C.ar  155  PHE155     -0.0042
     78  CE1       35.5630  -14.9930  -14.1980 C.ar  155  PHE155     -0.0003
     79  CE2       33.9090  -16.1610  -12.9460 C.ar  155  PHE155     -0.0003
     80  CZ        34.5930  -15.9570  -14.1260 C.ar  155  PHE155     -0.0000
     81  N         37.2800  -11.4220  -14.8180 N.3   160  ARG160     -0.1245
     82  CA        37.9590  -11.1490  -13.5600 C.3   160  ARG160      0.1563
     83  C         37.9960   -9.6040  -13.5050 C.2   160  ARG160      0.2260
     84  O         38.1000   -8.9570  -14.5600 O.2   160  ARG160     -0.2867
     85  CB        39.3640  -11.7600  -13.5180 C.3   160  ARG160      0.0307
     86  CG        39.4180  -13.1840  -12.9650 C.3   160  ARG160      0.0489
     87  CD        39.3650  -14.2290  -14.0510 C.3   160  ARG160      0.2205
     88  NE        39.8220  -15.5410  -13.6010 N.pl3 160  ARG160     -0.0865
     89  CZ        40.2390  -16.4970  -14.4270 C.cat 160  ARG160      0.5346
     90  NH1       40.2680  -16.2870  -15.7380 N.pl3 160  ARG160      0.1354
     91  NH2       40.6360  -17.6680  -13.9490 N.pl3 160  ARG160      0.1354
     92  N         41.1970  -10.9320   -9.0640 N.3   185  SER185     -0.1202
     93  CA        40.1940  -11.8580   -8.5460 C.3   185  SER185      0.2020
     94  C         40.8890  -12.6150   -7.4340 C.2   185  SER185      0.2619
     95  O         41.9850  -13.1280   -7.6290 O.2   185  SER185     -0.2717
     96  CB        39.6970  -12.8180   -9.6250 C.3   185  SER185      0.2103
     97  OG        38.7200  -13.7250   -9.1380 O.3   185  SER185     -0.2182
     98  N         40.2740  -12.6330   -6.2690 N.am  186  GLY186     -0.1942
     99  CA        40.8430  -13.3030   -5.1110 C.3   186  GLY186      0.2014
    100  C         41.9560  -12.5120   -4.4650 C.2   186  GLY186      0.2638
    101  O         42.9420  -13.0880   -4.0010 O.2   186  GLY186     -0.2714
    102  N         41.7730  -11.1890   -4.4050 N.am  187  ALA187     -0.1977
    103  CA        42.6600  -10.2210   -3.7670 C.3   187  ALA187      0.1597
    104  C         42.6800  -10.3800   -2.2260 C.2   187  ALA187      0.2287
    105  O         42.0030  -11.2450   -1.6620 O.2   187  ALA187     -0.2864
    106  CB        42.1890   -8.8180   -4.1270 C.3   187  ALA187      0.0319
    107  N         44.4450  -12.8690   -8.5770 N.3   202  TYR202     -0.1241
    108  CA        44.6010  -13.6010   -9.8240 C.3   202  TYR202      0.1605
    109  C         44.0820  -12.7160  -10.9270 C.2   202  TYR202      0.2264
    110  O         42.9410  -12.2780  -10.8530 O.2   202  TYR202     -0.2867
    111  CB        43.8060  -14.9150   -9.7700 C.3   202  TYR202      0.0534
    112  CG        44.1370  -15.8400  -10.9190 C.ar  202  TYR202     -0.0201
    113  CD1       45.4040  -16.3960  -11.0470 C.ar  202  TYR202     -0.0009
    114  CD2       43.1920  -16.1410  -11.8950 C.ar  202  TYR202     -0.0009
    115  CE1       45.7290  -17.2140  -12.1270 C.ar  202  TYR202      0.0417
    116  CE2       43.4920  -17.0010  -12.9480 C.ar  202  TYR202      0.0417
    117  CZ        44.7780  -17.4930  -13.0910 C.ar  202  TYR202      0.1957
    118  OH        45.1230  -18.3160  -14.1360 O.3   202  TYR202     -0.2866
    119  N         46.8960  -15.6890   -4.2890 N.3   232  SER232     -0.1202
    120  CA        45.4700  -15.5250   -4.5890 C.3   232  SER232      0.2020
    121  C         44.8190  -16.2730   -3.4450 C.2   232  SER232      0.2618
    122  O         45.5030  -17.0880   -2.8210 O.2   232  SER232     -0.2717
    123  CB        45.0950  -16.1610   -5.9320 C.3   232  SER232      0.2103
    124  OG        45.4780  -17.5200   -6.0650 O.3   232  SER232     -0.2182
    125  N         43.5460  -16.0050   -3.1380 N.am  233  ALA233     -0.1979
    126  CA        42.8410  -16.6730   -2.0230 C.3   233  ALA233      0.1597
    127  C         43.6230  -16.6120   -0.6680 C.2   233  ALA233      0.2287
    128  O         43.8330  -17.6200    0.0230 O.2   233  ALA233     -0.2864
    129  CB        42.4870  -18.1180   -2.3940 C.3   233  ALA233      0.0319
    130  N         47.1790  -19.3130   -2.2290 N.3   249  TYR249     -0.1241
    131  CA        47.6890  -20.2170   -3.2430 C.3   249  TYR249      0.1605
    132  C         48.6350  -19.4670   -4.1300 C.2   249  TYR249      0.2264
    133  O         48.2830  -18.3720   -4.5670 O.2   249  TYR249     -0.2867
    134  CB        46.5380  -20.8530   -4.0570 C.3   249  TYR249      0.0534
    135  CG        47.0100  -21.8830   -5.0610 C.ar  249  TYR249     -0.0201
    136  CD1       47.6660  -23.0450   -4.6480 C.ar  249  TYR249     -0.0009
    137  CD2       46.8180  -21.6920   -6.4240 C.ar  249  TYR249     -0.0009
    138  CE1       48.1510  -23.9710   -5.5720 C.ar  249  TYR249      0.0417
    139  CE2       47.2520  -22.6360   -7.3560 C.ar  249  TYR249      0.0417
    140  CZ        47.9360  -23.7640   -6.9280 C.ar  249  TYR249      0.1957
    141  OH        48.4020  -24.6610   -7.8610 O.3   249  TYR249     -0.2866
    142  N         49.7270  -24.2930   -1.5120 N.3   254  PHE254     -0.1241
    143  CA        48.9010  -23.5970   -0.5180 C.3   254  PHE254      0.1605
    144  C         49.8730  -23.2300    0.6210 C.2   254  PHE254      0.2264
    145  O         50.2760  -24.0910    1.4090 O.2   254  PHE254     -0.2867
    146  CB        47.7640  -24.5170   -0.0180 C.3   254  PHE254      0.0534
    147  CG        46.8000  -24.9360   -1.1000 C.ar  254  PHE254     -0.0203
    148  CD1       47.0820  -26.0180   -1.9270 C.ar  254  PHE254     -0.0042
    149  CD2       45.6150  -24.2440   -1.3010 C.ar  254  PHE254     -0.0042
    150  CE1       46.2050  -26.3810   -2.9520 C.ar  254  PHE254     -0.0003
    151  CE2       44.7340  -24.6120   -2.3230 C.ar  254  PHE254     -0.0003
    152  CZ        45.0370  -25.6730   -3.1440 C.ar  254  PHE254     -0.0000
    153  N         44.5680  -22.0470    1.9820 N.3   279  SER279     -0.1202
    154  CA        44.0300  -20.8890    1.2510 C.3   279  SER279      0.2020
    155  C         42.5650  -20.6260    1.6140 C.2   279  SER279      0.2619
    156  O         41.9140  -21.4860    2.1960 O.2   279  SER279     -0.2717
    157  CB        44.1490  -21.0980   -0.2490 C.3   279  SER279      0.2103
    158  OG        43.1580  -22.0280   -0.6510 O.3   279  SER279     -0.2182
    159  N         42.0560  -19.4570    1.2450 N.am  280  GLY280     -0.1956
    160  CA        40.6810  -19.0760    1.5260 C.3   280  GLY280      0.1869
    161  C         40.3580  -18.9560    3.0060 C.2   280  GLY280      0.2309
    162  O         39.2450  -19.3100    3.4270 O.2   280  GLY280     -0.2863
@<TRIPOS>BOND
     1    90    89    1
     2    81    82    1
     3    84    83    2
     4    89    91    1
     5    89    88    2
     6    78    80   ar
     7    78    76   ar
     8   118   117    1
     9    80    79   ar
    10    87    88    1
    11    87    86    1
    12    82    85    1
    13    82    83    1
    14    85    86    1
    15   117   116   ar
    16   117   115   ar
    17    76    75   ar
    18   116   114   ar
    19    79    77   ar
    20   115   113   ar
    21   114   112   ar
    22    75    77   ar
    23    75    74    1
    24   113   112   ar
    25   109   110    2
    26   109   108    1
    27   112   111    1
    28    72    71    1
    29    72    73    2
    30    71    74    1
    31    71    70    1
    32   108   111    1
    33   108   107    1
    34    96    97    1
    35    96    93    1
    36    92    93    1
    37    65    63    1
    38    93    94    1
    39    63    62    1
    40   141   140    1
    41    95    94    2
    42    48    47    1
    43    94    98   am
    44    49    47    1
    45   139   140   ar
    46   139   137   ar
    47    64    62    1
    48    58    59    1
    49   140   138   ar
    50    47    46    2
    51    61    60    2
    52    62    59    1
    53   137   135   ar
    54    98    99    1
    55    59    60    1
    56   124   123    1
    57    60    66   am
    58   123   120    1
    59    46    45    1
    60   138   136   ar
    61    99   100    1
    62   135   136   ar
    63   135   134    1
    64    66    67    1
    65    45    44    1
    66    69    68    2
    67   120   119    1
    68   120   121    1
    69   133   132    2
    70    67    68    1
    71   100   102   am
    72   100   101    2
    73   102   103    1
    74   132   131    1
    75   106   103    1
    76   134   131    1
    77   103   104    1
    78    44    43    1
    79   121   125   am
    80   121   122    2
    81    38    36   am
    82   131   130    1
    83    43    40    1
    84   152   150   ar
    85   152   151   ar
    86   125   126    1
    87    29    28    2
    88   150   148   ar
    89    12    11    1
    90    34    33    2
    91   129   126    1
    92    42    41    2
    93   151   149   ar
    94   104   105    2
    95    36    35    1
    96    36    37    2
    97   126   127    1
    98   148   147   ar
    99    28    30   am
   100    28    27    1
   101    11    10   ar
   102    11     9   ar
   103    10     8   ar
   104    33    39   am
   105    33    32    1
   106    40    41    1
   107    40    39    1
   108    35    32    1
   109   142   143    1
   110    41    50   am
   111   149   147   ar
   112   147   146    1
   113    31    32    1
   114    27    24    1
   115     9     7   ar
   116     8     6   ar
   117   127   128    2
   118   158   157    1
   119   143   146    1
   120   143   144    1
   121   157   154    1
   122    50    51    1
   123    24    25    1
   124    24    23    1
   125     7     6   ar
   126     6     5    1
   127    51    52    1
   128    51    54    1
   129    53    52    2
   130   144   145    2
   131    25    26    2
   132    18    17    1
   133   159   160    1
   134   159   155   am
   135   154   155    1
   136   154   153    1
   137    20    21    1
   138    20    19    1
   139    16    15    2
   140     5     2    1
   141    22    21    2
   142   160   161    1
   143    54    55    1
   144    54    56    1
   145   155   156    2
   146     4     3    2
   147    15    19   am
   148    15    14    1
   149    55    57    1
   150    17    14    1
   151     3     2    1
   152     2     1    1
   153    14    13    1
   154   161   162    2
