@<TRIPOS>MOLECULE
tmp/5cgmA01.pdb
 108 108 0 0 0
SMALL
GASTEIGER

@<TRIPOS>ATOM
      1  N         91.4590   56.8100   65.9140 N.3   620  ARG620     -0.1245
      2  CA        91.9220   56.2570   67.1730 C.3   620  ARG620      0.1563
      3  C         92.3070   57.4360   68.0360 C.2   620  ARG620      0.2260
      4  O         92.7450   58.4560   67.5080 O.2   620  ARG620     -0.2867
      5  CB        93.0410   55.2180   67.0080 C.3   620  ARG620      0.0307
      6  CG        92.5040   53.8820   66.4840 C.3   620  ARG620      0.0489
      7  CD        93.3290   52.6790   66.9150 C.3   620  ARG620      0.2205
      8  NE        93.1760   52.3530   68.3380 N.pl3 620  ARG620     -0.0865
      9  CZ        92.2480   51.5390   68.8340 C.cat 620  ARG620      0.5346
     10  NH1       92.2000   51.2960   70.1350 N.pl3 620  ARG620      0.1354
     11  NH2       91.3570   50.9670   68.0320 N.pl3 620  ARG620      0.1354
     12  N         92.6480   56.2450   85.2170 N.3   630  GLU630     -0.1196
     13  CA        93.1500   55.4270   84.1050 C.3   630  GLU630      0.1783
     14  C         92.9320   56.0890   82.7480 C.2   630  GLU630      0.2306
     15  O         91.8850   56.7050   82.5270 O.2   630  GLU630     -0.2863
     16  CB        92.4480   54.0590   84.1010 C.2   630  GLU630      0.0071
     17  CG        92.7010   53.1830   85.3190 C.2   630  GLU630      0.0834
     18  CD        91.7280   52.0340   85.5210 C.2   630  GLU630      0.3877
     19  OE1       91.0260   51.6560   84.5550 O.co2 630  GLU630     -0.2406
     20  OE2       91.6750   51.5010   86.6520 O.co2 630  GLU630     -0.2406
     21  N         93.0770   55.2970   78.4100 N.3   632  TYR632     -0.1227
     22  CA        92.9540   54.2040   77.4360 C.3   632  TYR632      0.1736
     23  C         93.0170   54.7220   76.0000 C.2   632  TYR632      0.2595
     24  O         92.5520   55.8320   75.7120 O.2   632  TYR632     -0.2718
     25  CB        91.6120   53.4230   77.5760 C.3   632  TYR632      0.0548
     26  CG        90.9850   53.2820   78.9490 C.ar  632  TYR632     -0.0200
     27  CD1       91.6290   52.5780   79.9630 C.ar  632  TYR632     -0.0009
     28  CD2       89.6800   53.7080   79.1860 C.ar  632  TYR632     -0.0009
     29  CE1       91.0300   52.3910   81.2120 C.ar  632  TYR632      0.0417
     30  CE2       89.0760   53.5440   80.4340 C.ar  632  TYR632      0.0417
     31  CZ        89.7530   52.8790   81.4440 C.ar  632  TYR632      0.1957
     32  OH        89.1570   52.6930   82.6730 O.3   632  TYR632     -0.2866
     33  N         93.5140   53.8720   75.0770 N.am  633  GLN633     -0.1965
     34  CA        93.5270   54.1670   73.6520 C.3   633  GLN633      0.1733
     35  C         92.2660   53.5190   73.0950 C.2   633  GLN633      0.2616
     36  O         92.0620   52.3170   73.2690 O.2   633  GLN633     -0.2715
     37  CB        94.7840   53.6140   72.9680 C.3   633  GLN633      0.0408
     38  CG        94.8710   53.9770   71.5000 C.3   633  GLN633      0.0908
     39  CD        96.1280   53.4540   70.8350 C.2   633  GLN633      0.2608
     40  OE1       96.7710   52.5310   71.3360 O.2   633  GLN633     -0.2717
     41  NE2       96.4850   54.0430   69.7000 N.am  633  GLN633     -0.0878
     42  N         91.4010   54.3240   72.4760 N.am  634  TRP634     -0.1974
     43  CA        90.1280   53.8650   71.9380 C.3   634  TRP634      0.1640
     44  C         89.9730   54.0870   70.4280 C.2   634  TRP634      0.2290
     45  O         90.7240   54.8370   69.8250 O.2   634  TRP634     -0.2864
     46  CB        88.9770   54.5630   72.7070 C.3   634  TRP634      0.0576
     47  CG        88.5040   53.8380   73.9370 C.ar  634  TRP634      0.0006
     48  CD1       89.1330   52.8140   74.5910 C.ar  634  TRP634      0.0946
     49  CD2       87.2850   54.0830   74.6540 C.ar  634  TRP634      0.0152
     50  NE1       88.3730   52.3990   75.6600 N.ar  634  TRP634     -0.2442
     51  CE2       87.2430   53.1720   75.7340 C.ar  634  TRP634      0.0810
     52  CE3       86.2140   54.9810   74.4820 C.ar  634  TRP634      0.0012
     53  CZ2       86.1680   53.1210   76.6290 C.ar  634  TRP634      0.0191
     54  CZ3       85.1630   54.9470   75.3870 C.ar  634  TRP634      0.0001
     55  CH2       85.1410   54.0150   76.4350 C.ar  634  TRP634      0.0015
     56  N         85.1700   50.7050   68.1770 N.3   637  ALA637     -0.1231
     57  CA        84.6760   49.5380   68.9280 C.3   637  ALA637      0.1694
     58  C         85.6100   49.2780   70.0820 C.2   637  ALA637      0.2592
     59  O         86.8040   49.0290   69.8640 O.2   637  ALA637     -0.2718
     60  CB        84.5880   48.3140   68.0190 C.3   637  ALA637      0.0304
     61  N         85.0930   49.3980   71.3270 N.am  638  ASN638     -0.1960
     62  CA        85.9250   49.2880   72.5200 C.3   638  ASN638      0.1819
     63  C         85.4040   48.3270   73.5500 C.2   638  ASN638      0.2621
     64  O         84.2210   48.3740   73.8980 O.2   638  ASN638     -0.2715
     65  CB        86.1040   50.6670   73.1560 C.3   638  ASN638      0.1195
     66  CG        86.4430   51.7330   72.1520 C.2   638  ASN638      0.2630
     67  OD1       85.6310   52.5970   71.8150 O.2   638  ASN638     -0.2716
     68  ND2       87.5990   51.6030   71.5570 N.am  638  ASN638     -0.0877
     69  N         86.2990   47.5020   74.0940 N.am  639  TYR639     -0.1960
     70  CA        85.9240   46.5490   75.1370 C.3   639  TYR639      0.1771
     71  C         85.7890   47.2980   76.4770 C.2   639  TYR639      0.2619
     72  O         86.6880   48.0430   76.8460 O.2   639  TYR639     -0.2715
     73  CB        86.9520   45.4040   75.2340 C.3   639  TYR639      0.0574
     74  CG        86.7860   44.5430   76.4650 C.ar  639  TYR639     -0.0198
     75  CD1       85.8740   43.4930   76.4870 C.ar  639  TYR639     -0.0009
     76  CD2       87.5100   44.8020   77.6210 C.ar  639  TYR639     -0.0009
     77  CE1       85.7090   42.7050   77.6250 C.ar  639  TYR639      0.0417
     78  CE2       87.3320   44.0430   78.7720 C.ar  639  TYR639      0.0417
     79  CZ        86.4390   42.9870   78.7670 C.ar  639  TYR639      0.1957
     80  OH        86.2850   42.2490   79.9170 O.3   639  TYR639     -0.2866
     81  N         84.6800   47.0980   77.1940 N.am  640  VAL640     -0.1963
     82  CA        84.4650   47.7270   78.5140 C.3   640  VAL640      0.1727
     83  C         84.0320   46.6990   79.5410 C.2   640  VAL640      0.2616
     84  O         83.3260   45.7470   79.2090 O.2   640  VAL640     -0.2715
     85  CB        83.4980   48.9520   78.5070 C.3   640  VAL640      0.0290
     86  CG1       84.0250   50.0980   77.6430 C.3   640  VAL640      0.0023
     87  CG2       82.0760   48.5590   78.1050 C.3   640  VAL640      0.0023
     88  N         84.4370   46.9110   80.7870 N.am  641  ARG641     -0.1977
     89  CA        84.0900   46.0730   81.9240 C.3   641  ARG641      0.1597
     90  C         83.9080   46.9550   83.1490 C.2   641  ARG641      0.2287
     91  O         84.7850   47.7620   83.4590 O.2   641  ARG641     -0.2864
     92  CB        85.1790   45.0030   82.2060 C.3   641  ARG641      0.0334
     93  CG        84.7630   44.0100   83.2940 C.3   641  ARG641      0.0492
     94  CD        85.7460   42.8770   83.4960 C.3   641  ARG641      0.2205
     95  NE        85.3390   41.9880   84.5850 N.pl3 641  ARG641     -0.0865
     96  CZ        85.7050   42.1430   85.8550 C.cat 641  ARG641      0.5346
     97  NH1       86.4820   43.1610   86.2110 N.pl3 641  ARG641      0.1354
     98  NH2       85.3030   41.2820   86.7770 N.pl3 641  ARG641      0.1354
     99  N         82.4330   54.4880   84.3110 N.3   650  HIS650     -0.1241
    100  CA        83.5830   55.2030   83.7610 C.3   650  HIS650      0.1621
    101  C         82.9940   56.5520   83.3640 C.2   650  HIS650      0.2264
    102  O         81.9530   56.5830   82.7050 O.2   650  HIS650     -0.2867
    103  CB        84.1540   54.5540   82.4720 C.3   650  HIS650      0.0745
    104  CG        84.7250   53.1830   82.6400 C.ar  650  HIS650      0.0817
    105  ND1       84.6190   52.2420   81.6390 N.ar  650  HIS650     -0.2268
    106  CD2       85.4030   52.6420   83.6760 C.ar  650  HIS650      0.1154
    107  CE1       85.2090   51.1550   82.1030 C.ar  650  HIS650      0.1986
    108  NE2       85.6900   51.3450   83.3290 N.ar  650  HIS650     -0.2212
@<TRIPOS>BOND
     1     1     2    1
     2     6     7    1
     3     6     5    1
     4     7     8    1
     5     5     2    1
     6     2     3    1
     7     4     3    2
     8    60    57    1
     9    11     9    1
    10    56    57    1
    11     8     9    2
    12     9    10    1
    13    57    58    1
    14    41    39   am
    15    45    44    2
    16    59    58    2
    17    58    61   am
    18    44    43    1
    19    39    40    2
    20    39    38    1
    21    61    62    1
    22    38    37    1
    23    68    66   am
    24    67    66    2
    25    43    42    1
    26    43    46    1
    27    66    65    1
    28    42    35   am
    29    62    65    1
    30    62    63    1
    31    46    47    1
    32    37    34    1
    33    35    36    2
    34    35    34    1
    35    63    64    2
    36    63    69   am
    37    34    33    1
    38    47    48   ar
    39    47    49   ar
    40    69    70    1
    41    52    49   ar
    42    52    54   ar
    43    48    50   ar
    44    49    51   ar
    45    33    23   am
    46    70    73    1
    47    70    71    1
    48    73    74    1
    49    54    55   ar
    50    50    51   ar
    51    24    23    2
    52    51    53   ar
    53    23    22    1
    54    55    53   ar
    55    74    75   ar
    56    74    76   ar
    57    71    72    2
    58    71    81   am
    59    75    77   ar
    60    81    82    1
    61    22    25    1
    62    22    21    1
    63    25    26    1
    64    76    78   ar
    65    77    79   ar
    66    86    85    1
    67    87    85    1
    68    85    82    1
    69    82    83    1
    70    79    78   ar
    71    79    80    1
    72    26    28   ar
    73    26    27   ar
    74    28    30   ar
    75    84    83    2
    76    83    88   am
    77    27    29   ar
    78    30    31   ar
    79    88    89    1
    80    29    31   ar
    81    31    32    1
    82   105   107   ar
    83   105   104   ar
    84    89    92    1
    85    89    90    1
    86   107   108   ar
    87    92    93    1
    88   103   104    1
    89   103   100    1
    90    15    14    2
    91   104   106   ar
    92   102   101    2
    93    14    13    1
    94    90    91    2
    95    93    94    1
    96   108   106   ar
    97   101   100    1
    98    94    95    1
    99   100    99    1
   100    16    13    1
   101    16    17    2
   102    13    12    1
   103    19    18   ar
   104    95    96    2
   105    17    18    1
   106    18    20   ar
   107    96    97    1
   108    96    98    1
