@<TRIPOS>MOLECULE
tmp/5cgmA04.pdb
 114 110 0 0 0
SMALL
GASTEIGER

@<TRIPOS>ATOM
      1  N         66.3350   62.8360  120.1250 N.3   223  PRO223     -0.2102
      2  CA        66.6080   63.9570  119.1970 C.3   223  PRO223      0.1504
      3  C         66.2040   65.3180  119.7810 C.2   223  PRO223      0.2576
      4  O         65.1650   65.4420  120.4270 O.2   223  PRO223     -0.2718
      5  CB        65.7620   63.6070  117.9690 C.3   223  PRO223      0.0282
      6  CG        65.6620   62.1020  117.9970 C.3   223  PRO223      0.0208
      7  CD        65.5060   61.7920  119.4820 C.3   223  PRO223      0.0893
      8  N         67.0230   66.3370  119.5210 N.am  224  VAL224     -0.1966
      9  CA        66.7890   67.7000  119.9790 C.3   224  VAL224      0.1727
     10  C         66.3150   68.5400  118.7720 C.2   224  VAL224      0.2616
     11  O         66.9120   68.4390  117.7080 O.2   224  VAL224     -0.2715
     12  CB        68.0750   68.2310  120.6850 C.3   224  VAL224      0.0290
     13  CG1       68.0010   69.7260  120.9730 C.3   224  VAL224      0.0023
     14  CG2       68.3130   67.4620  121.9900 C.3   224  VAL224      0.0023
     15  N         65.2100   69.3000  118.9030 N.am  225  HIS225     -0.1973
     16  CA        64.7250   70.1230  117.7760 C.3   225  HIS225      0.1656
     17  C         65.8060   71.1360  117.3710 C.2   225  HIS225      0.2291
     18  O         66.2410   71.9400  118.1920 O.2   225  HIS225     -0.2864
     19  CB        63.4180   70.8470  118.1360 C.3   225  HIS225      0.0771
     20  CG        62.6400   71.3570  116.9430 C.ar  225  HIS225      0.0820
     21  ND1       63.1190   72.4010  116.1480 N.ar  225  HIS225     -0.2267
     22  CD2       61.4090   71.0120  116.5070 C.ar  225  HIS225      0.1154
     23  CE1       62.1720   72.6360  115.2550 C.ar  225  HIS225      0.1986
     24  NE2       61.1310   71.8220  115.4220 N.ar  225  HIS225     -0.2212
     25  N         53.9430   75.0740  112.5310 N.3   254  ILE254     -0.1245
     26  CA        53.2340   73.8630  112.1120 C.3   254  ILE254      0.1561
     27  C         51.9010   73.7520  112.8540 C.2   254  ILE254      0.2260
     28  O         51.8640   73.9470  114.0680 O.2   254  ILE254     -0.2867
     29  CB        54.1640   72.6190  112.3240 C.3   254  ILE254      0.0252
     30  CG1       55.4040   72.6980  111.3820 C.3   254  ILE254      0.0019
     31  CG2       53.4250   71.2840  112.1450 C.3   254  ILE254      0.0019
     32  CD1       56.4540   71.5500  111.5120 C.3   254  ILE254      0.0001
     33  N         48.6020   72.7410  114.8870 N.3   256  LYS256     -0.1245
     34  CA        48.3810   71.9970  116.1360 C.3   256  LYS256      0.1561
     35  C         47.1090   71.1460  116.0470 C.2   256  LYS256      0.2260
     36  O         46.9750   70.1550  116.7690 O.2   256  LYS256     -0.2867
     37  CB        48.3060   72.9680  117.3400 C.3   256  LYS256      0.0271
     38  CG        49.6100   73.7240  117.5850 C.3   256  LYS256      0.0035
     39  CD        49.4810   74.8360  118.6210 C.3   256  LYS256      0.0206
     40  CE        50.7760   75.6040  118.7430 C.3   256  LYS256      0.1093
     41  NZ        50.6260   76.8440  119.5550 N.3   256  LYS256     -0.1314
     42  N         47.2210   67.3500  113.7230 N.3   259  ARG259     -0.1245
     43  CA        48.6410   67.1420  113.4970 C.3   259  ARG259      0.1563
     44  C         48.9280   65.6600  113.2890 C.2   259  ARG259      0.2260
     45  O         48.3990   64.8270  114.0150 O.2   259  ARG259     -0.2867
     46  CB        49.4690   67.7070  114.6580 C.3   259  ARG259      0.0307
     47  CG        50.9690   67.4980  114.4510 C.3   259  ARG259      0.0489
     48  CD        51.8180   68.1250  115.5190 C.3   259  ARG259      0.2205
     49  NE        51.7990   69.5870  115.4400 N.pl3 259  ARG259     -0.0865
     50  CZ        52.6350   70.3700  116.1070 C.cat 259  ARG259      0.5346
     51  NH1       53.5410   69.8450  116.9240 N.pl3 259  ARG259      0.1354
     52  NH2       52.5660   71.6860  115.9740 N.pl3 259  ARG259      0.1354
     53  N         54.2730   65.8130  122.0380 N.3   271  GLY271     -0.1210
     54  CA        55.6960   65.8510  121.7170 C.3   271  GLY271      0.1956
     55  C         55.9710   65.5980  120.2370 C.2   271  GLY271      0.2612
     56  O         57.0930   65.8540  119.7800 O.2   271  GLY271     -0.2717
     57  N         54.9610   65.1070  119.4580 N.am  272  ASP272     -0.1959
     58  CA        55.1470   64.8790  118.0060 C.3   272  ASP272      0.1840
     59  C         55.2700   66.2220  117.2680 C.2   272  ASP272      0.2621
     60  O         54.5110   67.1490  117.5540 O.2   272  ASP272     -0.2715
     61  CB        54.0450   64.0120  117.3890 C.3   272  ASP272      0.1450
     62  CG        54.2840   62.5210  117.4900 C.2   272  ASP272      0.3671
     63  OD1       55.4690   62.1060  117.5710 O.co2 272  ASP272     -0.2456
     64  OD2       53.2950   61.7620  117.4470 O.co2 272  ASP272     -0.2456
     65  N         56.2470   66.3220  116.3330 N.am  273  VAL273     -0.1977
     66  CA        56.5590   67.5700  115.5980 C.3   273  VAL273      0.1596
     67  C         55.6280   67.9170  114.4400 C.2   273  VAL273      0.2287
     68  O         55.5260   69.0930  114.0580 O.2   273  VAL273     -0.2864
     69  CB        58.0670   67.6640  115.2140 C.3   273  VAL273      0.0276
     70  CG1       58.9380   67.7750  116.4690 C.3   273  VAL273      0.0022
     71  CG2       58.5040   66.4650  114.3570 C.3   273  VAL273      0.0022
     72  N         50.7410   80.8230  116.1550 N.3   283  GLU283     -0.1245
     73  CA        52.0610   81.4810  116.1740 C.3   283  GLU283      0.1567
     74  C         52.3860   82.2280  114.8560 C.2   283  GLU283      0.2260
     75  O         53.3280   83.0240  114.8160 O.2   283  GLU283     -0.2867
     76  CB        53.1840   80.4860  116.5230 C.3   283  GLU283      0.0388
     77  CG        52.9530   79.6950  117.8100 C.3   283  GLU283      0.1160
     78  CD        53.3990   78.2440  117.7770 C.2   283  GLU283      0.3649
     79  OE1       53.3660   77.6170  116.6900 O.co2 283  GLU283     -0.2457
     80  OE2       53.7670   77.7260  118.8560 O.co2 283  GLU283     -0.2457
     81  N         59.0090   79.0420  112.3110 N.3   290  HIS290     -0.1227
     82  CA        58.5940   78.1190  113.3700 C.3   290  HIS290      0.1737
     83  C         59.2670   78.5990  114.6770 C.2   290  HIS290      0.2438
     84  O         60.4700   78.8750  114.6530 O.2   290  HIS290     -0.2733
     85  CB        59.0240   76.6820  113.0240 C.3   290  HIS290      0.0758
     86  CG        58.4630   75.6220  113.9270 C.ar  290  HIS290      0.0818
     87  ND1       58.8830   75.4930  115.2360 N.ar  290  HIS290     -0.2268
     88  CD2       57.5820   74.6300  113.6490 C.ar  290  HIS290      0.1154
     89  CE1       58.2060   74.4680  115.7330 C.ar  290  HIS290      0.1986
     90  NE2       57.4160   73.9100  114.8050 N.ar  290  HIS290     -0.2212
     91  N         58.5210   78.7590  115.8090 N.am  291  PRO291     -0.2718
     92  CA        59.1640   79.2840  117.0470 C.3   291  PRO291      0.1535
     93  C         60.3130   78.4300  117.5720 C.2   291  PRO291      0.2598
     94  O         61.2520   78.9730  118.1530 O.2   291  PRO291     -0.2715
     95  CB        57.9950   79.4080  118.0470 C.3   291  PRO291      0.0310
     96  CG        56.9580   78.4540  117.5320 C.3   291  PRO291      0.0237
     97  CD        57.0820   78.4960  116.0180 C.3   291  PRO291      0.0939
     98  N         60.3140   77.1180  117.2730 N.am  292  GLN292     -0.1978
     99  CA        61.4420   76.2670  117.7040 C.3   292  GLN292      0.1601
    100  C         62.6900   76.4030  116.8390 C.2   292  GLN292      0.2287
    101  O         63.7700   76.0090  117.2640 O.2   292  GLN292     -0.2864
    102  CB        61.0240   74.8120  117.8910 C.3   292  GLN292      0.0394
    103  CG        60.1740   74.6270  119.1290 C.3   292  GLN292      0.0908
    104  CD        59.7880   73.1910  119.2630 C.2   292  GLN292      0.2608
    105  OE1       58.7300   72.7740  118.8000 O.2   292  GLN292     -0.2717
    106  NE2       60.6550   72.4030  119.8600 N.am  292  GLN292     -0.0878
    107  N         61.8340   63.9990  114.0510 N.3   528  LEU528     -0.1245
    108  CA        63.1930   64.5130  113.9790 C.3   528  LEU528      0.1561
    109  C         64.1410   63.3820  113.5700 C.2   528  LEU528      0.2260
    110  O         64.0930   62.2840  114.1400 O.2   528  LEU528     -0.2867
    111  CB        63.6400   65.0890  115.3340 C.3   528  LEU528      0.0270
    112  CG        62.8200   66.2500  115.9110 C.3   528  LEU528      0.0019
    113  CD1       63.3920   66.7050  117.2540 C.3   528  LEU528      0.0001
    114  CD2       62.8100   67.4260  114.9600 C.3   528  LEU528      0.0001
@<TRIPOS>BOND
     1    30    32    1
     2    30    29    1
     3    26    29    1
     4    26    25    1
     5    26    27    1
     6    31    29    1
     7    81    82    1
     8    27    28    2
     9    85    82    1
    10    85    86    1
    11    44    43    1
    12    44    45    2
    13    82    83    1
    14    43    42    1
    15    43    46    1
    16   109   108    1
    17   109   110    2
    18    88    86   ar
    19    88    90   ar
    20    86    87   ar
    21   108   107    1
    22   108   111    1
    23    68    67    2
    24    71    69    1
    25    67    66    1
    26    47    46    1
    27    47    48    1
    28    84    83    2
    29    83    91   am
    30    90    89   ar
    31    75    74    2
    32    74    73    1
    33    33    34    1
    34   114   112    1
    35    69    66    1
    36    69    70    1
    37    87    89   ar
    38    23    24   ar
    39    23    21   ar
    40   111   112    1
    41    24    22   ar
    42    49    48    1
    43    49    50    2
    44    66    65    1
    45    91    97    1
    46    91    92    1
    47   112   113    1
    48    52    50    1
    49    97    96    1
    50    35    34    1
    51    35    36    2
    52    50    51    1
    53    34    37    1
    54    21    20   ar
    55    72    73    1
    56    73    76    1
    57    65    59   am
    58    22    20   ar
    59    76    77    1
    60    79    78   ar
    61   100   101    2
    62   100    99    1
    63    20    19    1
    64    92    93    1
    65    92    95    1
    66    59    60    2
    67    59    58    1
    68    98    93   am
    69    98    99    1
    70    37    38    1
    71    17    16    1
    72    17    18    2
    73    61    62    1
    74    61    58    1
    75    64    62   ar
    76    62    63   ar
    77    96    95    1
    78    93    94    2
    79    38    39    1
    80    99   102    1
    81    11    10    2
    82    16    19    1
    83    16    15    1
    84    78    77    1
    85    78    80   ar
    86   102   103    1
    87     5     6    1
    88     5     2    1
    89     6     7    1
    90    58    57    1
    91    39    40    1
    92    40    41    1
    93    10    15   am
    94    10     9    1
    95   105   104    2
    96   103   104    1
    97     2     3    1
    98     2     1    1
    99   104   106   am
   100    57    55   am
   101     7     1    1
   102     8     3   am
   103     8     9    1
   104    56    55    2
   105     3     4    2
   106     9    12    1
   107    55    54    1
   108    12    13    1
   109    12    14    1
   110    54    53    1
