@<TRIPOS>MOLECULE
tmp/5cgmA02.pdb
 90 84 0 0 0
SMALL
GASTEIGER

@<TRIPOS>ATOM
      1  N         67.8520   85.2010  108.7880 N.3   300  ASP300     -0.1239
      2  CA        68.7580   86.0890  108.0290 C.3   300  ASP300      0.1674
      3  C         70.2270   85.6900  108.1930 C.2   300  ASP300      0.2266
      4  O         70.9940   85.7750  107.2320 O.2   300  ASP300     -0.2867
      5  CB        68.5870   87.5400  108.4740 C.3   300  ASP300      0.1410
      6  CG        67.2630   88.1380  108.0660 C.2   300  ASP300      0.3668
      7  OD1       66.6780   87.6660  107.0500 O.co2 300  ASP300     -0.2456
      8  OD2       66.8310   89.1120  108.7170 O.co2 300  ASP300     -0.2456
      9  N         70.7980   82.4910  106.1010 N.3   303  VAL303     -0.1245
     10  CA        71.0100   82.8440  104.6790 C.3   303  VAL303      0.1561
     11  C         72.4230   83.4440  104.4850 C.2   303  VAL303      0.2260
     12  O         73.0830   83.1440  103.4890 O.2   303  VAL303     -0.2867
     13  CB        69.9170   83.8430  104.2210 C.3   303  VAL303      0.0252
     14  CG1       70.1650   84.3290  102.7870 C.3   303  VAL303      0.0019
     15  CG2       68.5520   83.1920  104.3230 C.3   303  VAL303      0.0019
     16  N         75.3570   81.9490  102.0180 N.3   307  ARG307     -0.1245
     17  CA        76.0320   82.7730  100.9960 C.3   307  ARG307      0.1563
     18  C         77.5410   82.7390  101.1430 C.2   307  ARG307      0.2260
     19  O         78.2400   82.5770  100.1480 O.2   307  ARG307     -0.2867
     20  CB        75.5700   84.2380  101.0300 C.3   307  ARG307      0.0307
     21  CG        74.0710   84.5210  100.7460 C.3   307  ARG307      0.0489
     22  CD        73.3740   83.6020   99.7380 C.3   307  ARG307      0.2205
     23  NE        73.4420   84.1100   98.3650 N.pl3 307  ARG307     -0.0865
     24  CZ        72.5650   84.9530   97.8290 C.cat 307  ARG307      0.5346
     25  NH1       72.7150   85.3670   96.5790 N.pl3 307  ARG307      0.1354
     26  NH2       71.5400   85.4040   98.5450 N.pl3 307  ARG307      0.1354
     27  N         57.2860   87.9470   98.0120 N.3   373  ARG373     -0.1245
     28  CA        58.1240   89.1580   98.0990 C.3   373  ARG373      0.1563
     29  C         58.7720   89.2600   99.4780 C.2   373  ARG373      0.2260
     30  O         59.9310   89.6710   99.5930 O.2   373  ARG373     -0.2867
     31  CB        57.2910   90.4170   97.8280 C.3   373  ARG373      0.0307
     32  CG        56.9410   90.6330   96.3660 C.3   373  ARG373      0.0489
     33  CD        55.8380   91.6660   96.2750 C.3   373  ARG373      0.2205
     34  NE        55.7770   92.3000   94.9590 N.pl3 373  ARG373     -0.0865
     35  CZ        54.9180   93.2560   94.6230 C.cat 373  ARG373      0.5346
     36  NH1       54.0240   93.6950   95.5020 N.pl3 373  ARG373      0.1354
     37  NH2       54.9430   93.7790   93.4070 N.pl3 373  ARG373      0.1354
     38  N         61.8020   86.9140   99.3730 N.3   376  ILE376     -0.1231
     39  CA        62.8340   87.5030   98.4910 C.3   376  ILE376      0.1692
     40  C         63.5750   88.6480   99.2700 C.2   376  ILE376      0.2593
     41  O         64.8120   88.7360   99.2160 O.2   376  ILE376     -0.2718
     42  CB        62.2250   88.0040   97.1520 C.3   376  ILE376      0.0266
     43  CG1       61.6740   86.8030   96.3110 C.3   376  ILE376      0.0019
     44  CG2       63.2480   88.8560   96.3190 C.3   376  ILE376      0.0020
     45  CD1       60.6230   87.2280   95.3370 C.3   376  ILE376      0.0001
     46  N         62.8200   89.4850  100.0140 N.am  377  SER377     -0.1938
     47  CA        63.4130   90.5740  100.8370 C.3   377  SER377      0.2055
     48  C         64.3500   90.0120  101.9240 C.2   377  SER377      0.2643
     49  O         65.2650   90.7150  102.3590 O.2   377  SER377     -0.2714
     50  CB        62.3380   91.5040  101.4180 C.3   377  SER377      0.2130
     51  OG        61.7800   90.9680  102.6060 O.3   377  SER377     -0.2179
     52  N         64.1750   88.7140  102.2950 N.am  378  HIS378     -0.1959
     53  CA        65.0640   88.0070  103.2290 C.3   378  HIS378      0.1787
     54  C         66.1600   87.1550  102.5570 C.2   378  HIS378      0.2620
     55  O         66.6990   86.2660  103.1980 O.2   378  HIS378     -0.2715
     56  CB        64.2840   87.2080  104.2970 C.3   378  HIS378      0.0785
     57  CG        63.6630   88.1130  105.3130 C.ar  378  HIS378      0.0821
     58  ND1       62.3960   88.6380  105.1270 N.ar  378  HIS378     -0.2267
     59  CD2       64.2050   88.6650  106.4150 C.ar  378  HIS378      0.1154
     60  CE1       62.1950   89.4550  106.1500 C.ar  378  HIS378      0.1986
     61  NE2       63.2520   89.4960  106.9520 N.ar  378  HIS378     -0.2212
     62  N         66.4490   87.4180  101.2830 N.am  379  GLY379     -0.1954
     63  CA        67.5460   86.7860  100.5520 C.3   379  GLY379      0.1869
     64  C         67.2660   85.4550   99.8910 C.2   379  GLY379      0.2309
     65  O         68.2050   84.7530   99.5100 O.2   379  GLY379     -0.2863
     66  N         66.2020   83.5010   96.6810 N.3   381  ASN381     -0.1240
     67  CA        66.0050   83.7320   95.2630 C.3   381  ASN381      0.1653
     68  C         65.5630   82.5040   94.5090 C.2   381  ASN381      0.2266
     69  O         65.6000   82.5150   93.2740 O.2   381  ASN381     -0.2867
     70  CB        67.2320   84.3900   94.5970 C.3   381  ASN381      0.1155
     71  CG        67.5800   85.7390   95.1560 C.2   381  ASN381      0.2627
     72  OD1       68.7000   85.9780   95.6190 O.2   381  ASN381     -0.2716
     73  ND2       66.6200   86.6290   95.1700 N.am  381  ASN381     -0.0877
     74  N         60.1700   92.3090   88.7560 N.3   406  GLU406     -0.1231
     75  CA        60.7910   93.0890   89.8280 C.3   406  GLU406      0.1699
     76  C         62.1280   92.4750   90.1900 C.2   406  GLU406      0.2592
     77  O         63.0560   93.1960   90.5390 O.2   406  GLU406     -0.2718
     78  CB        59.8670   93.0630   91.0600 C.3   406  GLU406      0.0402
     79  CG        60.3670   93.8240   92.2790 C.3   406  GLU406      0.1161
     80  CD        59.4880   93.7050   93.5150 C.2   406  GLU406      0.3649
     81  OE1       58.6660   92.7600   93.5890 O.co2 406  GLU406     -0.2457
     82  OE2       59.6310   94.5610   94.4170 O.co2 406  GLU406     -0.2457
     83  N         62.2090   91.1310   90.1760 N.am  407  ASN407     -0.1974
     84  CA        63.4120   90.4270   90.5950 C.3   407  ASN407      0.1688
     85  C         63.6820   89.3270   89.5690 C.2   407  ASN407      0.2292
     86  O         63.3080   88.1860   89.8120 O.2   407  ASN407     -0.2864
     87  CB        63.2120   89.8430   91.9930 C.3   407  ASN407      0.1181
     88  CG        62.5640   90.7640   92.9990 C.2   407  ASN407      0.2629
     89  OD1       63.2350   91.5580   93.6450 O.2   407  ASN407     -0.2716
     90  ND2       61.2470   90.6570   93.1690 N.am  407  ASN407     -0.0877
@<TRIPOS>BOND
     1    74    75    1
     2    85    86    2
     3    85    84    1
     4    75    76    1
     5    75    78    1
     6    83    76   am
     7    83    84    1
     8    76    77    2
     9    84    87    1
    10    78    79    1
    11    87    88    1
    12    79    80    1
    13    88    90   am
    14    88    89    2
    15    69    68    2
    16    37    35    1
    17    80    81   ar
    18    80    82   ar
    19    68    67    1
    20    70    71    1
    21    70    67    1
    22    35    34    2
    23    35    36    1
    24    34    33    1
    25    71    73   am
    26    71    72    2
    27    67    66    1
    28    45    43    1
    29    33    32    1
    30    43    42    1
    31    44    42    1
    32    32    31    1
    33    25    24    1
    34    42    39    1
    35    31    28    1
    36    24    23    2
    37    24    26    1
    38    27    28    1
    39    28    29    1
    40    23    22    1
    41    39    40    1
    42    39    38    1
    43    41    40    2
    44    40    46   am
    45    29    30    2
    46    65    64    2
    47    22    21    1
    48    64    63    1
    49    46    47    1
    50    19    18    2
    51    63    62    1
    52    21    20    1
    53    47    50    1
    54    47    48    1
    55    17    20    1
    56    17    18    1
    57    17    16    1
    58    62    54   am
    59    50    51    1
    60    48    52   am
    61    48    49    2
    62    52    53    1
    63    54    55    2
    64    54    53    1
    65    14    13    1
    66    53    56    1
    67    12    11    2
    68    13    15    1
    69    13    10    1
    70    56    57    1
    71    11    10    1
    72    10     9    1
    73    58    57   ar
    74    58    60   ar
    75    57    59   ar
    76    60    61   ar
    77    59    61   ar
    78     7     6   ar
    79     4     3    2
    80     2     3    1
    81     2     5    1
    82     2     1    1
    83     6     5    1
    84     6     8   ar
