@<TRIPOS>MOLECULE
tmp/5cgqB01.pdb
 121 114 0 0 0
SMALL
GASTEIGER

@<TRIPOS>ATOM
      1  N          7.1270   -7.8240   27.0110 N.3    86  LYS86      -0.1245
      2  CA         8.5230   -7.5520   27.3280 C.3    86  LYS86       0.1561
      3  C          8.9910   -8.2660   28.5940 C.2    86  LYS86       0.2260
      4  O         10.1710   -8.5940   28.7270 O.2    86  LYS86      -0.2867
      5  CB         8.7510   -6.0690   27.4660 C.3    86  LYS86       0.0271
      6  CG         8.5410   -5.3040   26.1520 C.3    86  LYS86       0.0035
      7  CD         8.8710   -3.8380   26.4040 C.3    86  LYS86       0.0206
      8  CE         9.1730   -3.0200   25.1470 C.3    86  LYS86       0.1093
      9  NZ         7.9950   -2.5830   24.3260 N.3    86  LYS86      -0.1314
     10  N         17.9960    0.5680   27.7370 N.3   108  GLU108     -0.1231
     11  CA        17.4680    1.7410   27.0240 C.3   108  GLU108      0.1699
     12  C         15.9510    1.6470   26.9960 C.2   108  GLU108      0.2593
     13  O         15.3890    0.5520   27.0580 O.2   108  GLU108     -0.2718
     14  CB        17.9930    1.7600   25.5750 C.3   108  GLU108      0.0402
     15  CG        17.2430    0.8580   24.5690 C.3   108  GLU108      0.1161
     16  CD        17.3970   -0.6410   24.8120 C.2   108  GLU108      0.3649
     17  OE1       18.3600   -1.0740   25.4710 O.co2 108  GLU108     -0.2457
     18  OE2       16.5510   -1.4020   24.2900 O.co2 108  GLU108     -0.2457
     19  N         15.2630    2.7780   26.8490 N.am  109  THR109     -0.1939
     20  CA        13.8130    2.7130   26.6470 C.3   109  THR109      0.2028
     21  C         13.3660    3.9710   25.9110 C.2   109  THR109      0.2643
     22  O         13.9990    5.0260   26.0340 O.2   109  THR109     -0.2714
     23  CB        13.0930    2.5360   28.0130 C.3   109  THR109      0.1808
     24  OG1       11.7450    2.0880   27.8260 O.3   109  THR109     -0.2208
     25  CG2       13.0940    3.8010   28.8500 C.3   109  THR109      0.0379
     26  N         12.2900    3.8530   25.1330 N.am  110  GLY110     -0.1939
     27  CA        11.7090    4.9730   24.3750 C.3   110  GLY110      0.2014
     28  C         10.3070    5.2120   24.8990 C.2   110  GLY110      0.2638
     29  O         10.0310    6.2320   25.5440 O.2   110  GLY110     -0.2714
     30  N          9.4190    4.2570   24.6240 N.am  111  ALA111     -0.1977
     31  CA         8.0600    4.2840   25.1670 C.3   111  ALA111      0.1597
     32  C          8.0480    4.1730   26.6990 C.2   111  ALA111      0.2287
     33  O          7.0980    4.6330   27.3500 O.2   111  ALA111     -0.2864
     34  CB         7.2530    3.1350   24.5920 C.3   111  ALA111      0.0319
     35  N          8.1440    1.1670   28.3230 N.3   113  GLN113     -0.1231
     36  CA         7.7130   -0.1700   28.7160 C.3   113  GLN113      0.1698
     37  C          8.9000   -1.0770   29.0180 C.2   113  GLN113      0.2592
     38  O          8.8960   -1.7980   30.0040 O.2   113  GLN113     -0.2718
     39  CB         6.8180   -0.8260   27.6680 C.3   113  GLN113      0.0381
     40  CG         6.2240   -2.1700   28.1000 C.3   113  GLN113      0.0905
     41  CD         5.2950   -2.1110   29.3080 C.2   113  GLN113      0.2608
     42  OE1        5.1570   -3.0950   30.0450 O.2   113  GLN113     -0.2717
     43  NE2        4.6410   -0.9860   29.5050 N.am  113  GLN113     -0.0878
     44  N          9.9200   -1.0470   28.1640 N.am  114  HIS114     -0.1976
     45  CA        11.0900   -1.8410   28.4570 C.3   114  HIS114      0.1656
     46  C         11.7920   -1.3520   29.7250 C.2   114  HIS114      0.2291
     47  O         12.3010   -2.1640   30.5010 O.2   114  HIS114     -0.2864
     48  CB        12.0730   -1.8600   27.2930 C.3   114  HIS114      0.0771
     49  CG        13.2530   -2.7210   27.5810 C.ar  114  HIS114      0.0820
     50  ND1       13.1350   -4.0690   27.8400 N.ar  114  HIS114     -0.2267
     51  CD2       14.5640   -2.4120   27.7010 C.ar  114  HIS114      0.1154
     52  CE1       14.3390   -4.5550   28.1130 C.ar  114  HIS114      0.1986
     53  NE2       15.2230   -3.5730   28.0300 N.ar  114  HIS114     -0.2212
     54  N         14.8690    7.6260   21.2850 N.3   165  LEU165     -0.1245
     55  CA        15.2680    6.2310   21.4950 C.3   165  LEU165      0.1561
     56  C         16.6490    5.8670   20.9290 C.2   165  LEU165      0.2260
     57  O         17.4620    5.2670   21.6310 O.2   165  LEU165     -0.2867
     58  CB        14.1930    5.2730   20.9480 C.3   165  LEU165      0.0270
     59  CG        14.5040    3.7730   21.0390 C.3   165  LEU165      0.0019
     60  CD1       14.8100    3.3440   22.4700 C.3   165  LEU165      0.0001
     61  CD2       13.3180    3.0020   20.4600 C.3   165  LEU165      0.0001
     62  N         19.7900    4.2970   23.0160 N.3   169  CYS169     -0.1235
     63  CA        20.5430    3.1140   22.5930 C.3   169  CYS169      0.1677
     64  C         22.0350    3.3780   22.5690 C.2   169  CYS169      0.2270
     65  O         22.8380    2.6100   23.1160 O.2   169  CYS169     -0.2867
     66  CB        20.1100    2.6610   21.1950 C.3   169  CYS169      0.0956
     67  SG        18.4330    1.9910   21.0850 S.3   169  CYS169     -0.0801
     68  N         16.4190   -4.1320   24.8050 N.3   188  GLY188     -0.1210
     69  CA        14.9770   -4.2730   24.8790 C.3   188  GLY188      0.1956
     70  C         14.2310   -4.8700   23.7110 C.2   188  GLY188      0.2612
     71  O         13.0120   -4.9040   23.7530 O.2   188  GLY188     -0.2717
     72  N         14.9160   -5.3400   22.6740 N.am  189  THR189     -0.1952
     73  CA        14.2240   -5.9050   21.5290 C.3   189  THR189      0.1897
     74  C         15.1370   -6.8870   20.8040 C.2   189  THR189      0.2313
     75  O         16.2950   -7.0690   21.2150 O.2   189  THR189     -0.2863
     76  CB        13.7160   -4.8010   20.5960 C.3   189  THR189      0.1794
     77  OG1       12.8470   -5.3620   19.6180 O.3   189  THR189     -0.2208
     78  CG2       14.8450   -4.1160   19.8560 C.3   189  THR189      0.0378
     79  N         10.9860   -3.1440   17.2020 N.3   232  GLY232     -0.1225
     80  CA        12.2960   -3.7010   16.9630 C.3   232  GLY232      0.1811
     81  C         12.2330   -5.1600   16.5490 C.2   232  GLY232      0.2280
     82  O         13.1940   -5.6680   15.9650 O.2   232  GLY232     -0.2866
     83  N         23.6710    0.6270   15.5360 N.3   279  PHE279     -0.1241
     84  CA        23.2320   -0.1060   16.7400 C.3   279  PHE279      0.1605
     85  C         23.7630   -1.5360   16.7220 C.2   279  PHE279      0.2264
     86  O         23.1050   -2.4610   17.1940 O.2   279  PHE279     -0.2867
     87  CB        21.7020   -0.0490   16.9010 C.3   279  PHE279      0.0534
     88  CG        21.1750   -0.5030   18.2530 C.ar  279  PHE279     -0.0203
     89  CD1       21.8220   -0.1910   19.4530 C.ar  279  PHE279     -0.0042
     90  CD2       19.9920   -1.2290   18.3110 C.ar  279  PHE279     -0.0042
     91  CE1       21.2910   -0.6040   20.6800 C.ar  279  PHE279     -0.0003
     92  CE2       19.4570   -1.6350   19.5310 C.ar  279  PHE279     -0.0003
     93  CZ        20.1170   -1.3230   20.7150 C.ar  279  PHE279     -0.0000
     94  N          4.6320    4.9030   20.5010 N.3   301  ALA301     -0.1231
     95  CA         6.0460    5.0170   20.8540 C.3   301  ALA301      0.1694
     96  C          6.7820    3.6920   20.8130 C.2   301  ALA301      0.2592
     97  O          7.9680    3.6550   20.4980 O.2   301  ALA301     -0.2718
     98  CB         6.2200    5.7050   22.2040 C.3   301  ALA301      0.0304
     99  N          6.0810    2.6000   21.0970 N.am  302  GLY302     -0.1957
    100  CA         6.7490    1.3230   21.1020 C.3   302  GLY302      0.1869
    101  C          7.2000    0.8840   19.7210 C.2   302  GLY302      0.2309
    102  O          8.0660    0.0250   19.6320 O.2   302  GLY302     -0.2863
    103  N          8.2080    3.1080   17.2860 N.3   304  ASP304     -0.1225
    104  CA         8.8550    4.3060   16.7790 C.3   304  ASP304      0.1805
    105  C         10.3760    4.1890   16.9010 C.2   304  ASP304      0.2597
    106  O         10.9920    4.6540   17.8600 O.2   304  ASP304     -0.2718
    107  CB         8.3050    5.5520   17.4970 C.3   304  ASP304      0.1424
    108  CG         8.6670    6.8430   16.8160 C.2   304  ASP304      0.3668
    109  OD1        9.5200    6.8470   15.9230 O.co2 304  ASP304     -0.2456
    110  OD2        8.0760    7.8830   17.1810 O.co2 304  ASP304     -0.2456
    111  N         10.9750    3.5470   15.9120 N.am  305  PHE305     -0.1976
    112  CA        12.4140    3.3200   15.8470 C.3   305  PHE305      0.1639
    113  C         12.7400    3.1940   14.3680 C.2   305  PHE305      0.2290
    114  O         11.9700    2.5380   13.6020 O.2   305  PHE305     -0.2864
    115  CB        12.7540    2.0100   16.5830 C.3   305  PHE305      0.0560
    116  CG        14.2380    1.6740   16.6620 C.ar  305  PHE305     -0.0200
    117  CD1       15.1190    2.4650   17.3990 C.ar  305  PHE305     -0.0042
    118  CD2       14.7310    0.5380   16.0240 C.ar  305  PHE305     -0.0042
    119  CE1       16.4730    2.1300   17.4790 C.ar  305  PHE305     -0.0003
    120  CE2       16.0790    0.1960   16.1130 C.ar  305  PHE305     -0.0003
    121  CZ        16.9430    1.0080   16.8240 C.ar  305  PHE305     -0.0000
@<TRIPOS>BOND
     1   114   113    2
     2   113   112    1
     3    83    84    1
     4   112   111    1
     5   112   115    1
     6   111   105   am
     7   109   108   ar
     8    82    81    2
     9   118   120   ar
    10   118   116   ar
    11   120   121   ar
    12    81    80    1
    13   115   116    1
    14   116   117   ar
    15    85    84    1
    16    85    86    2
    17    84    87    1
    18   104   105    1
    19   104   103    1
    20   104   107    1
    21   108   110   ar
    22   108   107    1
    23   121   119   ar
    24    87    88    1
    25   105   106    2
    26    80    79    1
    27   117   119   ar
    28    88    90   ar
    29    88    89   ar
    30    90    92   ar
    31    89    91   ar
    32    92    93   ar
    33    77    76    1
    34   102   101    2
    35   101   100    1
    36    78    76    1
    37    61    59    1
    38    97    96    2
    39    94    95    1
    40    76    73    1
    41    91    93   ar
    42    74    75    2
    43    74    73    1
    44    96    95    1
    45    96    99   am
    46    95    98    1
    47    56    55    1
    48    56    57    2
    49    58    59    1
    50    58    55    1
    51    59    60    1
    52    67    66    1
    53    99   100    1
    54    66    63    1
    55    54    55    1
    56    73    72    1
    57    64    63    1
    58    64    65    2
    59    63    62    1
    60    72    70   am
    61    70    71    2
    62    70    69    1
    63    18    16   ar
    64     9     8    1
    65    27    28    1
    66    27    26    1
    67    15    16    1
    68    15    14    1
    69    34    31    1
    70    30    28   am
    71    30    31    1
    72    68    69    1
    73    16    17   ar
    74    28    29    2
    75    26    21   am
    76     8     7    1
    77    31    32    1
    78    14    11    1
    79    21    22    2
    80    21    20    1
    81     6     7    1
    82     6     5    1
    83    20    19    1
    84    20    23    1
    85    32    33    2
    86    19    12   am
    87    12    11    1
    88    12    13    2
    89     1     2    1
    90    11    10    1
    91    48    49    1
    92    48    45    1
    93     2     5    1
    94     2     3    1
    95    49    51   ar
    96    49    50   ar
    97    39    40    1
    98    39    36    1
    99    51    53   ar
   100    24    23    1
   101    50    52   ar
   102    23    25    1
   103    53    52   ar
   104    40    41    1
   105    44    45    1
   106    44    37   am
   107    35    36    1
   108    45    46    1
   109     3     4    2
   110    36    37    1
   111    37    38    2
   112    41    43   am
   113    41    42    2
   114    46    47    2
