@<TRIPOS>MOLECULE
tmp/5cgtA02.pdb
 91 87 0 0 0
SMALL
GASTEIGER

@<TRIPOS>ATOM
      1  N         51.9360   20.8610    5.3710 N.3   183  PHE183     -0.1241
      2  CA        53.1360   21.6900    5.4830 C.3   183  PHE183      0.1605
      3  C         53.1860   22.8550    4.5200 C.2   183  PHE183      0.2264
      4  O         54.2790   23.3300    4.2290 O.2   183  PHE183     -0.2867
      5  CB        54.4030   20.8460    5.2910 C.3   183  PHE183      0.0534
      6  CG        54.4760   19.6730    6.2010 C.ar  183  PHE183     -0.0203
      7  CD1       54.9880   19.8010    7.4840 C.ar  183  PHE183     -0.0042
      8  CD2       53.9600   18.4520    5.8070 C.ar  183  PHE183     -0.0042
      9  CE1       54.9760   18.7250    8.3670 C.ar  183  PHE183     -0.0003
     10  CE2       53.9410   17.3660    6.6810 C.ar  183  PHE183     -0.0003
     11  CZ        54.4490   17.5040    7.9650 C.ar  183  PHE183     -0.0000
     12  N         50.9280   16.3960   12.9660 N.3   194  LEU194     -0.1231
     13  CA        52.2210   16.1210   12.3680 C.3   194  LEU194      0.1693
     14  C         52.0850   14.6350   11.9820 C.2   194  LEU194      0.2592
     15  O         52.1990   13.7570   12.8450 O.2   194  LEU194     -0.2718
     16  CB        53.3140   16.2430   13.4230 C.3   194  LEU194      0.0284
     17  CG        54.7430   16.6160   13.0080 C.3   194  LEU194      0.0019
     18  CD1       55.6940   15.7060   13.7350 C.3   194  LEU194      0.0001
     19  CD2       54.9540   16.5260   11.5200 C.3   194  LEU194      0.0001
     20  N         51.8310   14.3470   10.7080 N.am  195  TYR195     -0.1976
     21  CA        51.6360   12.9700   10.2420 C.3   195  TYR195      0.1639
     22  C         50.3030   12.4440   10.8100 C.2   195  TYR195      0.2290
     23  O         49.2400   13.0330   10.5740 O.2   195  TYR195     -0.2864
     24  CB        52.8210   12.0910   10.6690 C.3   195  TYR195      0.0560
     25  CG        54.1420   12.6090   10.1450 C.ar  195  TYR195     -0.0198
     26  CD1       54.2430   13.0320    8.8240 C.ar  195  TYR195     -0.0009
     27  CD2       55.2790   12.6980   10.9620 C.ar  195  TYR195     -0.0009
     28  CE1       55.4230   13.5260    8.3090 C.ar  195  TYR195      0.0417
     29  CE2       56.4740   13.2000   10.4610 C.ar  195  TYR195      0.0417
     30  CZ        56.5340   13.6090    9.1200 C.ar  195  TYR195      0.1957
     31  OH        57.6890   14.0730    8.5340 O.3   195  TYR195     -0.2866
     32  N         59.9880   19.0700   17.6610 N.3   230  ALA230     -0.1245
     33  CA        59.0600   19.7180   16.7410 C.3   230  ALA230      0.1562
     34  C         58.5300   21.0850   17.1510 C.2   230  ALA230      0.2260
     35  O         57.3320   21.3500   17.0440 O.2   230  ALA230     -0.2867
     36  CB        57.9010   18.7650   16.4500 C.3   230  ALA230      0.0290
     37  N         58.5860   23.7600   15.6820 N.3   232  LYS232     -0.1231
     38  CA        57.9730   24.4080   14.5390 C.3   232  LYS232      0.1693
     39  C         56.4750   24.0840   14.4120 C.2   232  LYS232      0.2592
     40  O         55.7530   24.7120   13.6330 O.2   232  LYS232     -0.2718
     41  CB        58.7190   23.9350   13.2970 C.3   232  LYS232      0.0285
     42  CG        58.0760   24.2690   11.9910 C.3   232  LYS232      0.0035
     43  CD        59.1090   24.2020   10.8920 C.3   232  LYS232      0.0206
     44  CE        58.9280   23.0040   10.0170 C.3   232  LYS232      0.1093
     45  NZ        59.9750   23.0420    8.9540 N.3   232  LYS232     -0.1314
     46  N         56.0050   23.1390   15.2220 N.am  233  HIS233     -0.1976
     47  CA        54.6290   22.6850   15.1530 C.3   233  HIS233      0.1656
     48  C         53.7770   23.0090   16.3540 C.2   233  HIS233      0.2291
     49  O         52.6560   22.5460   16.4600 O.2   233  HIS233     -0.2864
     50  CB        54.5960   21.1860   14.8340 C.3   233  HIS233      0.0771
     51  CG        55.3160   20.8320   13.5690 C.ar  233  HIS233      0.0820
     52  ND1       54.7370   20.9380   12.3260 N.ar  233  HIS233     -0.2267
     53  CD2       56.5940   20.4320   13.3550 C.ar  233  HIS233      0.1154
     54  CE1       55.6210   20.6260   11.3940 C.ar  233  HIS233      0.1986
     55  NE2       56.7550   20.3170   11.9980 N.ar  233  HIS233     -0.2212
     56  N         63.7490   21.7270   18.1300 N.3   257  GLU257     -0.1245
     57  CA        63.8970   21.2510   16.7510 C.3   257  GLU257      0.1567
     58  C         63.0350   21.9320   15.7340 C.2   257  GLU257      0.2260
     59  O         61.8420   21.6320   15.6110 O.2   257  GLU257     -0.2867
     60  CB        63.6900   19.7480   16.6420 C.3   257  GLU257      0.0388
     61  CG        64.0220   19.2130   15.2620 C.3   257  GLU257      0.1160
     62  CD        62.9690   18.2580   14.7290 C.2   257  GLU257      0.3649
     63  OE1       62.0010   17.9790   15.4450 O.co2 257  GLU257     -0.2457
     64  OE2       63.0930   17.7950   13.5860 O.co2 257  GLU257     -0.2457
     65  N         63.2280   22.1870   12.0060 N.3   259  PHE259     -0.1241
     66  CA        63.8420   21.6630   10.7940 C.3   259  PHE259      0.1605
     67  C         63.9580   22.6320    9.6210 C.2   259  PHE259      0.2264
     68  O         62.9580   23.1980    9.1990 O.2   259  PHE259     -0.2867
     69  CB        63.0580   20.4230   10.3500 C.3   259  PHE259      0.0534
     70  CG        63.8250   19.5140    9.4140 C.ar  259  PHE259     -0.0203
     71  CD1       64.0590   19.8910    8.0810 C.ar  259  PHE259     -0.0042
     72  CD2       64.3290   18.2870    9.8720 C.ar  259  PHE259     -0.0042
     73  CE1       64.7900   19.0720    7.2140 C.ar  259  PHE259     -0.0003
     74  CE2       65.0610   17.4520    9.0180 C.ar  259  PHE259     -0.0003
     75  CZ        65.2950   17.8510    7.6780 C.ar  259  PHE259     -0.0000
     76  N         67.2580   11.7800   11.8310 N.3   328  ASP328     -0.1239
     77  CA        66.2520   12.1290   10.8330 C.3   328  ASP328      0.1674
     78  C         66.8690   12.3960    9.4600 C.2   328  ASP328      0.2266
     79  O         66.2410   13.0330    8.6060 O.2   328  ASP328     -0.2867
     80  CB        65.4320   13.3460   11.2970 C.3   328  ASP328      0.1410
     81  CG        64.4910   13.0290   12.4650 C.2   328  ASP328      0.3668
     82  OD1       63.9510   11.9080   12.5330 O.co2 328  ASP328     -0.2456
     83  OD2       64.2820   13.9150   13.3130 O.co2 328  ASP328     -0.2456
     84  N         65.5300    6.6080    7.6600 N.3   371  ASP371     -0.1239
     85  CA        64.8680    6.0470    8.8210 C.3   371  ASP371      0.1674
     86  C         64.4030    4.6350    8.4350 C.2   371  ASP371      0.2266
     87  O         63.6830    4.4800    7.4500 O.2   371  ASP371     -0.2867
     88  CB        63.6530    6.9230    9.0800 C.3   371  ASP371      0.1410
     89  CG        63.0010    6.6720   10.4040 C.2   371  ASP371      0.3668
     90  OD1       63.4020    5.7360   11.1410 O.co2 371  ASP371     -0.2456
     91  OD2       62.0680    7.4480   10.6980 O.co2 371  ASP371     -0.2456
@<TRIPOS>BOND
     1     4     3    2
     2     3     2    1
     3     5     2    1
     4     5     6    1
     5     1     2    1
     6     8     6   ar
     7     8    10   ar
     8     6     7   ar
     9    10    11   ar
    10    73    75   ar
    11    73    71   ar
    12    87    86    2
    13     7     9   ar
    14    84    85    1
    15    75    74   ar
    16    11     9   ar
    17    71    70   ar
    18    28    26   ar
    19    28    30   ar
    20    86    85    1
    21    31    30    1
    22    79    78    2
    23    85    88    1
    24    26    25   ar
    25    45    44    1
    26    74    72   ar
    27    88    89    1
    28    30    29   ar
    29    68    67    2
    30    70    72   ar
    31    70    69    1
    32    78    77    1
    33    67    66    1
    34    44    43    1
    35    25    24    1
    36    25    27   ar
    37    21    24    1
    38    21    20    1
    39    21    22    1
    40    69    66    1
    41    89    91   ar
    42    89    90   ar
    43    29    27   ar
    44    23    22    2
    45    20    14   am
    46    66    65    1
    47    77    80    1
    48    77    76    1
    49    43    42    1
    50    80    81    1
    51    54    55   ar
    52    54    52   ar
    53    19    17    1
    54    14    13    1
    55    14    15    2
    56    42    41    1
    57    55    53   ar
    58    52    51   ar
    59    13    12    1
    60    13    16    1
    61    81    82   ar
    62    81    83   ar
    63    17    16    1
    64    17    18    1
    65    41    38    1
    66    53    51   ar
    67    51    50    1
    68    64    62   ar
    69    40    39    2
    70    39    38    1
    71    39    46   am
    72    38    37    1
    73    62    61    1
    74    62    63   ar
    75    50    47    1
    76    47    46    1
    77    47    48    1
    78    61    60    1
    79    59    58    2
    80    58    57    1
    81    48    49    2
    82    36    33    1
    83    60    57    1
    84    33    34    1
    85    33    32    1
    86    57    56    1
    87    35    34    2
