@<TRIPOS>MOLECULE
tmp/5cgxA00.pdb
 108 102 0 0 0
SMALL
GASTEIGER

@<TRIPOS>ATOM
      1  N         55.3280    0.9080   65.8710 N.3    65  SER65      -0.1217
      2  CA        54.6560   -0.1290   66.6030 C.3    65  SER65       0.1889
      3  C         54.9190   -0.1030   68.1040 C.2    65  SER65       0.2288
      4  O         54.1810   -0.7350   68.8470 O.2    65  SER65      -0.2866
      5  CB        55.0740   -1.5150   66.1110 C.3    65  SER65       0.2089
      6  OG        54.4160   -1.8660   64.8730 O.3    65  SER65      -0.2183
      7  N         51.8460    0.6110   70.0990 N.3    68  LYS68      -0.1245
      8  CA        50.9510   -0.4630   70.4360 C.3    68  LYS68       0.1561
      9  C         51.0930   -0.8480   71.8980 C.2    68  LYS68       0.2260
     10  O         50.1000   -1.3440   72.4810 O.2    68  LYS68      -0.2867
     11  CB        51.2300   -1.6940   69.5810 C.3    68  LYS68       0.0271
     12  CG        50.8780   -1.5010   68.1690 C.3    68  LYS68       0.0035
     13  CD        51.4290   -2.6180   67.2150 C.3    68  LYS68       0.0206
     14  CE        50.9090   -2.5780   65.7620 C.3    68  LYS68       0.1093
     15  NZ        51.5130   -1.4780   64.9910 N.3    68  LYS68      -0.1314
     16  N         49.1230   -7.8350   58.2960 N.3   120  LEU120     -0.1231
     17  CA        49.9950   -6.8080   58.8210 C.3   120  LEU120      0.1693
     18  C         49.3600   -5.4130   58.7160 C.2   120  LEU120      0.2591
     19  O         49.3500   -4.6100   59.6680 O.2   120  LEU120     -0.2718
     20  CB        51.2850   -6.8640   57.9910 C.3   120  LEU120      0.0284
     21  CG        52.6500   -6.5990   58.6330 C.3   120  LEU120      0.0019
     22  CD1       52.7880   -7.0950   60.0700 C.3   120  LEU120      0.0001
     23  CD2       53.7480   -7.2490   57.7540 C.3   120  LEU120      0.0001
     24  N         48.8240   -5.1260   57.5290 N.am  121  GLN121     -0.1979
     25  CA        48.2150   -3.8310   57.2380 C.3   121  GLN121      0.1601
     26  C         46.8270   -4.0240   56.6250 C.2   121  GLN121      0.2287
     27  O         46.5190   -5.0640   56.0430 O.2   121  GLN121     -0.2864
     28  CB        49.0940   -2.9990   56.2590 C.3   121  GLN121      0.0394
     29  CG        50.3730   -2.4330   56.8960 C.3   121  GLN121      0.0908
     30  CD        51.2260   -1.6900   55.8710 C.2   121  GLN121      0.2608
     31  OE1       50.7090   -0.8830   55.0880 O.2   121  GLN121     -0.2717
     32  NE2       52.5320   -1.9790   55.8540 N.am  121  GLN121     -0.0878
     33  N         51.3980  -10.7490   63.3280 N.3   151  PHE151     -0.1241
     34  CA        51.4240   -9.3550   63.7740 C.3   151  PHE151      0.1605
     35  C         50.5850   -8.5560   62.8040 C.2   151  PHE151      0.2264
     36  O         50.6150   -8.7450   61.6010 O.2   151  PHE151     -0.2867
     37  CB        52.8760   -8.8790   63.7610 C.3   151  PHE151      0.0534
     38  CG        53.0860   -7.6050   64.5140 C.ar  151  PHE151     -0.0203
     39  CD1       52.9730   -7.5770   65.8850 C.ar  151  PHE151     -0.0042
     40  CD2       53.3220   -6.4310   63.8330 C.ar  151  PHE151     -0.0042
     41  CE1       53.1450   -6.4130   66.5850 C.ar  151  PHE151     -0.0003
     42  CE2       53.5240   -5.2500   64.5620 C.ar  151  PHE151     -0.0003
     43  CZ        53.4280   -5.2510   65.9120 C.ar  151  PHE151     -0.0000
     44  N         48.1660   -4.7470   62.3040 N.3   153  ASN153     -0.1240
     45  CA        47.5460   -3.4490   62.6310 C.3   153  ASN153      0.1653
     46  C         46.0470   -3.5560   62.8150 C.2   153  ASN153      0.2266
     47  O         45.4820   -3.0750   63.7640 O.2   153  ASN153     -0.2867
     48  CB        47.9160   -2.3430   61.6400 C.3   153  ASN153      0.1155
     49  CG        49.3480   -1.8280   61.8120 C.2   153  ASN153      0.2627
     50  OD1       49.9920   -2.0570   62.8560 O.2   153  ASN153     -0.2716
     51  ND2       49.8060   -1.0460   60.8260 N.am  153  ASN153     -0.0877
     52  N         47.3480    1.9400   66.0320 N.3   222  ALA222     -0.1231
     53  CA        48.4090    1.1090   65.5420 C.3   222  ALA222      0.1694
     54  C         49.8160    1.7600   65.5300 C.2   222  ALA222      0.2592
     55  O         50.8120    1.0430   65.7820 O.2   222  ALA222     -0.2718
     56  CB        48.0230    0.5920   64.1670 C.3   222  ALA222      0.0304
     57  N         49.8990    3.0690   65.3030 N.am  223  TYR223     -0.1976
     58  CA        51.1690    3.7370   65.1650 C.3   223  TYR223      0.1639
     59  C         51.0890    5.2410   65.4300 C.2   223  TYR223      0.2290
     60  O         51.8140    6.0070   64.8510 O.2   223  TYR223     -0.2864
     61  CB        51.8020    3.4370   63.7930 C.3   223  TYR223      0.0560
     62  CG        50.8810    3.6160   62.5910 C.ar  223  TYR223     -0.0198
     63  CD1       50.7490    4.8200   61.9720 C.ar  223  TYR223     -0.0009
     64  CD2       50.1310    2.5270   62.1120 C.ar  223  TYR223     -0.0009
     65  CE1       49.8870    4.9520   60.8240 C.ar  223  TYR223      0.0417
     66  CE2       49.2890    2.6460   61.0160 C.ar  223  TYR223      0.0417
     67  CZ        49.1700    3.8630   60.4230 C.ar  223  TYR223      0.1957
     68  OH        48.3280    4.0160   59.3350 O.3   223  TYR223     -0.2866
     69  N         57.1050  -10.9190   62.2950 N.3   293  PHE293     -0.1241
     70  CA        56.1920  -10.3450   61.3050 C.3   293  PHE293      0.1605
     71  C         55.4830  -11.3090   60.3360 C.2   293  PHE293      0.2264
     72  O         54.6280  -10.8610   59.5610 O.2   293  PHE293     -0.2867
     73  CB        56.9070   -9.2120   60.5560 C.3   293  PHE293      0.0534
     74  CG        57.6100   -8.2430   61.4950 C.ar  293  PHE293     -0.0203
     75  CD1       56.9490   -7.7830   62.6420 C.ar  293  PHE293     -0.0042
     76  CD2       58.9180   -7.8270   61.2600 C.ar  293  PHE293     -0.0042
     77  CE1       57.5730   -6.9000   63.5340 C.ar  293  PHE293     -0.0003
     78  CE2       59.5590   -6.9430   62.1460 C.ar  293  PHE293     -0.0003
     79  CZ        58.8880   -6.4750   63.2810 C.ar  293  PHE293     -0.0000
     80  N         59.6720   -0.6330   66.7770 N.3   317  GLY317     -0.1210
     81  CA        58.6810    0.0510   65.9530 C.3   317  GLY317      0.1956
     82  C         59.3640    0.8910   64.9290 C.2   317  GLY317      0.2613
     83  O         60.4260    1.4700   65.1060 O.2   317  GLY317     -0.2717
     84  N         58.6600    1.0110   63.8030 N.am  318  SER318     -0.1938
     85  CA        59.1470    1.7830   62.7080 C.3   318  SER318      0.2055
     86  C         58.0320    2.4620   61.9070 C.2   318  SER318      0.2644
     87  O         56.8920    1.9990   61.9860 O.2   318  SER318     -0.2714
     88  CB        59.8920    0.8600   61.7370 C.3   318  SER318      0.2130
     89  OG        60.8450    0.0100   62.3890 O.3   318  SER318     -0.2179
     90  N         58.3710    3.5860   61.2730 N.am  319  THR319     -0.1936
     91  CA        57.4940    4.1910   60.2840 C.3   319  THR319      0.2028
     92  C         58.3650    4.4370   59.0950 C.2   319  THR319      0.2642
     93  O         59.5280    4.0470   59.0060 O.2   319  THR319     -0.2714
     94  CB        56.8660    5.4510   60.7890 C.3   319  THR319      0.1808
     95  OG1       57.8890    6.3850   61.1170 O.3   319  THR319     -0.2208
     96  CG2       55.9590    5.2030   61.9670 C.3   319  THR319      0.0379
     97  N         57.7910    5.0560   58.0730 N.am  320  GLY320     -0.1954
     98  CA        58.5960    5.2980   56.9110 C.3   320  GLY320      0.1869
     99  C         59.9230    5.9990   57.1540 C.2   320  GLY320      0.2309
    100  O         60.9210    5.6930   56.4910 O.2   320  GLY320     -0.2863
    101  N         66.4050   -3.4680   62.3230 N.3   346  ILE346     -0.1245
    102  CA        66.1030   -3.9840   63.6510 C.3   346  ILE346      0.1561
    103  C         67.2550   -4.8050   64.2420 C.2   346  ILE346      0.2260
    104  O         67.5640   -4.7160   65.4230 O.2   346  ILE346     -0.2867
    105  CB        64.7700   -4.8040   63.6230 C.3   346  ILE346      0.0252
    106  CG1       63.6160   -3.8090   63.6530 C.3   346  ILE346      0.0019
    107  CG2       64.6750   -5.8060   64.8030 C.3   346  ILE346      0.0019
    108  CD1       62.2880   -4.4580   63.3760 C.3   346  ILE346      0.0001
@<TRIPOS>BOND
     1    31    30    2
     2    32    30   am
     3    30    29    1
     4    27    26    2
     5    28    29    1
     6    28    25    1
     7   100    99    2
     8    26    25    1
     9    98    99    1
    10    98    97    1
    11    25    24    1
    12    24    18   am
    13    23    21    1
    14    20    21    1
    15    20    17    1
    16    97    92   am
    17    16    17    1
    18    21    22    1
    19    18    17    1
    20    18    19    2
    21    93    92    2
    22    92    91    1
    23    68    67    1
    24    72    71    2
    25    91    94    1
    26    91    90    1
    27    71    70    1
    28    67    65   ar
    29    67    66   ar
    30    73    70    1
    31    73    74    1
    32    94    95    1
    33    94    96    1
    34    65    63   ar
    35    51    49   am
    36    66    64   ar
    37    76    74   ar
    38    76    78   ar
    39    90    86   am
    40    70    69    1
    41    74    75   ar
    42    36    35    2
    43    48    49    1
    44    48    45    1
    45    88    89    1
    46    88    85    1
    47    49    50    2
    48    86    87    2
    49    86    85    1
    50    63    62   ar
    51    64    62   ar
    52    78    79   ar
    53    44    45    1
    54   101   102    1
    55    62    61    1
    56    45    46    1
    57    75    77   ar
    58    85    84    1
    59    35    34    1
    60    46    47    2
    61    79    77   ar
    62    33    34    1
    63   108   106    1
    64   105   102    1
    65   105   106    1
    66   105   107    1
    67   102   103    1
    68    37    34    1
    69    37    38    1
    70    61    58    1
    71    84    82   am
    72    40    38   ar
    73    40    42   ar
    74    56    53    1
    75   103   104    2
    76    38    39   ar
    77    42    43   ar
    78    60    59    2
    79     6     5    1
    80    82    83    2
    81    82    81    1
    82    15    14    1
    83    58    57    1
    84    58    59    1
    85    57    54   am
    86    54    53    1
    87    54    55    2
    88    53    52    1
    89    14    13    1
    90     1     2    1
    91    39    41   ar
    92    43    41   ar
    93    81    80    1
    94     5     2    1
    95     2     3    1
    96    13    12    1
    97     3     4    2
    98    12    11    1
    99    11     8    1
   100     7     8    1
   101     8     9    1
   102     9    10    2
