@<TRIPOS>MOLECULE
tmp/5chjB00.pdb
 108 101 0 0 0
SMALL
GASTEIGER

@<TRIPOS>ATOM
      1  N        107.3300   20.0510   19.7420 N.3    59  SER59      -0.1217
      2  CA       107.4560   19.0420   20.7560 C.3    59  SER59       0.1889
      3  C        108.8140   18.9200   21.4610 C.2    59  SER59       0.2288
      4  O        108.8980   18.1840   22.4190 O.2    59  SER59      -0.2866
      5  CB       107.0470   17.6800   20.1980 C.3    59  SER59       0.2089
      6  OG       105.6890   17.7150   19.7660 O.3    59  SER59      -0.2183
      7  N        108.4470   19.3620   25.0920 N.3    62  LYS62      -0.1245
      8  CA       108.1790   18.2810   26.0130 C.3    62  LYS62       0.1561
      9  C        109.3500   17.9720   26.9330 C.2    62  LYS62       0.2260
     10  O        109.1400   17.4750   28.0230 O.2    62  LYS62      -0.2867
     11  CB       107.7890   17.0210   25.2340 C.3    62  LYS62       0.0271
     12  CG       106.3940   17.1430   24.5430 C.3    62  LYS62       0.0035
     13  CD       106.0670   15.9000   23.7220 C.3    62  LYS62       0.0206
     14  CE       104.6810   15.9060   23.1430 C.3    62  LYS62       0.1093
     15  NZ       104.4810   16.9240   22.0930 N.3    62  LYS62      -0.1314
     16  N         97.2960   10.7540   19.6620 N.3   114  LEU114     -0.1231
     17  CA        98.2920   11.7430   19.2800 C.3   114  LEU114      0.1693
     18  C         97.8580   13.1690   19.6090 C.2   114  LEU114      0.2591
     19  O         98.6310   13.9560   20.1340 O.2   114  LEU114     -0.2718
     20  CB        98.5340   11.6770   17.7630 C.3   114  LEU114      0.0284
     21  CG        99.3220   10.5040   17.2450 C.3   114  LEU114      0.0019
     22  CD1       99.0340   10.3240   15.7510 C.3   114  LEU114      0.0001
     23  CD2      100.8290   10.7850   17.4930 C.3   114  LEU114      0.0001
     24  N         96.6250   13.5040   19.2410 N.am  115  GLN115     -0.1979
     25  CA        96.0420   14.8290   19.4780 C.3   115  GLN115      0.1601
     26  C         94.6990   14.7160   20.1860 C.2   115  GLN115      0.2287
     27  O         94.0520   13.6750   20.1120 O.2   115  GLN115     -0.2864
     28  CB        95.7700   15.5590   18.1420 C.3   115  GLN115      0.0394
     29  CG        96.9520   15.6930   17.2280 C.3   115  GLN115      0.0908
     30  CD        98.0440   16.5870   17.7630 C.2   115  GLN115      0.2608
     31  OE1       97.8690   17.3190   18.7490 O.2   115  GLN115     -0.2717
     32  NE2       99.1790   16.5720   17.0780 N.am  115  GLN115     -0.0878
     33  N        102.6300    7.7670   21.4070 N.3   145  TYR145     -0.1241
     34  CA       103.0240    9.1580   21.5230 C.3   145  TYR145      0.1605
     35  C        101.7820   10.0240   21.4960 C.2   145  TYR145      0.2264
     36  O        100.9080    9.8420   20.6590 O.2   145  TYR145     -0.2867
     37  CB       103.9910    9.4930   20.4070 C.3   145  TYR145      0.0534
     38  CG       104.5630   10.8760   20.4690 C.ar  145  TYR145     -0.0201
     39  CD1      105.5380   11.2190   21.4100 C.ar  145  TYR145     -0.0009
     40  CD2      104.1800   11.8280   19.5740 C.ar  145  TYR145     -0.0009
     41  CE1      106.1070   12.4740   21.4300 C.ar  145  TYR145      0.0417
     42  CE2      104.7200   13.1120   19.5900 C.ar  145  TYR145      0.0417
     43  CZ       105.6830   13.4120   20.5310 C.ar  145  TYR145      0.1957
     44  OH       106.2360   14.6730   20.5190 O.3   145  TYR145     -0.2866
     45  N        100.0370   14.0130   22.7420 N.3   147  ASN147     -0.1240
     46  CA        99.9980   15.3380   23.3270 C.3   147  ASN147      0.1653
     47  C         99.0780   15.3490   24.5400 C.2   147  ASN147      0.2266
     48  O         99.4390   15.8780   25.6020 O.2   147  ASN147     -0.2867
     49  CB        99.5810   16.3850   22.3000 C.3   147  ASN147      0.1155
     50  CG       100.7010   16.8200   21.3920 C.2   147  ASN147      0.2627
     51  OD1      101.8700   16.6590   21.6920 O.2   147  ASN147     -0.2716
     52  ND2      100.3460   17.3620   20.2320 N.am  147  ASN147     -0.0877
     53  N        103.7330   21.6100   23.2910 N.3   217  TYR217     -0.1241
     54  CA       104.4940   22.1110   22.1470 C.3   217  TYR217      0.1605
     55  C        104.6610   23.6270   22.0950 C.2   217  TYR217      0.2264
     56  O        104.8910   24.1800   20.9990 O.2   217  TYR217     -0.2867
     57  CB       103.8890   21.5940   20.8280 C.3   217  TYR217      0.0534
     58  CG       102.3900   21.7900   20.6830 C.ar  217  TYR217     -0.0201
     59  CD1      101.8540   23.0060   20.2640 C.ar  217  TYR217     -0.0009
     60  CD2      101.5200   20.7460   20.9550 C.ar  217  TYR217     -0.0009
     61  CE1      100.4740   23.1700   20.1390 C.ar  217  TYR217      0.0417
     62  CE2      100.1570   20.9180   20.8340 C.ar  217  TYR217      0.0417
     63  CZ        99.6580   22.1180   20.4180 C.ar  217  TYR217      0.1957
     64  OH        98.2840   22.2690   20.3150 O.3   217  TYR217     -0.2866
     65  N        103.7610    7.3510   15.4380 N.3   287  PHE287     -0.1241
     66  CA       102.3560    7.5950   15.0620 C.3   287  PHE287      0.1605
     67  C        101.4400    6.4050   15.1980 C.2   287  PHE287      0.2264
     68  O        100.2740    6.4620   14.7730 O.2   287  PHE287     -0.2867
     69  CB       102.3030    8.1610   13.6460 C.3   287  PHE287      0.0534
     70  CG       103.0380    9.4790   13.5040 C.ar  287  PHE287     -0.0203
     71  CD1      103.0470   10.4010   14.5470 C.ar  287  PHE287     -0.0042
     72  CD2      103.7520    9.7790   12.3630 C.ar  287  PHE287     -0.0042
     73  CE1      103.7360   11.5980   14.4340 C.ar  287  PHE287     -0.0003
     74  CE2      104.4450   10.9820   12.2460 C.ar  287  PHE287     -0.0003
     75  CZ       104.4400   11.8820   13.2740 C.ar  287  PHE287     -0.0000
     76  N        107.8720   19.9110   16.1390 N.3   312  SER312     -0.1202
     77  CA       107.3850   20.7390   15.0350 C.3   312  SER312      0.2020
     78  C        106.1210   21.4850   15.4360 C.2   312  SER312      0.2619
     79  O        105.4360   21.1250   16.3830 O.2   312  SER312     -0.2717
     80  CB       107.0100   19.8450   13.8500 C.3   312  SER312      0.2103
     81  OG       108.0420   18.9310   13.5140 O.3   312  SER312     -0.2182
     82  N        105.8230   22.5180   14.6440 N.am  313  THR313     -0.1938
     83  CA       104.5060   23.1630   14.6530 C.3   313  THR313      0.2028
     84  C        104.1420   23.3490   13.2000 C.2   313  THR313      0.2642
     85  O        104.8770   22.8930   12.3420 O.2   313  THR313     -0.2714
     86  CB       104.5400   24.5190   15.3560 C.3   313  THR313      0.1808
     87  OG1      105.4680   25.3650   14.6830 O.3   313  THR313     -0.2208
     88  CG2      104.9690   24.3600   16.8100 C.3   313  THR313      0.0379
     89  N        103.0420   24.0510   12.8950 N.am  314  GLY314     -0.1954
     90  CA       102.5930   24.1390   11.5150 C.3   314  GLY314      0.1869
     91  C        103.6480   24.7490   10.6160 C.2   314  GLY314      0.2309
     92  O        103.8030   24.3650    9.4490 O.2   314  GLY314     -0.2863
     93  N        108.3350   23.2640    8.7240 N.3   337  ASN337     -0.1240
     94  CA       108.1300   21.8970    9.2400 C.3   337  ASN337      0.1653
     95  C        108.5220   20.9150    8.1280 C.2   337  ASN337      0.2266
     96  O        107.6700   20.4320    7.3800 O.2   337  ASN337     -0.2867
     97  CB       106.6790   21.7050    9.6580 C.3   337  ASN337      0.1155
     98  CG       106.4010   20.3240   10.1950 C.2   337  ASN337      0.2627
     99  OD1      107.2930   19.4920   10.2680 O.2   337  ASN337     -0.2716
    100  ND2      105.1650   20.0850   10.5970 N.am  337  ASN337     -0.0877
    101  N        111.2490   14.8510    9.2900 N.3   340  ILE340     -0.1245
    102  CA       112.0400   14.4450   10.4520 C.3   340  ILE340      0.1561
    103  C        113.2490   13.6240    9.9900 C.2   340  ILE340      0.2260
    104  O        114.3360   13.7420   10.5370 O.2   340  ILE340     -0.2867
    105  CB       111.1590   13.6960   11.4630 C.3   340  ILE340      0.0252
    106  CG1      110.4350   14.7440   12.3430 C.3   340  ILE340      0.0019
    107  CG2      111.9740   12.7340   12.3220 C.3   340  ILE340      0.0019
    108  CD1      109.3820   14.1520   13.2640 C.3   340  ILE340      0.0001
@<TRIPOS>BOND
     1    96    95    2
     2    95    94    1
     3    93    94    1
     4    94    97    1
     5   101   102    1
     6    92    91    2
     7    97    98    1
     8   103   102    1
     9   103   104    2
    10    98    99    2
    11    98   100   am
    12   102   105    1
    13    91    90    1
    14   105   107    1
    15   105   106    1
    16    90    89    1
    17    74    72   ar
    18    74    75   ar
    19    85    84    2
    20   106   108    1
    21    72    70   ar
    22    89    84   am
    23    84    83    1
    24    75    73   ar
    25    70    69    1
    26    70    71   ar
    27    81    80    1
    28    69    66    1
    29    80    77    1
    30    73    71   ar
    31    82    83    1
    32    82    78   am
    33    83    86    1
    34    87    86    1
    35    68    67    2
    36    77    78    1
    37    77    76    1
    38    66    67    1
    39    66    65    1
    40    86    88    1
    41    78    79    2
    42    22    21    1
    43    32    30   am
    44    29    30    1
    45    29    28    1
    46    21    23    1
    47    21    20    1
    48    30    31    2
    49    20    17    1
    50    28    25    1
    51    24    25    1
    52    24    18   am
    53    17    18    1
    54    17    16    1
    55    25    26    1
    56    40    42   ar
    57    40    38   ar
    58    42    43   ar
    59    18    19    2
    60     1     2    1
    61     6     5    1
    62    27    26    2
    63    61    59   ar
    64    61    63   ar
    65     5     2    1
    66    52    50   am
    67    59    58   ar
    68    64    63    1
    69    37    38    1
    70    37    34    1
    71    63    62   ar
    72    38    39   ar
    73    44    43    1
    74    43    41   ar
    75    36    35    2
    76    58    57    1
    77    58    60   ar
    78     2     3    1
    79    57    54    1
    80    62    60   ar
    81    56    55    2
    82    50    51    2
    83    50    49    1
    84    33    34    1
    85    39    41   ar
    86     3     4    2
    87    35    34    1
    88    15    14    1
    89    55    54    1
    90    54    53    1
    91    49    46    1
    92    45    46    1
    93    14    13    1
    94    46    47    1
    95    13    12    1
    96    47    48    2
    97    12    11    1
    98     7     8    1
    99    11     8    1
   100     8     9    1
   101     9    10    2
