@<TRIPOS>MOLECULE
tmp/5chkA01.pdb
 149 143 0 0 0
SMALL
GASTEIGER

@<TRIPOS>ATOM
      1  N         17.6370    9.0550   25.0240 N.3    10  ASN10      -0.1240
      2  CA        16.2150    9.1420   24.6160 C.3    10  ASN10       0.1653
      3  C         15.5940   10.3530   25.2130 C.2    10  ASN10       0.2266
      4  O         16.1950   10.9940   26.0900 O.2    10  ASN10      -0.2867
      5  CB        15.3590    7.8360   24.7970 C.3    10  ASN10       0.1155
      6  CG        15.0240    7.4810   26.1990 C.2    10  ASN10       0.2627
      7  OD1       15.1140    8.3000   27.1120 O.2    10  ASN10      -0.2716
      8  ND2       14.6630    6.2090   26.4030 N.am   10  ASN10      -0.0877
      9  N         13.4090   10.5690   27.3270 N.3    12  LEU12      -0.1245
     10  CA        13.2580   10.4250   28.7970 C.3    12  LEU12       0.1561
     11  C         14.5490   10.5560   29.6020 C.2    12  LEU12       0.2260
     12  O         14.5210   10.4730   30.8140 O.2    12  LEU12      -0.2867
     13  CB        12.6590    9.0600   29.1390 C.3    12  LEU12       0.0270
     14  CG        11.3620    8.6520   28.4000 C.3    12  LEU12       0.0019
     15  CD1       10.9920    7.2510   28.8430 C.3    12  LEU12       0.0001
     16  CD2       10.2100    9.6510   28.6320 C.3    12  LEU12       0.0001
     17  N         17.0900    8.2100   29.3140 N.3    14  SER14      -0.1217
     18  CA        17.7710    6.9060   29.3620 C.3    14  SER14       0.1889
     19  C         18.9380    6.9180   28.3850 C.2    14  SER14       0.2288
     20  O         18.9090    7.6320   27.3990 O.2    14  SER14      -0.2866
     21  CB        16.8160    5.7730   29.0210 C.3    14  SER14       0.2089
     22  OG        15.7620    5.7960   29.9670 O.3    14  SER14      -0.2183
     23  N         21.5670   -0.8070   28.4390 N.3    31  TYR31      -0.1241
     24  CA        20.5260    0.2100   28.5480 C.3    31  TYR31       0.1605
     25  C         20.5590    0.7060   29.9820 C.2    31  TYR31       0.2264
     26  O         20.4550   -0.1080   30.9220 O.2    31  TYR31      -0.2867
     27  CB        19.1690   -0.4030   28.2440 C.3    31  TYR31       0.0534
     28  CG        18.1320    0.5890   27.7610 C.ar   31  TYR31      -0.0201
     29  CD1       17.8190    0.6990   26.4370 C.ar   31  TYR31      -0.0009
     30  CD2       17.5190    1.4040   28.6190 C.ar   31  TYR31      -0.0009
     31  CE1       16.8790    1.6260   25.9970 C.ar   31  TYR31       0.0417
     32  CE2       16.5850    2.3290   28.1920 C.ar   31  TYR31       0.0417
     33  CZ        16.2500    2.4400   26.8850 C.ar   31  TYR31       0.1957
     34  OH        15.3090    3.4110   26.5140 O.3    31  TYR31      -0.2866
     35  N         18.5690    3.1100   32.3040 N.3    33  THR33      -0.1218
     36  CA        17.2610    3.7400   32.2410 C.3    33  THR33       0.1862
     37  C         17.2040    4.9400   33.1520 C.2    33  THR33       0.2287
     38  O         17.8470    4.9500   34.2140 O.2    33  THR33      -0.2866
     39  CB        16.1060    2.7580   32.6170 C.3    33  THR33       0.1770
     40  OG1       14.8750    3.4810   32.7590 O.3    33  THR33      -0.2211
     41  CG2       16.3580    2.0280   33.9230 C.3    33  THR33       0.0375
     42  N         14.2330    5.9910   34.4230 N.3    35  VAL35      -0.1231
     43  CA        12.8030    5.8600   34.6560 C.3    35  VAL35       0.1692
     44  C         12.4680    5.3530   36.0940 C.2    35  VAL35       0.2592
     45  O         11.3030    5.4210   36.5180 O.2    35  VAL35      -0.2718
     46  CB        12.2880    4.9840   33.4960 C.3    35  VAL35       0.0266
     47  CG1       11.4010    3.7810   33.9260 C.3    35  VAL35       0.0020
     48  CG2       11.7710    5.9020   32.3590 C.3    35  VAL35       0.0020
     49  N         13.4860    4.9250   36.8570 N.am   36  THR36      -0.1953
     50  CA        13.3230    4.3120   38.1900 C.3    36  THR36       0.1897
     51  C         13.6770    5.1890   39.3990 C.2    36  THR36       0.2313
     52  O         14.3550    6.2050   39.2260 O.2    36  THR36      -0.2863
     53  CB        14.2030    3.0620   38.3150 C.3    36  THR36       0.1794
     54  OG1       15.5910    3.4510   38.4710 O.3    36  THR36      -0.2208
     55  CG2       13.9630    2.1590   37.1240 C.3    36  THR36       0.0378
     56  N         14.6470   -6.3830   31.5740 N.3    68  TRP68      -0.1227
     57  CA        14.9600   -5.4140   32.6310 C.3    68  TRP68       0.1737
     58  C         15.4860   -6.0840   33.9170 C.2    68  TRP68       0.2595
     59  O         14.9510   -7.1040   34.3560 O.2    68  TRP68      -0.2718
     60  CB        13.7870   -4.5050   32.9440 C.3    68  TRP68       0.0564
     61  CG        13.3550   -3.6650   31.8120 C.ar   68  TRP68       0.0003
     62  CD1       12.2250   -3.8370   31.0880 C.ar   68  TRP68       0.0946
     63  CD2       13.9780   -2.4990   31.2860 C.ar   68  TRP68       0.0152
     64  NE1       12.1080   -2.8940   30.1420 N.ar   68  TRP68      -0.2442
     65  CE2       13.1770   -2.0490   30.2300 C.ar   68  TRP68       0.0810
     66  CE3       15.1520   -1.8100   31.5790 C.ar   68  TRP68       0.0012
     67  CZ2       13.4800   -0.9410   29.4750 C.ar   68  TRP68       0.0191
     68  CZ3       15.4660   -0.6940   30.8170 C.ar   68  TRP68       0.0001
     69  CH2       14.6440   -0.2990   29.7480 C.ar   68  TRP68       0.0015
     70  N         16.5680   -5.5330   34.4790 N.am   69  LYS69      -0.1966
     71  CA        17.0940   -6.0330   35.7530 C.3    69  LYS69       0.1728
     72  C         16.2400   -5.5410   36.8880 C.2    69  LYS69       0.2616
     73  O         15.6380   -4.4620   36.8430 O.2    69  LYS69      -0.2715
     74  CB        18.5350   -5.5960   36.0030 C.3    69  LYS69       0.0311
     75  CG        19.5370   -6.4070   35.1940 C.3    69  LYS69       0.0038
     76  CD        20.9510   -6.1880   35.7360 C.3    69  LYS69       0.0206
     77  CE        22.0160   -7.0190   34.9960 C.3    69  LYS69       0.1093
     78  NZ        22.7270   -6.2920   33.9020 N.3    69  LYS69      -0.1314
     79  N         16.1660   -6.3410   37.9180 N.am   70  PHE70      -0.1960
     80  CA        15.3380   -5.9860   39.0610 C.3    70  PHE70       0.1771
     81  C         13.8630   -5.7410   38.7120 C.2    70  PHE70       0.2620
     82  O         13.1860   -4.9910   39.3580 O.2    70  PHE70      -0.2715
     83  CB        15.9440   -4.7710   39.7920 C.3    70  PHE70       0.0574
     84  CG        17.3050   -5.0320   40.4330 C.ar   70  PHE70      -0.0200
     85  CD1       17.5900   -6.2520   41.0720 C.ar   70  PHE70      -0.0042
     86  CD2       18.2790   -4.0180   40.4390 C.ar   70  PHE70      -0.0042
     87  CE1       18.8160   -6.4470   41.6980 C.ar   70  PHE70      -0.0003
     88  CE2       19.4950   -4.2040   41.0700 C.ar   70  PHE70      -0.0003
     89  CZ        19.7690   -5.4210   41.7010 C.ar   70  PHE70      -0.0000
     90  N         13.3770   -6.4330   37.6960 N.am   71  SER71      -0.1950
     91  CA        12.0120   -6.3090   37.2360 C.3    71  SER71       0.1924
     92  C         11.6880   -7.5890   36.4840 C.2    71  SER71       0.2314
     93  O         12.5830   -8.2300   35.9530 O.2    71  SER71      -0.2863
     94  CB        11.9010   -5.0870   36.3650 C.3    71  SER71       0.2116
     95  OG        10.5760   -4.7880   36.1420 O.3    71  SER71      -0.2180
     96  N          9.7460   -7.4920   33.8800 N.3    73  SER73      -0.1217
     97  CA         9.2660   -6.9750   32.5980 C.3    73  SER73       0.1889
     98  C         10.2220   -7.0610   31.4260 C.2    73  SER73       0.2288
     99  O         11.4370   -7.1840   31.5840 O.2    73  SER73      -0.2866
    100  CB         8.8840   -5.4730   32.7650 C.3    73  SER73       0.2089
    101  OG         8.0440   -5.3450   33.8810 O.3    73  SER73      -0.2183
    102  N         10.7830   -4.8460   27.6260 N.3    75  THR75      -0.1218
    103  CA        10.4550   -3.8980   26.5490 C.3    75  THR75       0.1862
    104  C         11.0410   -4.3360   25.2180 C.2    75  THR75       0.2287
    105  O         12.1760   -4.7570   25.1710 O.2    75  THR75      -0.2866
    106  CB        10.8990   -2.4800   26.9140 C.3    75  THR75       0.1770
    107  OG1       10.2930   -2.1770   28.1490 O.3    75  THR75      -0.2211
    108  CG2       10.4410   -1.4600   25.8680 C.3    75  THR75       0.0375
    109  N         11.7490   -2.6340   21.3300 N.3    77  PHE77      -0.1241
    110  CA        11.7560   -1.4190   20.5200 C.3    77  PHE77       0.1605
    111  C         11.9390   -1.7410   19.0480 C.2    77  PHE77       0.2264
    112  O         12.6720   -2.6710   18.6690 O.2    77  PHE77      -0.2867
    113  CB        12.9250   -0.5120   20.8610 C.3    77  PHE77       0.0534
    114  CG        12.9730   -0.0600   22.2880 C.ar   77  PHE77      -0.0203
    115  CD1       13.3540   -0.9420   23.3040 C.ar   77  PHE77      -0.0042
    116  CD2       12.7260    1.2610   22.5980 C.ar   77  PHE77      -0.0042
    117  CE1       13.4190   -0.5150   24.6190 C.ar   77  PHE77      -0.0003
    118  CE2       12.7910    1.6890   23.9200 C.ar   77  PHE77      -0.0003
    119  CZ        13.1310    0.8110   24.9230 C.ar   77  PHE77      -0.0000
    120  N          7.6900    1.3110   21.0110 N.3    95  TRP95      -0.1241
    121  CA         7.9850    0.2340   21.8960 C.3    95  TRP95       0.1605
    122  C          6.7450   -0.3710   22.4800 C.2    95  TRP95       0.2264
    123  O          5.6850    0.2800   22.5430 O.2    95  TRP95      -0.2867
    124  CB         8.8960    0.7110   23.0260 C.3    95  TRP95       0.0550
    125  CG         8.5110    1.9630   23.6620 C.ar   95  TRP95       0.0003
    126  CD1        9.0390    3.1920   23.4110 C.ar   95  TRP95       0.0946
    127  CD2        7.5850    2.1480   24.7510 C.ar   95  TRP95       0.0152
    128  NE1        8.4760    4.1070   24.2320 N.ar   95  TRP95      -0.2442
    129  CE2        7.5630    3.4920   25.0450 C.ar   95  TRP95       0.0810
    130  CE3        6.7840    1.2850   25.5150 C.ar   95  TRP95       0.0012
    131  CZ2        6.7440    4.0200   26.0360 C.ar   95  TRP95       0.0191
    132  CZ3        5.9590    1.8250   26.5030 C.ar   95  TRP95       0.0001
    133  CH2        5.9390    3.1640   26.7430 C.ar   95  TRP95       0.0015
    134  N          5.9760   -2.3400   26.2120 N.3    97  LEU97      -0.1245
    135  CA         6.5150   -2.7000   27.5600 C.3    97  LEU97       0.1561
    136  C          5.5660   -3.7110   28.0770 C.2    97  LEU97       0.2260
    137  O          4.3530   -3.3800   28.2620 O.2    97  LEU97      -0.2867
    138  CB         6.5700   -1.4990   28.5130 C.3    97  LEU97       0.0270
    139  CG         6.7190   -1.7670   30.0050 C.3    97  LEU97       0.0019
    140  CD1        7.9790   -2.5230   30.2280 C.3    97  LEU97       0.0001
    141  CD2        6.7820   -0.4260   30.7100 C.3    97  LEU97       0.0001
    142  N          9.8760    6.4410   21.3690 N.3   116  ASN116     -0.1240
    143  CA        11.1360    7.0470   21.8810 C.3   116  ASN116      0.1653
    144  C         11.9180    7.5470   20.7050 C.2   116  ASN116      0.2266
    145  O         11.9820    6.8790   19.7020 O.2   116  ASN116     -0.2867
    146  CB        11.9580    6.0750   22.6980 C.3   116  ASN116      0.1155
    147  CG        11.6410    6.1500   24.1750 C.2   116  ASN116      0.2627
    148  OD1       11.4270    5.1610   24.7910 O.2   116  ASN116     -0.2716
    149  ND2       11.6750    7.3250   24.7420 N.am  116  ASN116     -0.0877
@<TRIPOS>BOND
     1   112   111    2
     2   111   110    1
     3   145   144    2
     4   110   113    1
     5   110   109    1
     6   144   143    1
     7   113   114    1
     8   120   121    1
     9   142   143    1
    10   143   146    1
    11   121   122    1
    12   121   124    1
    13   114   116   ar
    14   114   115   ar
    15   122   123    2
    16   116   118   ar
    17   146   147    1
    18   124   125    1
    19   115   117   ar
    20   126   125   ar
    21   126   128   ar
    22   125   127   ar
    23   118   119   ar
    24   147   149   am
    25   147   148    2
    26   128   129   ar
    27     2     5    1
    28     2     1    1
    29     2     3    1
    30   117   119   ar
    31   127   129   ar
    32   127   130   ar
    33     5     6    1
    34   129   131   ar
    35   105   104    2
    36     3     4    2
    37   104   103    1
    38   130   132   ar
    39   108   106    1
    40    31    29   ar
    41    31    33   ar
    42   131   133   ar
    43     6     8   am
    44     6     7    2
    45   134   135    1
    46    29    28   ar
    47   132   133   ar
    48    34    33    1
    49   103   106    1
    50   103   102    1
    51    33    32   ar
    52   106   107    1
    53     9    10    1
    54    20    19    2
    55   135   136    1
    56   135   138    1
    57    28    27    1
    58    28    30   ar
    59   136   137    2
    60    32    30   ar
    61    27    24    1
    62    19    18    1
    63    14    16    1
    64    14    15    1
    65    14    13    1
    66    23    24    1
    67   138   139    1
    68    24    25    1
    69    10    13    1
    70    10    11    1
    71    21    18    1
    72    21    22    1
    73    17    18    1
    74    67    69   ar
    75    67    65   ar
    76    11    12    2
    77    69    68   ar
    78    25    26    2
    79   139   140    1
    80   139   141    1
    81    64    65   ar
    82    64    62   ar
    83    65    63   ar
    84    68    66   ar
    85    62    61   ar
    86    63    66   ar
    87    63    61   ar
    88    98    99    2
    89    98    97    1
    90    56    57    1
    91    61    60    1
    92    36    35    1
    93    36    39    1
    94    36    37    1
    95    48    46    1
    96    97   100    1
    97    97    96    1
    98    39    40    1
    99    39    41    1
   100    57    60    1
   101    57    58    1
   102   100   101    1
   103    37    38    2
   104    46    47    1
   105    46    43    1
   106    78    77    1
   107    58    59    2
   108    58    70   am
   109    42    43    1
   110    70    71    1
   111    43    44    1
   112    77    76    1
   113    75    76    1
   114    75    74    1
   115    71    74    1
   116    71    72    1
   117    93    92    2
   118    44    45    2
   119    44    49   am
   120    95    94    1
   121    94    91    1
   122    92    91    1
   123    73    72    2
   124    49    50    1
   125    72    79   am
   126    55    53    1
   127    91    90    1
   128    90    81   am
   129    79    80    1
   130    50    53    1
   131    50    51    1
   132    53    54    1
   133    81    80    1
   134    81    82    2
   135    80    83    1
   136    52    51    2
   137    83    84    1
   138    84    86   ar
   139    84    85   ar
   140    86    88   ar
   141    88    89   ar
   142    85    87   ar
   143    87    89   ar
