@<TRIPOS>MOLECULE
tmp/5chmA00.pdb
 101 94 0 0 0
SMALL
GASTEIGER

@<TRIPOS>ATOM
      1  N         70.3100    9.0170   16.0280 N.3    58  SER58      -0.1217
      2  CA        69.3980    9.9840   16.6330 C.3    58  SER58       0.1889
      3  C         67.9930   10.0600   16.0620 C.2    58  SER58       0.2288
      4  O         67.1770   10.7760   16.6160 O.2    58  SER58      -0.2866
      5  CB        69.9940   11.3910   16.5900 C.3    58  SER58       0.2089
      6  OG        71.0870   11.4370   17.5000 O.3    58  SER58      -0.2183
      7  N         65.4370    9.6620   18.7030 N.3    61  LYS61      -0.1245
      8  CA        64.9420   10.7650   19.5160 C.3    61  LYS61       0.1561
      9  C         63.4800   11.0650   19.2210 C.2    61  LYS61       0.2260
     10  O         62.7340   11.5120   20.1000 O.2    61  LYS61      -0.2867
     11  CB        65.7960   12.0260   19.2930 C.3    61  LYS61       0.0271
     12  CG        67.2350   11.8960   19.8590 C.3    61  LYS61       0.0035
     13  CD        68.0700   13.1430   19.5580 C.3    61  LYS61       0.0206
     14  CE        69.4160   13.1360   20.3270 C.3    61  LYS61       0.1093
     15  NZ        70.3830   12.0500   19.9000 N.3    61  LYS61      -0.1314
     16  N         76.8240   18.0720   23.7830 N.3   113  LEU113     -0.1231
     17  CA        76.4460   17.0460   22.8190 C.3   113  LEU113      0.1693
     18  C         76.5300   15.6270   23.4230 C.2   113  LEU113      0.2591
     19  O         75.5750   14.8720   23.3540 O.2   113  LEU113     -0.2718
     20  CB        77.3510   17.1440   21.5840 C.3   113  LEU113      0.0284
     21  CG        77.0960   16.1130   20.4770 C.3   113  LEU113      0.0019
     22  CD1       75.7180   16.3280   19.8690 C.3   113  LEU113      0.0001
     23  CD2       78.1880   16.1670   19.4180 C.3   113  LEU113      0.0001
     24  N         77.6790   15.3070   24.0220 N.am  114  GLN114     -0.1979
     25  CA        77.9240   14.0040   24.6610 C.3   114  GLN114      0.1601
     26  C         78.1920   14.1470   26.1460 C.2   114  GLN114      0.2287
     27  O         78.6570   15.1960   26.5990 O.2   114  GLN114     -0.2864
     28  CB        79.1300   13.2880   24.0280 C.3   114  GLN114      0.0394
     29  CG        79.1030   13.1460   22.5170 C.3   114  GLN114      0.0908
     30  CD        77.9450   12.3000   22.0150 C.2   114  GLN114      0.2608
     31  OE1       77.2340   11.6610   22.7950 O.2   114  GLN114     -0.2717
     32  NE2       77.7490   12.2900   20.6970 N.am  114  GLN114     -0.0878
     33  N         72.2370   21.0790   20.7450 N.3   144  TYR144     -0.1241
     34  CA        71.8410   19.7020   20.4750 C.3   144  TYR144      0.1605
     35  C         72.6010   18.7720   21.4170 C.2   144  TYR144      0.2264
     36  O         73.8150   18.8720   21.5120 O.2   144  TYR144     -0.2867
     37  CB        72.1210   19.3750   19.0080 C.3   144  TYR144      0.0534
     38  CG        71.7280   17.9760   18.5530 C.ar  144  TYR144     -0.0201
     39  CD1       70.3900   17.6130   18.4370 C.ar  144  TYR144     -0.0009
     40  CD2       72.6970   17.0430   18.1980 C.ar  144  TYR144     -0.0009
     41  CE1       70.0240   16.3550   18.0050 C.ar  144  TYR144      0.0417
     42  CE2       72.3380   15.7700   17.7700 C.ar  144  TYR144      0.0417
     43  CZ        71.0010   15.4430   17.6770 C.ar  144  TYR144      0.1957
     44  OH        70.6310   14.1940   17.2590 O.3   144  TYR144     -0.2866
     45  N         72.7580   14.8820   23.6620 N.3   146  ASN146     -0.1240
     46  CA        72.3050   13.5560   24.0580 C.3   146  ASN146      0.1653
     47  C         71.9400   13.5140   25.5380 C.2   146  ASN146      0.2266
     48  O         70.8870   12.9750   25.8730 O.2   146  ASN146     -0.2867
     49  CB        73.3610   12.5020   23.7140 C.3   146  ASN146      0.1155
     50  CG        73.3720   12.1680   22.2360 C.2   146  ASN146      0.2627
     51  OD1       72.3430   12.2300   21.5780 O.2   146  ASN146     -0.2716
     52  ND2       74.5370   11.8140   21.7070 N.am  146  ASN146     -0.0877
     53  N         76.8780   -0.2680   17.2750 N.3   206  ALA206     -0.1231
     54  CA        76.8230    0.6010   18.4520 C.3   206  ALA206      0.1694
     55  C         76.7600   -0.2060   19.7480 C.2   206  ALA206      0.2592
     56  O         76.1510   -1.2830   19.7990 O.2   206  ALA206     -0.2718
     57  CB        75.6350    1.5400   18.3640 C.3   206  ALA206      0.0304
     58  N         77.3960    0.3240   20.7900 N.am  207  THR207     -0.1953
     59  CA        77.4300   -0.3210   22.1020 C.3   207  THR207      0.1897
     60  C         76.5390    0.4330   23.0810 C.2   207  THR207      0.2313
     61  O         76.2810    1.6180   22.8880 O.2   207  THR207     -0.2863
     62  CB        78.8640   -0.3810   22.6670 C.3   207  THR207      0.1794
     63  OG1       79.4570    0.9240   22.5970 O.3   207  THR207     -0.2208
     64  CG2       79.6990   -1.3590   21.8700 C.3   207  THR207      0.0378
     65  N         69.9150    7.4040   21.0720 N.3   216  TYR216     -0.1241
     66  CA        70.2900    6.9020   19.7420 C.3   216  TYR216      0.1605
     67  C         70.2710    5.3750   19.6060 C.2   216  TYR216      0.2264
     68  O         70.9760    4.8160   18.7650 O.2   216  TYR216     -0.2867
     69  CB        71.6920    7.4120   19.3550 C.3   216  TYR216      0.0534
     70  CG        72.7800    7.1260   20.3640 C.ar  216  TYR216     -0.0201
     71  CD1       73.4010    5.8780   20.4200 C.ar  216  TYR216     -0.0009
     72  CD2       73.1970    8.1050   21.2600 C.ar  216  TYR216     -0.0009
     73  CE1       74.3980    5.6240   21.3330 C.ar  216  TYR216      0.0417
     74  CE2       74.1960    7.8500   22.1780 C.ar  216  TYR216      0.0417
     75  CZ        74.7870    6.6080   22.2110 C.ar  216  TYR216      0.1957
     76  OH        75.7870    6.3490   23.1240 O.3   216  TYR216     -0.2866
     77  N         72.8090    9.2240   13.1640 N.3   311  SER311     -0.1202
     78  CA        74.0730    8.5630   12.8620 C.3   311  SER311      0.2020
     79  C         74.6390    7.7710   14.0440 C.2   311  SER311      0.2619
     80  O         74.5270    8.1980   15.1940 O.2   311  SER311     -0.2717
     81  CB        75.1090    9.6010   12.4190 C.3   311  SER311      0.2103
     82  OG        74.7310   10.2290   11.2060 O.3   311  SER311     -0.2182
     83  N         75.2550    6.6270   13.7590 N.am  312  THR312     -0.1938
     84  CA        76.1210    5.9710   14.7410 C.3   312  THR312      0.2028
     85  C         77.4870    5.8070   14.0980 C.2   312  THR312      0.2642
     86  O         77.7020    6.2850   12.9850 O.2   312  THR312     -0.2714
     87  CB        75.5740    4.5960   15.2150 C.3   312  THR312      0.1808
     88  OG1       75.5820    3.6550   14.1300 O.3   312  THR312     -0.2208
     89  CG2       74.1550    4.7500   15.7480 C.3   312  THR312      0.0379
     90  N         78.4070    5.1340   14.7860 N.am  313  GLY313     -0.1954
     91  CA        79.7330    4.9110   14.2420 C.3   313  GLY313      0.1869
     92  C         79.7350    4.3120   12.8430 C.2   313  GLY313      0.2309
     93  O         80.5630    4.6690   12.0040 O.2   313  GLY313     -0.2863
     94  N         78.0980    5.7660    8.0180 N.3   336  ASN336     -0.1240
     95  CA        77.8490    7.1370    8.4720 C.3   336  ASN336      0.1653
     96  C         78.3460    8.1270    7.4210 C.2   336  ASN336      0.2266
     97  O         79.4670    8.6250    7.5120 O.2   336  ASN336     -0.2867
     98  CB        78.5390    7.3660    9.8210 C.3   336  ASN336      0.1155
     99  CG        78.2660    8.7350   10.4200 C.2   336  ASN336      0.2627
    100  OD1       77.4750    9.5300    9.9010 O.2   336  ASN336     -0.2716
    101  ND2       78.9390    9.0200   11.5320 N.am  336  ASN336     -0.0877
@<TRIPOS>BOND
     1    96    97    2
     2    96    95    1
     3    94    95    1
     4    95    98    1
     5    98    99    1
     6   100    99    2
     7    99   101   am
     8    82    81    1
     9    93    92    2
    10    81    78    1
    11    92    91    1
    12    78    77    1
    13    78    79    1
    14    86    85    2
    15    83    79   am
    16    83    84    1
    17    79    80    2
    18    85    84    1
    19    85    90   am
    20    88    87    1
    21    91    90    1
    22    84    87    1
    23    87    89    1
    24     1     2    1
    25     3     4    2
    26     3     2    1
    27     5     2    1
    28     5     6    1
    29    44    43    1
    30    53    54    1
    31    43    42   ar
    32    43    41   ar
    33    42    40   ar
    34    41    39   ar
    35    40    38   ar
    36    57    54    1
    37    39    38   ar
    38    54    55    1
    39    38    37    1
    40     7     8    1
    41    68    67    2
    42    37    34    1
    43     9     8    1
    44     9    10    2
    45    11     8    1
    46    11    12    1
    47    69    66    1
    48    69    70    1
    49    23    21    1
    50    13    12    1
    51    13    14    1
    52    67    66    1
    53    66    65    1
    54    55    56    2
    55    55    58   am
    56    22    21    1
    57    15    14    1
    58    70    71   ar
    59    70    72   ar
    60    71    73   ar
    61    34    33    1
    62    34    35    1
    63    21    20    1
    64    32    30   am
    65    58    59    1
    66    72    74   ar
    67    73    75   ar
    68    35    36    2
    69    51    50    2
    70    20    17    1
    71    52    50   am
    72    64    62    1
    73    30    29    1
    74    30    31    2
    75    59    62    1
    76    59    60    1
    77    74    75   ar
    78    75    76    1
    79    50    49    1
    80    29    28    1
    81    63    62    1
    82    17    18    1
    83    17    16    1
    84    61    60    2
    85    19    18    2
    86    18    24   am
    87    45    46    1
    88    49    46    1
    89    24    25    1
    90    28    25    1
    91    46    47    1
    92    25    26    1
    93    47    48    2
    94    26    27    2
