@<TRIPOS>MOLECULE
tmp/5choA00.pdb
 209 204 0 0 0
SMALL
GASTEIGER

@<TRIPOS>ATOM
      1  N        218.2390   -0.7750   32.7970 N.3    19  VAL19      -0.1245
      2  CA       217.0520   -0.6250   31.9600 C.3    19  VAL19       0.1561
      3  C        217.1120   -1.5850   30.7880 C.2    19  VAL19       0.2260
      4  O        218.1580   -1.7260   30.1540 O.2    19  VAL19      -0.2867
      5  CB       216.9030    0.8030   31.4130 C.3    19  VAL19       0.0252
      6  CG1      215.5430    0.9620   30.7460 C.3    19  VAL19       0.0019
      7  CG2      217.0620    1.8230   32.5240 C.3    19  VAL19       0.0019
      8  N        206.7340   -6.2820   18.5710 N.3    30  HIS30      -0.1241
      9  CA       206.4560   -5.2050   19.5000 C.3    30  HIS30       0.1621
     10  C        207.5900   -5.0840   20.5050 C.2    30  HIS30       0.2264
     11  O        208.3610   -6.0230   20.6960 O.2    30  HIS30      -0.2867
     12  CB       205.1310   -5.4630   20.2170 C.3    30  HIS30       0.0745
     13  CG       204.6540   -4.3130   21.0450 C.ar   30  HIS30       0.0817
     14  ND1      204.7310   -3.0040   20.6140 N.ar   30  HIS30      -0.2268
     15  CD2      204.1190   -4.2670   22.2860 C.ar   30  HIS30       0.1154
     16  CE1      204.2480   -2.2070   21.5490 C.ar   30  HIS30       0.1986
     17  NE2      203.8700   -2.9500   22.5770 N.ar   30  HIS30      -0.2212
     18  N        208.7740   -2.8480   24.4060 N.3    32  MET32      -0.1230
     19  CA       208.4450   -1.9680   25.5170 C.3    32  MET32       0.1702
     20  C        209.6390   -1.8770   26.4610 C.2    32  MET32       0.2593
     21  O        210.4570   -2.7960   26.5460 O.2    32  MET32      -0.2718
     22  CB       207.2040   -2.4650   26.2680 C.3    32  MET32       0.0401
     23  CG       207.3760   -3.8280   26.9250 C.3    32  MET32       0.0596
     24  SD       207.6490   -3.7930   28.7070 S.3    32  MET32      -0.1393
     25  CE       206.0160   -3.4070   29.3220 C.3    32  MET32       0.0692
     26  N        209.7290   -0.7540   27.1620 N.am   33  THR33      -0.1939
     27  CA       210.8260   -0.5140   28.0800 C.3    33  THR33       0.2028
     28  C        210.4660   -1.0560   29.4620 C.2    33  THR33       0.2642
     29  O        209.3810   -0.8000   29.9830 O.2    33  THR33      -0.2714
     30  CB       211.1660    0.9850   28.1630 C.3    33  THR33       0.1808
     31  OG1      211.6900    1.4320   26.9080 O.3    33  THR33      -0.2208
     32  CG2      212.1810    1.2450   29.2640 C.3    33  THR33       0.0379
     33  N        211.3840   -1.8170   30.0430 N.am   34  ALA34      -0.1963
     34  CA       211.1540   -2.4430   31.3420 C.3    34  ALA34       0.1728
     35  C        212.3990   -2.3830   32.2140 C.2    34  ALA34       0.2616
     36  O        213.5050   -2.6290   31.7370 O.2    34  ALA34      -0.2715
     37  CB       210.7130   -3.8820   31.1620 C.3    34  ALA34       0.0334
     38  N        212.2110   -2.0420   33.4870 N.am   35  ASN35      -0.1958
     39  CA       213.2900   -2.0890   34.4710 C.3    35  ASN35       0.1819
     40  C        212.9840   -3.0940   35.5830 C.2    35  ASN35       0.2622
     41  O        213.7380   -3.2140   36.5500 O.2    35  ASN35      -0.2715
     42  CB       213.5510   -0.6920   35.0570 C.3    35  ASN35       0.1195
     43  CG       212.5300   -0.2840   36.1100 C.2    35  ASN35       0.2630
     44  OD1      211.3940   -0.7610   36.1200 O.2    35  ASN35      -0.2716
     45  ND2      212.9300    0.6290   36.9920 N.am   35  ASN35      -0.0877
     46  N        211.8760   -3.8160   35.4340 N.am   36  SER36      -0.1950
     47  CA       211.4850   -4.8310   36.4070 C.3    36  SER36       0.1924
     48  C        212.1790   -6.1630   36.1260 C.2    36  SER36       0.2314
     49  O        211.8710   -7.1780   36.7520 O.2    36  SER36      -0.2863
     50  CB       209.9690   -5.0310   36.3970 C.3    36  SER36       0.2116
     51  OG       209.5330   -5.5140   35.1380 O.3    36  SER36      -0.2180
     52  N        208.0220   -7.7660   35.1220 N.3    50  CYS50      -0.1221
     53  CA       206.6660   -7.4300   35.5410 C.3    50  CYS50       0.1808
     54  C        206.0390   -6.4810   34.5330 C.2    50  CYS50       0.2601
     55  O        206.5730   -5.4050   34.2670 O.2    50  CYS50      -0.2717
     56  CB       206.6640   -6.8050   36.9330 C.3    50  CYS50       0.0970
     57  SG       207.4560   -7.8310   38.1870 S.3    50  CYS50      -0.0800
     58  N        204.9030   -6.8870   33.9740 N.am   51  VAL51      -0.1965
     59  CA       204.2290   -6.1010   32.9500 C.3    51  VAL51       0.1727
     60  C        202.8030   -5.7530   33.3610 C.2    51  VAL51       0.2616
     61  O        202.0150   -6.6180   33.7460 O.2    51  VAL51      -0.2715
     62  CB       204.2130   -6.8440   31.5990 C.3    51  VAL51       0.0290
     63  CG1      203.6040   -5.9690   30.5100 C.3    51  VAL51       0.0023
     64  CG2      205.6230   -7.2640   31.2250 C.3    51  VAL51       0.0023
     65  N        202.5080   -4.4610   33.2820 N.am   52  GLU52      -0.1977
     66  CA       201.1830   -3.9060   33.5280 C.3    52  GLU52       0.1602
     67  C        200.0900   -4.6810   32.8000 C.2    52  GLU52       0.2287
     68  O        200.2500   -5.0320   31.6340 O.2    52  GLU52      -0.2864
     69  CB       201.1630   -2.4470   33.0770 C.3    52  GLU52       0.0415
     70  CG       200.3120   -1.5210   33.9040 C.3    52  GLU52       0.1163
     71  CD       200.1510   -0.1750   33.2340 C.2    52  GLU52       0.3649
     72  OE1      201.1470    0.3330   32.6770 O.co2  52  GLU52      -0.2457
     73  OE2      199.0300    0.3750   33.2570 O.co2  52  GLU52      -0.2457
     74  N        197.2040   -3.6800   31.7680 N.3    54  ASP54      -0.1225
     75  CA       196.6270   -2.8830   30.6910 C.3    54  ASP54       0.1805
     76  C        197.5950   -2.5840   29.5510 C.2    54  ASP54       0.2598
     77  O        197.2080   -1.9640   28.5580 O.2    54  ASP54      -0.2718
     78  CB       196.1270   -1.5490   31.2460 C.3    54  ASP54       0.1424
     79  CG       195.0860   -1.7170   32.3290 C.2    54  ASP54       0.3668
     80  OD1      194.4350   -2.7810   32.3720 O.co2  54  ASP54      -0.2456
     81  OD2      194.9240   -0.7840   33.1450 O.co2  54  ASP54      -0.2456
     82  N        198.8410   -3.0280   29.6760 N.am   55  ALA55      -0.1966
     83  CA       199.8290   -2.7590   28.6410 C.3    55  ALA55       0.1728
     84  C        199.7220   -3.7770   27.5190 C.2    55  ALA55       0.2616
     85  O        199.4080   -4.9410   27.7520 O.2    55  ALA55      -0.2715
     86  CB       201.2310   -2.7550   29.2380 C.3    55  ALA55       0.0334
     87  N        199.9990   -3.3250   26.3010 N.am   56  ALA56      -0.1963
     88  CA       199.8730   -4.1660   25.1210 C.3    56  ALA56       0.1728
     89  C        200.8200   -5.3630   25.1680 C.2    56  ALA56       0.2616
     90  O        200.4870   -6.4430   24.6740 O.2    56  ALA56      -0.2715
     91  CB       200.1180   -3.3410   23.8640 C.3    56  ALA56       0.0334
     92  N        202.0030   -5.1760   25.7440 N.am   57  MET57      -0.1977
     93  CA       202.9830   -6.2560   25.7940 C.3    57  MET57       0.1605
     94  C        202.4760   -7.4170   26.6470 C.2    57  MET57       0.2287
     95  O        202.8590   -8.5620   26.4290 O.2    57  MET57      -0.2864
     96  CB       204.3290   -5.7580   26.3310 C.3    57  MET57       0.0413
     97  CG       205.4240   -6.8150   26.2780 C.3    57  MET57       0.0598
     98  SD       205.7430   -7.4010   24.6010 S.3    57  MET57      -0.1393
     99  CE       206.8030   -6.1140   23.9620 C.3    57  MET57       0.0692
    100  N        215.2810    3.8040   25.5560 N.3    80  ALA80      -0.1231
    101  CA       214.4640    3.5890   26.7440 C.3    80  ALA80       0.1694
    102  C        213.2640    4.5190   26.7220 C.2    80  ALA80       0.2591
    103  O        212.1410    4.1040   27.0110 O.2    80  ALA80      -0.2718
    104  CB       215.2800    3.8070   28.0140 C.3    80  ALA80       0.0304
    105  N        213.5070    5.7800   26.3830 N.am   81  LEU81      -0.1980
    106  CA       212.4380    6.7720   26.3470 C.3    81  LEU81       0.1596
    107  C        211.4020    6.4320   25.2880 C.2    81  LEU81       0.2287
    108  O        210.2070    6.4160   25.5740 O.2    81  LEU81      -0.2864
    109  CB       212.9990    8.1690   26.0800 C.3    81  LEU81       0.0297
    110  CG       213.7140    8.8110   27.2690 C.3    81  LEU81       0.0022
    111  CD1      214.4450   10.0870   26.8540 C.3    81  LEU81       0.0001
    112  CD2      212.7360    9.0660   28.4050 C.3    81  LEU81       0.0001
    113  N        210.5230    3.5870   23.7840 N.3    83  TYR83      -0.1227
    114  CA       209.6740    2.4210   23.9890 C.3    83  TYR83       0.1736
    115  C        209.0060    2.4230   25.3510 C.2    83  TYR83       0.2595
    116  O        208.3680    1.4460   25.7360 O.2    83  TYR83      -0.2718
    117  CB       210.4760    1.1430   23.7580 C.3    83  TYR83       0.0548
    118  CG       210.8440    1.0330   22.3010 C.ar   83  TYR83      -0.0200
    119  CD1      209.8800    0.7010   21.3630 C.ar   83  TYR83      -0.0009
    120  CD2      212.1320    1.2780   21.8540 C.ar   83  TYR83      -0.0009
    121  CE1      210.1790    0.6210   20.0300 C.ar   83  TYR83       0.0417
    122  CE2      212.4430    1.1900   20.5080 C.ar   83  TYR83       0.0417
    123  CZ       211.4590    0.8580   19.6020 C.ar   83  TYR83       0.1957
    124  OH       211.7460    0.7680   18.2570 O.3    83  TYR83      -0.2866
    125  N        209.1580    3.5310   26.0690 N.am   84  ALA84      -0.1980
    126  CA       208.3430    3.8140   27.2430 C.3    84  ALA84       0.1597
    127  C        207.2020    4.7770   26.8900 C.2    84  ALA84       0.2287
    128  O        206.3300    5.0450   27.7170 O.2    84  ALA84      -0.2864
    129  CB       209.2010    4.3820   28.3460 C.3    84  ALA84       0.0319
    130  N        203.8710    5.6610   25.3690 N.3    86  ARG86      -0.1231
    131  CA       202.6090    5.0690   24.9190 C.3    86  ARG86       0.1694
    132  C        202.0770    5.6840   23.6340 C.2    86  ARG86       0.2592
    133  O        201.2530    5.0840   22.9480 O.2    86  ARG86      -0.2718
    134  CB       201.5600    5.2010   26.0230 C.3    86  ARG86       0.0321
    135  CG       201.1380    6.6360   26.3160 C.3    86  ARG86       0.0489
    136  CD       200.3410    6.7130   27.6060 C.3    86  ARG86       0.2205
    137  NE       201.1570    6.2390   28.7180 N.pl3  86  ARG86      -0.0865
    138  CZ       200.6880    5.8850   29.9080 C.cat  86  ARG86       0.5346
    139  NH1      199.3970    5.9910   30.1820 N.pl3  86  ARG86       0.1354
    140  NH2      201.5240    5.4450   30.8350 N.pl3  86  ARG86       0.1354
    141  N        202.5620    6.8750   23.3100 N.am   87  TRP87      -0.1962
    142  CA       202.1020    7.6090   22.1380 C.3    87  TRP87       0.1771
    143  C        202.9450    7.2710   20.9110 C.2    87  TRP87       0.2619
    144  O        202.7600    7.8500   19.8380 O.2    87  TRP87      -0.2715
    145  CB       202.1490    9.1100   22.4120 C.3    87  TRP87       0.0590
    146  CG       201.4340    9.5100   23.6600 C.ar   87  TRP87       0.0006
    147  CD1      202.0010    9.7890   24.8670 C.ar   87  TRP87       0.0946
    148  CD2      200.0230    9.7000   23.8260 C.ar   87  TRP87       0.0152
    149  NE1      201.0330   10.1330   25.7800 N.ar   87  TRP87      -0.2442
    150  CE2      199.8100   10.0870   25.1650 C.ar   87  TRP87       0.0810
    151  CE3      198.9200    9.5830   22.9720 C.ar   87  TRP87       0.0012
    152  CZ2      198.5410   10.3530   25.6730 C.ar   87  TRP87       0.0191
    153  CZ3      197.6540    9.8480   23.4810 C.ar   87  TRP87       0.0001
    154  CH2      197.4770   10.2280   24.8180 C.ar   87  TRP87       0.0015
    155  N        203.8700    6.3310   21.0710 N.am   88  ARG88      -0.1977
    156  CA       204.8580    6.0530   20.0370 C.3    88  ARG88       0.1597
    157  C        204.2480    5.3830   18.8070 C.2    88  ARG88       0.2287
    158  O        203.2230    4.7120   18.9070 O.2    88  ARG88      -0.2864
    159  CB       205.9790    5.1680   20.6020 C.3    88  ARG88       0.0334
    160  CG       205.5740    3.7280   20.9370 C.3    88  ARG88       0.0492
    161  CD       206.6790    3.0410   21.7290 C.3    88  ARG88       0.2205
    162  NE       206.3560    1.6890   22.1880 N.pl3  88  ARG88      -0.0865
    163  CZ       205.7950    1.4000   23.3600 C.cat  88  ARG88       0.5346
    164  NH1      205.4680    2.3620   24.2110 N.pl3  88  ARG88       0.1354
    165  NH2      205.5640    0.1350   23.6830 N.pl3  88  ARG88       0.1354
    166  N        203.6920    2.5020   16.3590 N.3    90  ARG90      -0.1245
    167  CA       203.7320    1.0730   16.6650 C.3    90  ARG90       0.1563
    168  C        203.8870    0.1840   15.4320 C.2    90  ARG90       0.2260
    169  O        203.6260   -1.0170   15.4910 O.2    90  ARG90      -0.2867
    170  CB       202.4710    0.6920   17.4480 C.3    90  ARG90       0.0307
    171  CG       202.4950    1.2480   18.8620 C.3    90  ARG90       0.0489
    172  CD       201.1890    1.1000   19.6170 C.3    90  ARG90       0.2205
    173  NE       201.2460    1.8970   20.8400 N.pl3  90  ARG90      -0.0865
    174  CZ       201.6380    1.4400   22.0280 C.cat  90  ARG90       0.5346
    175  NH1      202.0190    0.1740   22.1770 N.pl3  90  ARG90       0.1354
    176  NH2      201.6610    2.2580   23.0750 N.pl3  90  ARG90       0.1354
    177  N        199.8860   -5.7110   37.7920 N.3   131  HIS131     -0.1241
    178  CA       200.8910   -6.2840   36.8960 C.3   131  HIS131      0.1621
    179  C        200.7630   -7.7970   36.9000 C.2   131  HIS131      0.2264
    180  O        200.1000   -8.3690   37.7650 O.2   131  HIS131     -0.2867
    181  CB       202.3180   -5.9090   37.3160 C.3   131  HIS131      0.0745
    182  CG       202.7330   -4.5230   36.9320 C.ar  131  HIS131      0.0817
    183  ND1      202.1000   -3.3940   37.3990 N.ar  131  HIS131     -0.2268
    184  CD2      203.7560   -4.0890   36.1560 C.ar  131  HIS131      0.1154
    185  CE1      202.7000   -2.3220   36.9080 C.ar  131  HIS131      0.1986
    186  NE2      203.7050   -2.7180   36.1490 N.ar  131  HIS131     -0.2212
    187  N        218.4090    3.7470   36.0040 N.3   152  TYR152     -0.1241
    188  CA       217.2300    4.5270   36.3380 C.3   152  TYR152      0.1605
    189  C        217.0950    4.6160   37.8480 C.2   152  TYR152      0.2264
    190  O        216.8380    3.6150   38.5170 O.2   152  TYR152     -0.2867
    191  CB       215.9780    3.9020   35.7200 C.3   152  TYR152      0.0534
    192  CG       214.7390    4.7450   35.8710 C.ar  152  TYR152     -0.0201
    193  CD1      214.6330    5.9740   35.2370 C.ar  152  TYR152     -0.0009
    194  CD2      213.6670    4.3060   36.6380 C.ar  152  TYR152     -0.0009
    195  CE1      213.4940    6.7510   35.3700 C.ar  152  TYR152      0.0417
    196  CE2      212.5260    5.0710   36.7740 C.ar  152  TYR152      0.0417
    197  CZ       212.4460    6.2920   36.1390 C.ar  152  TYR152      0.1957
    198  OH       211.3160    7.0620   36.2750 O.3   152  TYR152     -0.2866
    199  N        217.3220    9.2360   34.6120 N.3   157  PHE157     -0.1241
    200  CA       218.2190    8.3650   33.8770 C.3   157  PHE157      0.1605
    201  C        219.6460    8.7980   34.1910 C.2   157  PHE157      0.2264
    202  O        219.9460    9.9930   34.2530 O.2   157  PHE157     -0.2867
    203  CB       217.9310    8.4040   32.3730 C.3   157  PHE157      0.0534
    204  CG       216.6630    7.6990   31.9910 C.ar  157  PHE157     -0.0203
    205  CD1      215.4860    8.4040   31.8080 C.ar  157  PHE157     -0.0042
    206  CD2      216.6460    6.3240   31.8400 C.ar  157  PHE157     -0.0042
    207  CE1      214.3190    7.7510   31.4700 C.ar  157  PHE157     -0.0003
    208  CE2      215.4830    5.6640   31.5010 C.ar  157  PHE157     -0.0003
    209  CZ       214.3160    6.3790   31.3150 C.ar  157  PHE157     -0.0000
@<TRIPOS>BOND
     1   168   169    2
     2   168   167    1
     3   166   167    1
     4   167   170    1
     5   170   171    1
     6   124   123    1
     7     8     9    1
     8   157   158    2
     9   157   156    1
    10   171   172    1
    11     9    12    1
    12     9    10    1
    13   123   121   ar
    14   123   122   ar
    15   172   173    1
    16   144   143    2
    17   121   119   ar
    18   156   159    1
    19   156   155    1
    20    12    13    1
    21    10    11    2
    22   122   120   ar
    23   159   160    1
    24    14    13   ar
    25    14    16   ar
    26   173   174    2
    27   143   155   am
    28   143   142    1
    29   160   161    1
    30    13    15   ar
    31   119   118   ar
    32    16    17   ar
    33   161   162    1
    34   120   118   ar
    35   174   175    1
    36   174   176    1
    37   142   145    1
    38   142   141    1
    39   162   163    2
    40    15    17   ar
    41   118   117    1
    42   145   146    1
    43   133   132    2
    44   151   153   ar
    45   151   148   ar
    46   141   132   am
    47   163   165    1
    48   163   164    1
    49   153   154   ar
    50   132   131    1
    51   146   148   ar
    52   146   147   ar
    53   117   114    1
    54   113   114    1
    55   148   150   ar
    56    91    88    1
    57    99    98    1
    58   114   115    1
    59    18    19    1
    60    98    97    1
    61    90    89    2
    62   154   152   ar
    63   147   149   ar
    64   131   130    1
    65   131   134    1
    66    88    89    1
    67    88    87    1
    68   150   152   ar
    69   150   149   ar
    70    89    92   am
    71   107   108    2
    72   107   106    1
    73   115   116    2
    74   115   125   am
    75    19    22    1
    76    19    20    1
    77   100   101    1
    78    92    93    1
    79    93    96    1
    80    93    94    1
    81   134   135    1
    82   125   126    1
    83   109   106    1
    84   109   110    1
    85    22    23    1
    86    97    96    1
    87    87    84   am
    88   135   136    1
    89   106   105    1
    90   105   102   am
    91    95    94    2
    92    20    21    2
    93    20    26   am
    94   102   101    1
    95   102   103    2
    96   101   104    1
    97   111   110    1
    98   127   126    1
    99   127   128    2
   100    31    30    1
   101    23    24    1
   102    26    27    1
   103   126   129    1
   104   110   112    1
   105    84    85    2
   106    84    83    1
   107   136   137    1
   108    27    30    1
   109    27    28    1
   110    30    32    1
   111    77    76    2
   112    83    86    1
   113    83    82    1
   114    24    25    1
   115   137   138    2
   116    28    29    2
   117    28    33   am
   118    76    82   am
   119    76    75    1
   120   138   139    1
   121   138   140    1
   122    33    34    1
   123     4     3    2
   124    63    62    1
   125    75    78    1
   126    75    74    1
   127     6     5    1
   128     3     2    1
   129    37    34    1
   130    64    62    1
   131    78    79    1
   132   209   207   ar
   133   209   208   ar
   134    34    35    1
   135     5     2    1
   136     5     7    1
   137   207   205   ar
   138   208   206   ar
   139    62    59    1
   140    68    67    2
   141    36    35    2
   142   205   204   ar
   143   206   204   ar
   144     2     1    1
   145   204   203    1
   146    35    38   am
   147    79    80   ar
   148    79    81   ar
   149   203   200    1
   150    72    71   ar
   151    67    66    1
   152    59    60    1
   153    59    58    1
   154    69    66    1
   155    69    70    1
   156    71    73   ar
   157    71    70    1
   158    65    60   am
   159    65    66    1
   160    60    61    2
   161    38    39    1
   162   200   201    1
   163   200   199    1
   164    58    54   am
   165   201   202    2
   166    55    54    2
   167    39    42    1
   168    39    40    1
   169    54    53    1
   170    42    43    1
   171    52    53    1
   172    51    50    1
   173   193   195   ar
   174   193   192   ar
   175   195   197   ar
   176    46    40   am
   177    46    47    1
   178    53    56    1
   179    40    41    2
   180   191   192    1
   181   191   188    1
   182   192   194   ar
   183   187   188    1
   184    43    44    2
   185    43    45   am
   186    48    47    1
   187    48    49    2
   188   197   198    1
   189   197   196   ar
   190   186   184   ar
   191   186   185   ar
   192   184   182   ar
   193   188   189    1
   194    50    47    1
   195   194   196   ar
   196   178   179    1
   197   178   181    1
   198   178   177    1
   199   179   180    2
   200   185   183   ar
   201   182   181    1
   202   182   183   ar
   203    56    57    1
   204   189   190    2
