@<TRIPOS>MOLECULE
tmp/5chqA01.pdb
 98 97 0 0 0
SMALL
GASTEIGER

@<TRIPOS>ATOM
      1  N         -5.3610  -37.7640  -13.4870 N.3    21  PHE21      -0.1241
      2  CA        -6.2330  -37.4980  -14.6230 C.3    21  PHE21       0.1605
      3  C         -6.9070  -38.7930  -15.0780 C.2    21  PHE21       0.2264
      4  O         -8.0800  -38.8050  -15.4390 O.2    21  PHE21      -0.2867
      5  CB        -5.4450  -36.8700  -15.7690 C.3    21  PHE21       0.0534
      6  CG        -6.2920  -36.4950  -16.9620 C.ar   21  PHE21      -0.0203
      7  CD1       -7.4040  -35.6830  -16.8100 C.ar   21  PHE21      -0.0042
      8  CD2       -5.9580  -36.9360  -18.2360 C.ar   21  PHE21      -0.0042
      9  CE1       -8.1810  -35.3320  -17.8930 C.ar   21  PHE21      -0.0003
     10  CE2       -6.7250  -36.5860  -19.3400 C.ar   21  PHE21      -0.0003
     11  CZ        -7.8400  -35.7840  -19.1760 C.ar   21  PHE21      -0.0000
     12  N         -9.5860  -39.5040  -12.7250 N.3    24  PHE24      -0.1241
     13  CA       -10.6810  -38.6120  -13.0910 C.3    24  PHE24       0.1605
     14  C        -11.5000  -39.1630  -14.2610 C.2    24  PHE24       0.2264
     15  O        -12.7280  -39.2900  -14.1680 O.2    24  PHE24      -0.2867
     16  CB       -10.1380  -37.2140  -13.4340 C.3    24  PHE24       0.0534
     17  CG       -11.1370  -36.3160  -14.1080 C.ar   24  PHE24      -0.0203
     18  CD1      -12.2670  -35.8790  -13.4370 C.ar   24  PHE24      -0.0042
     19  CD2      -10.9290  -35.8840  -15.4100 C.ar   24  PHE24      -0.0042
     20  CE1      -13.1810  -35.0340  -14.0610 C.ar   24  PHE24      -0.0003
     21  CE2      -11.8400  -35.0370  -16.0450 C.ar   24  PHE24      -0.0003
     22  CZ       -12.9660  -34.6130  -15.3700 C.ar   24  PHE24      -0.0000
     23  N        -12.8180  -34.5270  -24.3210 N.3    35  PHE35      -0.1241
     24  CA       -11.5680  -35.1550  -24.7640 C.3    35  PHE35       0.1605
     25  C        -11.7910  -36.2250  -25.8460 C.2    35  PHE35       0.2264
     26  O        -11.5620  -37.4210  -25.6290 O.2    35  PHE35      -0.2867
     27  CB       -10.8340  -35.7730  -23.5730 C.3    35  PHE35       0.0534
     28  CG       -10.5610  -34.8040  -22.4560 C.ar   35  PHE35      -0.0203
     29  CD1      -11.3920  -34.7520  -21.3460 C.ar   35  PHE35      -0.0042
     30  CD2       -9.4700  -33.9510  -22.5120 C.ar   35  PHE35      -0.0042
     31  CE1      -11.1390  -33.8710  -20.2970 C.ar   35  PHE35      -0.0003
     32  CE2       -9.2160  -33.0620  -21.4730 C.ar   35  PHE35      -0.0003
     33  CZ       -10.0570  -33.0240  -20.3640 C.ar   35  PHE35      -0.0000
     34  N         -9.2500  -39.0500  -26.5640 N.3    38  TYR38      -0.1241
     35  CA        -8.8930  -40.0470  -25.5590 C.3    38  TYR38       0.1605
     36  C         -9.9290  -41.1780  -25.5170 C.2    38  TYR38       0.2264
     37  O         -9.7540  -42.1800  -24.8210 O.2    38  TYR38      -0.2867
     38  CB        -8.7380  -39.3910  -24.1810 C.3    38  TYR38       0.0534
     39  CG        -7.6230  -38.3650  -24.0920 C.ar   38  TYR38      -0.0201
     40  CD1       -6.5520  -38.3750  -24.9780 C.ar   38  TYR38      -0.0009
     41  CD2       -7.6420  -37.3820  -23.1040 C.ar   38  TYR38      -0.0009
     42  CE1       -5.5260  -37.4170  -24.8820 C.ar   38  TYR38       0.0417
     43  CE2       -6.6320  -36.4320  -23.0030 C.ar   38  TYR38       0.0417
     44  CZ        -5.5770  -36.4510  -23.8890 C.ar   38  TYR38       0.1957
     45  OH        -4.5830  -35.4950  -23.7660 O.3    38  TYR38      -0.2866
     46  N          0.3180  -32.9790  -22.2300 N.3    55  HIS55      -0.1226
     47  CA        -0.7830  -32.1250  -21.8170 C.3    55  HIS55       0.1752
     48  C         -1.1460  -32.3140  -20.3560 C.2    55  HIS55       0.2596
     49  O         -1.4020  -31.3400  -19.6510 O.2    55  HIS55      -0.2718
     50  CB        -2.0060  -32.3750  -22.6890 C.3    55  HIS55       0.0759
     51  CG        -1.9000  -31.7570  -24.0490 C.ar   55  HIS55       0.0818
     52  ND1       -2.8940  -30.9730  -24.5950 N.ar   55  HIS55      -0.2268
     53  CD2       -0.8960  -31.7770  -24.9600 C.ar   55  HIS55       0.1154
     54  CE1       -2.5170  -30.5540  -25.7900 C.ar   55  HIS55       0.1986
     55  NE2       -1.3080  -31.0280  -26.0350 N.ar   55  HIS55      -0.2212
     56  N         -1.1840  -33.5630  -19.8970 N.am   56  THR56      -0.1953
     57  CA        -1.5640  -33.8300  -18.5120 C.3    56  THR56       0.1897
     58  C         -0.5630  -33.2010  -17.5520 C.2    56  THR56       0.2313
     59  O         -0.9460  -32.6540  -16.5150 O.2    56  THR56      -0.2863
     60  CB        -1.6790  -35.3420  -18.2130 C.3    56  THR56       0.1794
     61  OG1       -0.4520  -36.0030  -18.5450 O.3    56  THR56      -0.2208
     62  CG2       -2.8250  -35.9590  -19.0010 C.3    56  THR56       0.0378
     63  N         -0.9950  -29.3590  -17.6150 N.3    59  VAL59      -0.1231
     64  CA        -2.1550  -29.0740  -16.7860 C.3    59  VAL59       0.1692
     65  C         -1.7660  -29.0360  -15.3140 C.2    59  VAL59       0.2592
     66  O         -2.0700  -28.0790  -14.6100 O.2    59  VAL59      -0.2718
     67  CB        -3.2690  -30.1250  -16.9660 C.3    59  VAL59       0.0266
     68  CG1       -4.2440  -30.0610  -15.7810 C.3    59  VAL59       0.0020
     69  CG2       -3.9920  -29.9210  -18.2900 C.3    59  VAL59       0.0020
     70  N         -1.0870  -30.0840  -14.8510 N.am   60  PHE60      -0.1976
     71  CA        -0.8050  -30.2100  -13.4300 C.3    60  PHE60       0.1639
     72  C          0.3240  -29.2800  -13.0160 C.2    60  PHE60       0.2290
     73  O          0.3710  -28.8640  -11.8610 O.2    60  PHE60      -0.2864
     74  CB        -0.5250  -31.6740  -13.0680 C.3    60  PHE60       0.0560
     75  CG        -1.7830  -32.4510  -12.8210 C.ar   60  PHE60      -0.0200
     76  CD1       -2.1790  -32.7740  -11.5340 C.ar   60  PHE60      -0.0042
     77  CD2       -2.6130  -32.7780  -13.8720 C.ar   60  PHE60      -0.0042
     78  CE1       -3.3680  -33.4510  -11.3100 C.ar   60  PHE60      -0.0003
     79  CE2       -3.8030  -33.4540  -13.6580 C.ar   60  PHE60      -0.0003
     80  CZ        -4.1790  -33.7910  -12.3700 C.ar   60  PHE60      -0.0000
     81  N        -10.4690  -23.5890  -22.3310 N.3    89  HIS89      -0.1241
     82  CA       -11.5120  -23.8000  -21.3400 C.3    89  HIS89       0.1621
     83  C        -12.8480  -23.2230  -21.7700 C.2    89  HIS89       0.2264
     84  O        -13.7730  -23.1170  -20.9650 O.2    89  HIS89      -0.2867
     85  CB       -11.0890  -23.1950  -19.9970 C.3    89  HIS89       0.0745
     86  CG       -10.0230  -23.9820  -19.3040 C.ar   89  HIS89       0.0817
     87  ND1       -9.3740  -23.5300  -18.1730 N.ar   89  HIS89      -0.2268
     88  CD2       -9.4960  -25.1980  -19.5800 C.ar   89  HIS89       0.1154
     89  CE1       -8.4940  -24.4350  -17.7830 C.ar   89  HIS89       0.1986
     90  NE2       -8.5530  -25.4540  -18.6180 N.ar   89  HIS89      -0.2212
     91  N        -12.9080  -32.9930  -11.1110 N.3   100  LEU100     -0.1245
     92  CA       -11.4730  -33.2350  -11.1840 C.3   100  LEU100      0.1561
     93  C        -10.8930  -33.3260   -9.7720 C.2   100  LEU100      0.2260
     94  O        -10.1100  -34.2290   -9.4510 O.2   100  LEU100     -0.2867
     95  CB       -10.7640  -32.1300  -11.9840 C.3   100  LEU100      0.0270
     96  CG        -9.2370  -32.2970  -11.9580 C.3   100  LEU100      0.0019
     97  CD1       -8.8280  -33.6650  -12.5190 C.3   100  LEU100      0.0001
     98  CD2       -8.5270  -31.1620  -12.6980 C.3   100  LEU100      0.0001
@<TRIPOS>BOND
     1    34    35    1
     2    55    54   ar
     3    55    53   ar
     4    25    26    2
     5    25    24    1
     6    54    52   ar
     7    35    36    1
     8    35    38    1
     9    36    37    2
    10    40    42   ar
    11    40    39   ar
    12    53    51   ar
    13    42    44   ar
    14    24    23    1
    15    24    27    1
    16    52    51   ar
    17    38    39    1
    18    39    41   ar
    19    51    50    1
    20    44    45    1
    21    44    43   ar
    22    27    28    1
    23    41    43   ar
    24    50    47    1
    25    30    28   ar
    26    30    32   ar
    27    28    29   ar
    28    81    82    1
    29    46    47    1
    30    47    48    1
    31    83    82    1
    32    83    84    2
    33    32    33   ar
    34    29    31   ar
    35    82    85    1
    36    33    31   ar
    37    48    56   am
    38    48    49    2
    39    85    86    1
    40    56    57    1
    41    88    86   ar
    42    88    90   ar
    43    10    11   ar
    44    10     8   ar
    45    86    87   ar
    46    11     9   ar
    47    62    60    1
    48    90    89   ar
    49    61    60    1
    50    57    60    1
    51    57    58    1
    52    69    67    1
    53     8     6   ar
    54    87    89   ar
    55     9     7   ar
    56    63    64    1
    57    58    59    2
    58    67    64    1
    59    67    68    1
    60     6     7   ar
    61     6     5    1
    62    64    65    1
    63    21    19   ar
    64    21    22   ar
    65     5     2    1
    66     4     3    2
    67    19    17   ar
    68    22    20   ar
    69    65    70   am
    70    65    66    2
    71     3     2    1
    72    70    71    1
    73     2     1    1
    74    14    15    2
    75    14    13    1
    76    17    18   ar
    77    17    16    1
    78    20    18   ar
    79    77    79   ar
    80    77    75   ar
    81    79    80   ar
    82    16    13    1
    83    71    74    1
    84    71    72    1
    85    13    12    1
    86    74    75    1
    87    72    73    2
    88    75    76   ar
    89    98    96    1
    90    97    96    1
    91    80    78   ar
    92    95    96    1
    93    95    92    1
    94    76    78   ar
    95    92    91    1
    96    92    93    1
    97    93    94    2
