@<TRIPOS>MOLECULE
tmp/5ci5A00.pdb
 133 129 0 0 0
SMALL
GASTEIGER

@<TRIPOS>ATOM
      1  N         67.4920   55.5390   81.4030 N.3    11  GLN11      -0.1245
      2  CA        67.3860   54.4390   82.3420 C.3    11  GLN11       0.1566
      3  C         66.8020   53.1600   81.7190 C.2    11  GLN11       0.2260
      4  O         67.1510   52.0760   82.1550 O.2    11  GLN11      -0.2867
      5  CB        66.5510   54.8720   83.5430 C.3    11  GLN11       0.0367
      6  CG        67.1060   56.0400   84.2960 C.3    11  GLN11       0.0905
      7  CD        66.5470   57.3790   83.8690 C.2    11  GLN11       0.2608
      8  OE1       66.1090   57.5930   82.7200 O.2    11  GLN11      -0.2717
      9  NE2       66.5640   58.3210   84.8060 N.am   11  GLN11      -0.0878
     10  N         71.9770   57.2290   81.1170 N.3    41  PHE41      -0.1241
     11  CA        71.3970   58.5520   81.0510 C.3    41  PHE41       0.1605
     12  C         72.3790   59.6820   81.2120 C.2    41  PHE41       0.2264
     13  O         72.3040   60.6570   80.4930 O.2    41  PHE41      -0.2867
     14  CB        70.3100   58.7390   82.1240 C.3    41  PHE41       0.0534
     15  CG        69.6740   60.1100   82.1040 C.ar   41  PHE41      -0.0203
     16  CD1       68.8660   60.4950   81.0460 C.ar   41  PHE41      -0.0042
     17  CD2       69.9080   61.0090   83.1130 C.ar   41  PHE41      -0.0042
     18  CE1       68.2890   61.7480   81.0040 C.ar   41  PHE41      -0.0003
     19  CE2       69.3300   62.2800   83.0810 C.ar   41  PHE41      -0.0003
     20  CZ        68.5260   62.6500   82.0260 C.ar   41  PHE41      -0.0000
     21  N         65.1780   62.7290   74.7330 N.3    64  ASP64      -0.1239
     22  CA        64.3680   63.0970   75.9110 C.3    64  ASP64       0.1674
     23  C         63.2150   64.0360   75.5260 C.2    64  ASP64       0.2266
     24  O         63.3930   65.0030   74.8060 O.2    64  ASP64      -0.2867
     25  CB        65.3010   63.7280   76.9520 C.3    64  ASP64       0.1410
     26  CG        64.7540   63.7000   78.3420 C.2    64  ASP64       0.3668
     27  OD1       63.5280   63.9110   78.5390 O.co2  64  ASP64      -0.2456
     28  OD2       65.5750   63.4690   79.2640 O.co2  64  ASP64      -0.2456
     29  N         58.0050   56.1490   75.2210 N.3   113  TYR113     -0.1241
     30  CA        57.4610   55.9890   76.5680 C.3   113  TYR113      0.1605
     31  C         57.3820   57.3290   77.2470 C.2   113  TYR113      0.2264
     32  O         58.0340   58.2890   76.8490 O.2   113  TYR113     -0.2867
     33  CB        58.2700   54.9910   77.4140 C.3   113  TYR113      0.0534
     34  CG        59.4450   55.4750   78.2610 C.ar  113  TYR113     -0.0201
     35  CD1       59.2360   56.1800   79.4380 C.ar  113  TYR113     -0.0009
     36  CD2       60.7500   55.1240   77.9380 C.ar  113  TYR113     -0.0009
     37  CE1       60.3080   56.5520   80.2480 C.ar  113  TYR113      0.0417
     38  CE2       61.8270   55.4780   78.7440 C.ar  113  TYR113      0.0417
     39  CZ        61.5930   56.1850   79.8980 C.ar  113  TYR113      0.1957
     40  OH        62.6990   56.4970   80.6710 O.3   113  TYR113     -0.2866
     41  N         56.0530   59.3170   81.2790 N.3   115  ASP115     -0.1239
     42  CA        56.0090   59.2190   82.7200 C.3   115  ASP115      0.1674
     43  C         55.5780   60.5550   83.3050 C.2   115  ASP115      0.2266
     44  O         55.4670   61.5590   82.5940 O.2   115  ASP115     -0.2867
     45  CB        57.3870   58.8070   83.2870 C.3   115  ASP115      0.1410
     46  CG        58.5020   59.8450   83.0010 C.2   115  ASP115      0.3668
     47  OD1       58.3000   61.0310   83.3260 O.co2 115  ASP115     -0.2456
     48  OD2       59.5800   59.4660   82.4470 O.co2 115  ASP115     -0.2456
     49  N         56.3900   62.5630   87.3610 N.3   117  ARG117     -0.1245
     50  CA        57.1810   62.3750   88.5740 C.3   117  ARG117      0.1563
     51  C         56.3560   62.4970   89.8270 C.2   117  ARG117      0.2260
     52  O         55.4560   63.3430   89.9510 O.2   117  ARG117     -0.2867
     53  CB        58.3610   63.3480   88.5980 C.3   117  ARG117      0.0307
     54  CG        59.6190   62.7350   88.0110 C.3   117  ARG117      0.0489
     55  CD        60.7550   63.7040   87.7470 C.3   117  ARG117      0.2205
     56  NE        61.9940   62.9520   87.5180 N.pl3 117  ARG117     -0.0865
     57  CZ        62.3370   62.3720   86.3720 C.cat 117  ARG117      0.5346
     58  NH1       61.5560   62.4920   85.3050 N.pl3 117  ARG117      0.1354
     59  NH2       63.4800   61.6840   86.2870 N.pl3 117  ARG117      0.1354
     60  N         70.2510   66.1830   84.8800 N.3   167  GLU167     -0.1231
     61  CA        68.8920   66.6620   84.7350 C.3   167  GLU167      0.1699
     62  C         68.0490   66.3660   85.9690 C.2   167  GLU167      0.2592
     63  O         67.1100   67.0930   86.2240 O.2   167  GLU167     -0.2718
     64  CB        68.2590   66.0200   83.4970 C.3   167  GLU167      0.0402
     65  CG        66.8680   66.4830   83.1620 C.3   167  GLU167      0.1161
     66  CD        66.7740   67.9060   82.6740 C.2   167  GLU167      0.3649
     67  OE1       67.8170   68.5540   82.4550 O.co2 167  GLU167     -0.2457
     68  OE2       65.6420   68.3800   82.5210 O.co2 167  GLU167     -0.2457
     69  N         68.3680   65.2970   86.7070 N.am  168  HIS168     -0.1976
     70  CA        67.5890   64.9440   87.9000 C.3   168  HIS168      0.1656
     71  C         67.5110   66.1360   88.8650 C.2   168  HIS168      0.2291
     72  O         66.5080   66.3540   89.5500 O.2   168  HIS168     -0.2864
     73  CB        68.1800   63.7600   88.6880 C.3   168  HIS168      0.0771
     74  CG        68.6160   62.5860   87.8680 C.ar  168  HIS168      0.0820
     75  ND1       69.8430   62.5340   87.2410 N.ar  168  HIS168     -0.2267
     76  CD2       68.0340   61.3810   87.6520 C.ar  168  HIS168      0.1154
     77  CE1       69.9820   61.3610   86.6480 C.ar  168  HIS168      0.1986
     78  NE2       68.8930   60.6440   86.8760 N.ar  168  HIS168     -0.2212
     79  N         65.0530   68.6520   87.6430 N.3   171  LEU171     -0.1245
     80  CA        63.7180   68.1190   87.8380 C.3   171  LEU171      0.1561
     81  C         63.3140   68.1800   89.2930 C.2   171  LEU171      0.2260
     82  O         62.1590   68.5000   89.6050 O.2   171  LEU171     -0.2867
     83  CB        63.6360   66.6810   87.3000 C.3   171  LEU171      0.0270
     84  CG        63.7050   66.5470   85.7780 C.3   171  LEU171      0.0019
     85  CD1       64.0840   65.1370   85.3950 C.3   171  LEU171      0.0001
     86  CD2       62.3920   66.9510   85.1460 C.3   171  LEU171      0.0001
     87  N         58.9410   54.4860   85.2510 N.3   239  TRP239     -0.1241
     88  CA        60.1840   53.8430   84.7880 C.3   239  TRP239      0.1605
     89  C         60.9180   53.1380   85.9320 C.2   239  TRP239      0.2264
     90  O         61.6940   52.2030   85.7040 O.2   239  TRP239     -0.2867
     91  CB        61.1210   54.8630   84.1240 C.3   239  TRP239      0.0550
     92  CG        61.7440   55.7930   85.1020 C.ar  239  TRP239      0.0003
     93  CD1       62.9770   55.6720   85.6690 C.ar  239  TRP239      0.0946
     94  CD2       61.1710   56.9850   85.6420 C.ar  239  TRP239      0.0152
     95  NE1       63.2040   56.7040   86.5440 N.ar  239  TRP239     -0.2442
     96  CE2       62.1070   57.5280   86.5520 C.ar  239  TRP239      0.0810
     97  CE3       59.9530   57.6480   85.4520 C.ar  239  TRP239      0.0012
     98  CZ2       61.8540   58.6910   87.2680 C.ar  239  TRP239      0.0191
     99  CZ3       59.7180   58.8090   86.1470 C.ar  239  TRP239      0.0001
    100  CH2       60.6650   59.3250   87.0420 C.ar  239  TRP239      0.0015
    101  N         57.6850   63.6490   81.7260 N.3   271  GLY271     -0.1210
    102  CA        58.8990   63.1530   81.1070 C.3   271  GLY271      0.1956
    103  C         58.6740   62.0000   80.1460 C.2   271  GLY271      0.2612
    104  O         57.5440   61.6000   79.8530 O.2   271  GLY271     -0.2717
    105  N         59.7910   61.4740   79.6360 N.am  272  GLY272     -0.1942
    106  CA        59.7600   60.3580   78.7150 C.3   272  GLY272      0.2014
    107  C         60.7940   60.4990   77.6110 C.2   272  GLY272      0.2638
    108  O         61.6920   61.3680   77.6830 O.2   272  GLY272     -0.2714
    109  N         60.6590   59.6480   76.5910 N.am  273  TRP273     -0.1973
    110  CA        61.5920   59.6050   75.4640 C.3   273  TRP273      0.1640
    111  C         60.8360   59.4510   74.1530 C.2   273  TRP273      0.2290
    112  O         59.8370   58.7400   74.0960 O.2   273  TRP273     -0.2864
    113  CB        62.5950   58.4600   75.6160 C.3   273  TRP273      0.0576
    114  CG        63.4510   58.6870   76.8020 C.ar  273  TRP273      0.0006
    115  CD1       63.1080   58.4580   78.0980 C.ar  273  TRP273      0.0946
    116  CD2       64.7540   59.2810   76.8280 C.ar  273  TRP273      0.0152
    117  NE1       64.1130   58.8730   78.9340 N.ar  273  TRP273     -0.2442
    118  CE2       65.1350   59.3770   78.1740 C.ar  273  TRP273      0.0810
    119  CE3       65.6290   59.7510   75.8390 C.ar  273  TRP273      0.0012
    120  CZ2       66.3710   59.8910   78.5670 C.ar  273  TRP273      0.0191
    121  CZ3       66.8460   60.2680   76.2330 C.ar  273  TRP273      0.0001
    122  CH2       67.1950   60.3550   77.5870 C.ar  273  TRP273      0.0015
    123  N         58.6830   70.8700   81.0250 N.3   339  ARG339     -0.1245
    124  CA        59.8530   71.6850   80.7090 C.3   339  ARG339      0.1563
    125  C         59.5460   72.4400   79.4170 C.2   339  ARG339      0.2260
    126  O         58.8590   71.9300   78.5290 O.2   339  ARG339     -0.2867
    127  CB        61.0960   70.8070   80.5570 C.3   339  ARG339      0.0307
    128  CG        61.6060   70.2810   81.8880 C.3   339  ARG339      0.0489
    129  CD        62.5020   69.0300   81.7460 C.3   339  ARG339      0.2205
    130  NE        61.7340   67.8140   81.5840 N.pl3 339  ARG339     -0.0865
    131  CZ        62.2820   66.6030   81.5400 C.cat 339  ARG339      0.5346
    132  NH1       63.5940   66.4530   81.6440 N.pl3 339  ARG339      0.1354
    133  NH2       61.5140   65.5500   81.3980 N.pl3 339  ARG339      0.1354
@<TRIPOS>BOND
     1   112   111    2
     2   111   110    1
     3    21    22    1
     4    24    23    2
     5    29    30    1
     6   110   113    1
     7   110   109    1
     8    23    22    1
     9   113   114    1
    10   119   121   ar
    11   119   116   ar
    12    22    25    1
    13   121   122   ar
    14    30    31    1
    15    30    33    1
    16   109   107   am
    17   114   116   ar
    18   114   115   ar
    19   116   118   ar
    20    32    31    2
    21    25    26    1
    22    33    34    1
    23   122   120   ar
    24   107   108    2
    25   107   106    1
    26    36    34   ar
    27    36    38   ar
    28   115   117   ar
    29   118   120   ar
    30   118   117   ar
    31    34    35   ar
    32    26    27   ar
    33    26    28   ar
    34   126   125    2
    35   106   105    1
    36    38    39   ar
    37   125   124    1
    38    35    37   ar
    39   105   103   am
    40   104   103    2
    41    39    37   ar
    42    39    40    1
    43   103   102    1
    44    13    12    2
    45   127   124    1
    46   127   128    1
    47   124   123    1
    48    18    16   ar
    49    18    20   ar
    50    16    15   ar
    51    11    10    1
    52    11    12    1
    53    11    14    1
    54   102   101    1
    55    41    42    1
    56   133   131    1
    57     1     2    1
    58   131   130    2
    59   131   132    1
    60   130   129    1
    61     3     4    2
    62     3     2    1
    63   129   128    1
    64    20    19   ar
    65    15    14    1
    66    15    17   ar
    67     2     5    1
    68    48    46   ar
    69    67    66   ar
    70    68    66   ar
    71    44    43    2
    72    66    65    1
    73     8     7    2
    74    42    45    1
    75    42    43    1
    76    46    45    1
    77    46    47   ar
    78    19    17   ar
    79    65    64    1
    80    64    61    1
    81     5     6    1
    82     7     6    1
    83     7     9   am
    84    91    88    1
    85    91    92    1
    86    61    60    1
    87    61    62    1
    88    88    87    1
    89    88    89    1
    90    92    94   ar
    91    92    93   ar
    92    86    84    1
    93    58    57    1
    94    85    84    1
    95    97    94   ar
    96    97    99   ar
    97    94    96   ar
    98    93    95   ar
    99    90    89    2
   100    84    83    1
   101    62    63    2
   102    62    69   am
   103    99   100   ar
   104    59    57    1
   105    57    56    2
   106    95    96   ar
   107    96    98   ar
   108    77    78   ar
   109    77    75   ar
   110    69    70    1
   111    78    76   ar
   112   100    98   ar
   113    75    74   ar
   114    83    80    1
   115    49    50    1
   116    56    55    1
   117    79    80    1
   118    76    74   ar
   119    55    54    1
   120    80    81    1
   121    74    73    1
   122    70    73    1
   123    70    71    1
   124    54    53    1
   125    50    53    1
   126    50    51    1
   127    71    72    2
   128    81    82    2
   129    51    52    2
