@<TRIPOS>MOLECULE
tmp/5ci5B01.pdb
 86 84 0 0 0
SMALL
GASTEIGER

@<TRIPOS>ATOM
      1  N         13.3630   58.7460   60.2760 N.3    94  TRP94      -0.1228
      2  CA        12.9010   59.7410   61.2560 C.3    94  TRP94       0.1722
      3  C         13.0760   61.1520   60.6750 C.2    94  TRP94       0.2437
      4  O         14.1750   61.5080   60.2430 O.2    94  TRP94      -0.2733
      5  CB        13.6600   59.6230   62.5720 C.3    94  TRP94       0.0563
      6  CG        13.4640   58.3240   63.3210 C.ar   94  TRP94       0.0003
      7  CD1       14.2550   57.1970   63.2590 C.ar   94  TRP94       0.0946
      8  CD2       12.4300   58.0270   64.2500 C.ar   94  TRP94       0.0152
      9  NE1       13.7580   56.2300   64.0840 N.ar   94  TRP94      -0.2442
     10  CE2       12.6340   56.7100   64.6980 C.ar   94  TRP94       0.0810
     11  CE3       11.3360   58.7480   64.7430 C.ar   94  TRP94       0.0012
     12  CZ2       11.8050   56.1100   65.6370 C.ar   94  TRP94       0.0191
     13  CZ3       10.5070   58.1420   65.6660 C.ar   94  TRP94       0.0001
     14  CH2       10.7550   56.8410   66.1110 C.ar   94  TRP94       0.0015
     15  N         11.9990   61.9620   60.6680 N.am   95  PRO95      -0.2718
     16  CA        12.0740   63.1910   59.8680 C.3    95  PRO95       0.1535
     17  C         13.0040   64.2270   60.4490 C.2    95  PRO95       0.2598
     18  O         13.4750   65.0760   59.7000 O.2    95  PRO95      -0.2715
     19  CB        10.6210   63.7020   59.8490 C.3    95  PRO95       0.0310
     20  CG         9.9210   62.9800   60.9750 C.3    95  PRO95       0.0237
     21  CD        10.6150   61.6590   61.0860 C.3    95  PRO95       0.0939
     22  N         13.2750   64.1690   61.7510 N.am   96  ASN96      -0.1973
     23  CA        14.2550   65.0790   62.3200 C.3    96  ASN96       0.1688
     24  C         15.6860   64.7890   61.9040 C.2    96  ASN96       0.2292
     25  O         16.5930   65.5900   62.1700 O.2    96  ASN96      -0.2864
     26  CB        14.1210   65.0830   63.8390 C.3    96  ASN96       0.1181
     27  CG        14.3500   63.7040   64.4820 C.2    96  ASN96       0.2629
     28  OD1       14.0970   62.6650   63.8860 O.2    96  ASN96      -0.2716
     29  ND2       14.7790   63.7190   65.7250 N.am   96  ASN96      -0.0877
     30  N         15.3180   53.8710   60.4670 N.3   312  ARG312     -0.1245
     31  CA        13.9960   53.5300   59.9330 C.3   312  ARG312      0.1563
     32  C         12.9460   53.3090   61.0080 C.2   312  ARG312      0.2260
     33  O         13.1150   52.4600   61.8850 O.2   312  ARG312     -0.2867
     34  CB        14.0780   52.2510   59.1020 C.3   312  ARG312      0.0307
     35  CG        14.9070   52.3320   57.8230 C.3   312  ARG312      0.0489
     36  CD        14.9300   50.9870   57.1340 C.3   312  ARG312      0.2205
     37  NE        13.6090   50.6480   56.5840 N.pl3 312  ARG312     -0.0865
     38  CZ        13.3170   50.5400   55.2900 C.cat 312  ARG312      0.5346
     39  NH1       14.2610   50.6630   54.3560 N.pl3 312  ARG312      0.1354
     40  NH2       12.0690   50.2580   54.9330 N.pl3 312  ARG312      0.1354
     41  N         10.0020   51.9040   60.6200 N.3   313  ASP313     -0.1239
     42  CA         9.3740   50.5860   60.5480 C.3   313  ASP313      0.1674
     43  C         10.1990   49.5370   61.2970 C.2   313  ASP313      0.2266
     44  O          9.6370   48.7220   62.0090 O.2   313  ASP313     -0.2867
     45  CB         9.0820   50.1320   59.0890 C.3   313  ASP313      0.1410
     46  CG        10.2860   50.1990   58.1290 C.2   313  ASP313      0.3668
     47  OD1       11.3980   50.5730   58.5270 O.co2 313  ASP313     -0.2456
     48  OD2       10.0570   49.9020   56.9240 O.co2 313  ASP313     -0.2456
     49  N         12.2070   50.2260   63.8360 N.3   315  CYS315     -0.1221
     50  CA        12.0680   50.5620   65.2610 C.3   315  CYS315      0.1808
     51  C         10.7860   49.9470   65.8450 C.2   315  CYS315      0.2601
     52  O         10.7760   49.4250   66.9730 O.2   315  CYS315     -0.2717
     53  CB        12.0760   52.0770   65.4680 C.3   315  CYS315      0.0970
     54  SG        13.7200   52.8030   65.2610 S.3   315  CYS315     -0.0800
     55  N          9.7140   50.0060   65.0610 N.am  316  LYS316     -0.1979
     56  CA         8.4260   49.5010   65.4840 C.3   316  LYS316      0.1596
     57  C          8.3510   47.9670   65.4380 C.2   316  LYS316      0.2287
     58  O          7.9300   47.3230   66.4100 O.2   316  LYS316     -0.2864
     59  CB         7.3260   50.1150   64.5960 C.3   316  LYS316      0.0298
     60  CG         5.9080   49.6440   64.8810 C.3   316  LYS316      0.0038
     61  CD         4.9630   50.0630   63.7410 C.3   316  LYS316      0.0206
     62  CE         4.1850   51.3220   64.0670 C.3   316  LYS316      0.1093
     63  NZ         3.2050   51.6520   62.9890 N.3   316  LYS316     -0.1314
     64  N         10.7880   48.4650   71.9040 N.3   321  ALA321     -0.1245
     65  CA        10.1200   49.1810   72.9900 C.3   321  ALA321      0.1562
     66  C          9.5870   48.2570   74.0860 C.2   321  ALA321      0.2260
     67  O          9.0920   48.7140   75.1120 O.2   321  ALA321     -0.2867
     68  CB         8.9910   50.0110   72.4250 C.3   321  ALA321      0.0290
     69  N         13.0120   56.1640   72.8540 N.3   330  PHE330     -0.1241
     70  CA        12.0420   56.6330   71.8820 C.3   330  PHE330      0.1605
     71  C         11.2640   57.8560   72.3990 C.2   330  PHE330      0.2264
     72  O         10.8630   58.7100   71.5970 O.2   330  PHE330     -0.2867
     73  CB        11.0800   55.5100   71.4880 C.3   330  PHE330      0.0534
     74  CG        11.7230   54.3940   70.6920 C.ar  330  PHE330     -0.0203
     75  CD1       12.7150   54.6440   69.7510 C.ar  330  PHE330     -0.0042
     76  CD2       11.3240   53.0900   70.8830 C.ar  330  PHE330     -0.0042
     77  CE1       13.3070   53.6140   69.0230 C.ar  330  PHE330     -0.0003
     78  CE2       11.9000   52.0530   70.1620 C.ar  330  PHE330     -0.0003
     79  CZ        12.8800   52.3070   69.2240 C.ar  330  PHE330     -0.0000
     80  N         12.7820   62.3750   69.9520 N.3   334  PRO334     -0.2116
     81  CA        12.2260   63.4490   69.1240 C.3   334  PRO334      0.1372
     82  C         12.5070   64.8390   69.6770 C.2   334  PRO334      0.2244
     83  O         12.4370   65.8120   68.9100 O.2   334  PRO334     -0.2868
     84  CB        10.7220   63.1600   69.1270 C.3   334  PRO334      0.0268
     85  CG        10.5870   61.7370   69.6530 C.3   334  PRO334      0.0207
     86  CD        11.7550   61.4860   70.5130 C.3   334  PRO334      0.0892
@<TRIPOS>BOND
     1    39    38    1
     2    40    38    1
     3    38    37    2
     4    37    36    1
     5    48    46   ar
     6    36    35    1
     7    35    34    1
     8    46    47   ar
     9    46    45    1
    10    45    42    1
    11    34    31    1
    12    18    17    2
    13    19    16    1
    14    19    20    1
    15    16    17    1
    16    16    15    1
    17    31    30    1
    18    31    32    1
    19     4     3    2
    20     1     2    1
    21    17    22   am
    22    42    41    1
    23    42    43    1
    24    15     3   am
    25    15    21    1
    26     3     2    1
    27    20    21    1
    28    32    33    2
    29     2     5    1
    30    43    44    2
    31    22    23    1
    32    24    25    2
    33    24    23    1
    34    23    26    1
    35     5     6    1
    36    63    62    1
    37     7     6   ar
    38     7     9   ar
    39     6     8   ar
    40    61    62    1
    41    61    60    1
    42    49    50    1
    43    26    27    1
    44    28    27    2
    45     9    10   ar
    46     8    10   ar
    47     8    11   ar
    48    27    29   am
    49    59    60    1
    50    59    56    1
    51    10    12   ar
    52    11    13   ar
    53    55    56    1
    54    55    51   am
    55    50    53    1
    56    50    51    1
    57    54    53    1
    58    57    56    1
    59    57    58    2
    60    12    14   ar
    61    13    14   ar
    62    51    52    2
    63    83    82    2
    64    77    79   ar
    65    77    75   ar
    66    81    84    1
    67    81    82    1
    68    81    80    1
    69    84    85    1
    70    79    78   ar
    71    85    86    1
    72    75    74   ar
    73    80    86    1
    74    78    76   ar
    75    74    76   ar
    76    74    73    1
    77    73    70    1
    78    72    71    2
    79    70    71    1
    80    70    69    1
    81    64    65    1
    82    68    65    1
    83    65    66    1
    84    66    67    2
