@<TRIPOS>MOLECULE
tmp/5ci7A00.pdb
 147 140 0 0 0
SMALL
GASTEIGER

@<TRIPOS>ATOM
      1  N          2.3850  -43.5650  -10.4220 N.3    19  LEU19      -0.1231
      2  CA         1.5650  -42.3990  -10.1350 C.3    19  LEU19       0.1693
      3  C          1.2260  -41.6640  -11.4320 C.2    19  LEU19       0.2592
      4  O          2.1200  -41.2630  -12.1790 O.2    19  LEU19      -0.2718
      5  CB         2.3410  -41.4700   -9.1920 C.3    19  LEU19       0.0284
      6  CG         1.7100  -40.1470   -8.7490 C.3    19  LEU19       0.0019
      7  CD1        0.5740  -40.3760   -7.7650 C.3    19  LEU19       0.0001
      8  CD2        2.7610  -39.2310   -8.1350 C.3    19  LEU19       0.0001
      9  N         -0.0620  -41.4820  -11.7080 N.am   20  ILE20      -0.1966
     10  CA        -0.4460  -40.7300  -12.9020 C.3    20  ILE20       0.1727
     11  C         -1.2280  -39.4520  -12.5900 C.2    20  ILE20       0.2617
     12  O         -1.5550  -38.6740  -13.4930 O.2    20  ILE20      -0.2715
     13  CB        -1.2020  -41.6280  -13.9100 C.3    20  ILE20       0.0290
     14  CG1       -2.5180  -42.1410  -13.3300 C.3    20  ILE20       0.0022
     15  CG2       -0.3310  -42.7830  -14.3390 C.3    20  ILE20       0.0023
     16  CD1       -3.3260  -42.9620  -14.3280 C.3    20  ILE20       0.0001
     17  N         -1.5030  -39.2070  -11.3150 N.am   21  GLY21      -0.1940
     18  CA        -2.1720  -37.9830  -10.9270 C.3    21  GLY21       0.2014
     19  C         -1.9250  -37.7050   -9.4640 C.2    21  GLY21       0.2638
     20  O         -1.9440  -38.6210   -8.6460 O.2    21  GLY21      -0.2714
     21  N         -1.6980  -36.4470   -9.1360 N.am   22  HIS22      -0.1973
     22  CA        -1.4780  -36.0690   -7.7400 C.3    22  HIS22       0.1656
     23  C         -2.1420  -34.7340   -7.4530 C.2    22  HIS22       0.2291
     24  O         -1.9230  -33.7570   -8.1670 O.2    22  HIS22      -0.2864
     25  CB         0.0230  -35.9810   -7.4590 C.3    22  HIS22       0.0771
     26  CG         0.3750  -36.0210   -6.0050 C.ar   22  HIS22       0.0820
     27  ND1        0.1430  -34.9650   -5.1540 N.ar   22  HIS22      -0.2267
     28  CD2        0.9590  -36.9820   -5.2530 C.ar   22  HIS22       0.1154
     29  CE1        0.5680  -35.2690   -3.9420 C.ar   22  HIS22       0.1986
     30  NE2        1.0640  -36.4930   -3.9740 N.ar   22  HIS22      -0.2212
     31  N         -3.7030  -40.7670   -7.9000 N.3    28  VAL28      -0.1245
     32  CA        -4.1750  -41.7260   -8.8970 C.3    28  VAL28       0.1561
     33  C         -3.0160  -42.5640   -9.4220 C.2    28  VAL28       0.2260
     34  O         -1.9860  -42.0280   -9.8110 O.2    28  VAL28      -0.2867
     35  CB        -4.8540  -40.9990  -10.0700 C.3    28  VAL28       0.0252
     36  CG1       -5.3970  -41.9960  -11.0790 C.3    28  VAL28       0.0019
     37  CG2       -5.9760  -40.0890   -9.5640 C.3    28  VAL28       0.0019
     38  N         -7.3140  -46.6810  -13.9840 N.3    42  ALA42      -0.1245
     39  CA        -6.7660  -45.6310  -13.1220 C.3    42  ALA42       0.1562
     40  C         -7.4250  -45.7770  -11.7610 C.2    42  ALA42       0.2260
     41  O         -8.6420  -45.6990  -11.6510 O.2    42  ALA42      -0.2867
     42  CB        -7.0590  -44.2530  -13.7070 C.3    42  ALA42       0.0290
     43  N         -8.0910  -44.2220   -8.2350 N.3    44  LYS44      -0.1245
     44  CA        -8.0310  -43.0150   -7.4300 C.3    44  LYS44       0.1561
     45  C         -8.1070  -43.3770   -5.9670 C.2    44  LYS44       0.2260
     46  O         -8.9750  -44.1510   -5.5610 O.2    44  LYS44      -0.2867
     47  CB        -9.1880  -42.0680   -7.8060 C.3    44  LYS44       0.0271
     48  CG        -9.0980  -40.6980   -7.1580 C.3    44  LYS44       0.0035
     49  CD       -10.2230  -39.7680   -7.5980 C.3    44  LYS44       0.0206
     50  CE        -9.9910  -39.1670   -8.9760 C.3    44  LYS44       0.1093
     51  NZ       -10.9760  -38.0630   -9.2480 N.3    44  LYS44      -0.1314
     52  N        -15.7120  -40.2240  -17.6700 N.3    74  VAL74      -0.1245
     53  CA       -14.8230  -41.3110  -17.2880 C.3    74  VAL74       0.1561
     54  C        -15.6370  -42.4250  -16.6210 C.2    74  VAL74       0.2260
     55  O        -16.4470  -42.1720  -15.7280 O.2    74  VAL74      -0.2867
     56  CB       -13.6920  -40.8280  -16.3520 C.3    74  VAL74       0.0252
     57  CG1      -14.2660  -40.3370  -15.0270 C.3    74  VAL74       0.0019
     58  CG2      -12.6620  -41.9400  -16.1260 C.3    74  VAL74       0.0019
     59  N        -11.2830  -46.6170  -12.2470 N.3    90  MET90      -0.1230
     60  CA       -11.8550  -45.8610  -13.3400 C.3    90  MET90       0.1702
     61  C        -11.1780  -46.2250  -14.6510 C.2    90  MET90       0.2592
     62  O        -10.1110  -46.8240  -14.6800 O.2    90  MET90      -0.2718
     63  CB       -11.7270  -44.3600  -13.0610 C.3    90  MET90       0.0401
     64  CG       -12.5680  -43.8800  -11.8420 C.3    90  MET90       0.0596
     65  SD       -12.1410  -42.2150  -11.2620 S.3    90  MET90      -0.1393
     66  CE       -10.3930  -42.4220  -10.9520 C.3    90  MET90       0.0692
     67  N        -11.8470  -45.8690  -15.7380 N.am   91  GLU91      -0.1966
     68  CA       -11.3030  -45.9740  -17.0730 C.3    91  GLU91       0.1733
     69  C         -9.9380  -45.2970  -17.1680 C.2    91  GLU91       0.2616
     70  O         -9.7620  -44.1670  -16.7050 O.2    91  GLU91      -0.2715
     71  CB       -12.2920  -45.2920  -18.0160 C.3    91  GLU91       0.0429
     72  CG       -11.8710  -45.1750  -19.4450 C.3    91  GLU91       0.1163
     73  CD       -12.8900  -44.4240  -20.2710 C.2    91  GLU91       0.3649
     74  OE1      -13.9080  -43.9800  -19.7070 O.co2  91  GLU91      -0.2457
     75  OE2      -12.6660  -44.2880  -21.4910 O.co2  91  GLU91      -0.2457
     76  N         -8.9800  -45.9870  -17.7820 N.am   92  TYR92      -0.1960
     77  CA        -7.6940  -45.3760  -18.1100 C.3    92  TYR92       0.1771
     78  C         -7.8190  -44.6780  -19.4540 C.2    92  TYR92       0.2620
     79  O         -8.1290  -45.3010  -20.4780 O.2    92  TYR92      -0.2715
     80  CB        -6.5560  -46.4100  -18.1580 C.3    92  TYR92       0.0574
     81  CG        -5.2150  -45.8080  -18.5500 C.ar   92  TYR92      -0.0198
     82  CD1       -4.5300  -44.9610  -17.6840 C.ar   92  TYR92      -0.0009
     83  CD2       -4.6440  -46.0700  -19.7890 C.ar   92  TYR92      -0.0009
     84  CE1       -3.3140  -44.3970  -18.0420 C.ar   92  TYR92       0.0417
     85  CE2       -3.4220  -45.5270  -20.1480 C.ar   92  TYR92       0.0417
     86  CZ        -2.7630  -44.6870  -19.2680 C.ar   92  TYR92       0.1957
     87  OH        -1.5500  -44.1320  -19.6200 O.3    92  TYR92      -0.2866
     88  N         -7.6050  -43.3710  -19.4300 N.am   93  CYS93      -0.1954
     89  CA        -7.6660  -42.5370  -20.6230 C.3    93  CYS93       0.1843
     90  C         -6.2440  -42.3800  -21.1490 C.2    93  CYS93       0.2625
     91  O         -5.3870  -41.7750  -20.5010 O.2    93  CYS93      -0.2714
     92  CB        -8.2940  -41.1850  -20.2680 C.3    93  CYS93       0.0997
     93  SG       -10.0000  -41.3310  -19.6420 S.3    93  CYS93      -0.0797
     94  N         -5.9750  -42.9720  -22.3040 N.am   94  ASN94      -0.1958
     95  CA        -4.5950  -43.1300  -22.7630 C.3    94  ASN94       0.1819
     96  C         -3.9600  -41.9170  -23.4730 C.2    94  ASN94       0.2622
     97  O         -2.8720  -42.0260  -24.0420 O.2    94  ASN94      -0.2715
     98  CB        -4.4840  -44.3860  -23.6370 C.3    94  ASN94       0.1195
     99  CG        -5.1750  -44.2440  -24.9650 C.2    94  ASN94       0.2630
    100  OD1       -5.4840  -43.1470  -25.4060 O.2    94  ASN94      -0.2716
    101  ND2       -5.3900  -45.3750  -25.6370 N.am   94  ASN94      -0.0877
    102  N         -4.6240  -40.7680  -23.4220 N.am   95  GLY95      -0.1940
    103  CA        -4.1510  -39.5700  -24.0890 C.3    95  GLY95       0.2014
    104  C         -3.7260  -38.4470  -23.1490 C.2    95  GLY95       0.2639
    105  O         -3.3940  -37.3640  -23.6080 O.2    95  GLY95      -0.2714
    106  N         -3.7530  -38.6820  -21.8370 N.am   96  GLY96      -0.1939
    107  CA        -3.4720  -37.6110  -20.8890 C.3    96  GLY96       0.2014
    108  C         -4.5760  -36.5610  -20.7840 C.2    96  GLY96       0.2638
    109  O         -5.7490  -36.8500  -21.0710 O.2    96  GLY96      -0.2714
    110  N         -4.2360  -35.3330  -20.3750 N.am   97  ASP97      -0.1971
    111  CA        -5.2660  -34.3060  -20.1760 C.3    97  ASP97       0.1709
    112  C         -5.2450  -33.2070  -21.2440 C.2    97  ASP97       0.2293
    113  O         -4.2480  -32.9950  -21.9300 O.2    97  ASP97      -0.2864
    114  CB        -5.2270  -33.7030  -18.7540 C.3    97  ASP97       0.1436
    115  CG        -3.9570  -32.9310  -18.4590 C.2    97  ASP97       0.3671
    116  OD1       -3.1760  -32.6500  -19.3920 O.co2  97  ASP97      -0.2456
    117  OD2       -3.7460  -32.5920  -17.2720 O.co2  97  ASP97      -0.2456
    118  N         -7.7630  -29.3540  -17.3060 N.3   140  GLN140     -0.1245
    119  CA        -7.0690  -30.3520  -16.5070 C.3   140  GLN140      0.1566
    120  C         -7.9580  -31.5560  -16.1630 C.2   140  GLN140      0.2260
    121  O         -7.4470  -32.6380  -15.8220 O.2   140  GLN140     -0.2867
    122  CB        -6.5670  -29.7090  -15.2140 C.3   140  GLN140      0.0367
    123  CG        -5.4680  -28.6670  -15.4160 C.3   140  GLN140      0.0905
    124  CD        -5.9820  -27.2720  -15.7630 C.2   140  GLN140      0.2608
    125  OE1       -7.1300  -27.0880  -16.1560 O.2   140  GLN140     -0.2717
    126  NE2       -5.1100  -26.2790  -15.6330 N.am  140  GLN140     -0.0878
    127  N        -10.0980  -35.4320  -20.0340 N.3   143  LEU143     -0.1245
    128  CA        -9.0660  -36.3980  -20.4150 C.3   143  LEU143      0.1561
    129  C         -9.2660  -36.8910  -21.8480 C.2   143  LEU143      0.2260
    130  O        -10.3810  -36.8940  -22.3710 O.2   143  LEU143     -0.2867
    131  CB        -9.0310  -37.5680  -19.4330 C.3   143  LEU143      0.0270
    132  CG        -8.9780  -37.1350  -17.9550 C.3   143  LEU143      0.0019
    133  CD1       -8.9120  -38.3450  -17.0520 C.3   143  LEU143      0.0001
    134  CD2       -7.8050  -36.2020  -17.6910 C.3   143  LEU143      0.0001
    135  N        -13.7840  -35.7390  -16.2410 N.3   162  ALA162     -0.1231
    136  CA       -13.3410  -36.4590  -15.0660 C.3   162  ALA162      0.1694
    137  C        -13.4850  -35.5940  -13.8120 C.2   162  ALA162      0.2592
    138  O        -13.9270  -34.4340  -13.8810 O.2   162  ALA162     -0.2718
    139  CB       -11.8900  -36.8880  -15.2370 C.3   162  ALA162      0.0304
    140  N        -13.0950  -36.1900  -12.6880 N.am  163  ASP163     -0.1974
    141  CA       -12.9680  -35.5050  -11.3940 C.3   163  ASP163      0.1709
    142  C        -14.2570  -34.8310  -10.9230 C.2   163  ASP163      0.2293
    143  O        -14.3460  -33.6100  -10.8280 O.2   163  ASP163     -0.2864
    144  CB       -11.7960  -34.5170  -11.4470 C.3   163  ASP163      0.1436
    145  CG       -10.4470  -35.2260  -11.5970 C.2   163  ASP163      0.3671
    146  OD1      -10.3660  -36.4490  -11.3330 O.co2 163  ASP163     -0.2456
    147  OD2       -9.4660  -34.5600  -11.9740 O.co2 163  ASP163     -0.2456
@<TRIPOS>BOND
     1   101    99   am
     2   100    99    2
     3    99    98    1
     4   103   102    1
     5   103   104    1
     6    97    96    2
     7    98    95    1
     8   105   104    2
     9    96   102   am
    10    96    95    1
    11   104   106   am
    12    95    94    1
    13   130   129    2
    14    94    90   am
    15   113   112    2
    16   129   128    1
    17   106   107    1
    18    75    73   ar
    19   112   111    1
    20    90    89    1
    21    90    91    2
    22   109   108    2
    23   107   108    1
    24   108   110   am
    25    89    92    1
    26    89    88    1
    27    79    78    2
    28   128   127    1
    29   128   131    1
    30   110   111    1
    31    73    74   ar
    32    73    72    1
    33    92    93    1
    34   111   114    1
    35    85    83   ar
    36    85    86   ar
    37    83    81   ar
    38    87    86    1
    39    78    88   am
    40    78    77    1
    41    72    71    1
    42   131   132    1
    43   116   115   ar
    44    86    84   ar
    45   114   115    1
    46    81    80    1
    47    81    82   ar
    48   115   117   ar
    49    80    77    1
    50    77    76    1
    51    84    82   ar
    52    71    68    1
    53   132   134    1
    54   132   133    1
    55    76    69   am
    56    52    53    1
    57   118   119    1
    58    53    54    1
    59    53    56    1
    60    69    68    1
    61    69    70    2
    62    68    67    1
    63    54    55    2
    64   119   120    1
    65   119   122    1
    66    56    58    1
    67    56    57    1
    68   135   136    1
    69   120   121    2
    70   125   124    2
    71   124   126   am
    72   124   123    1
    73    67    61   am
    74   123   122    1
    75   139   136    1
    76   136   137    1
    77    62    61    2
    78    61    60    1
    79    15    13    1
    80    16    14    1
    81    38    39    1
    82    13    14    1
    83    13    10    1
    84   138   137    2
    85   137   140   am
    86    42    39    1
    87    12    11    2
    88    60    63    1
    89    60    59    1
    90    39    40    1
    91    63    64    1
    92    10    11    1
    93    10     9    1
    94   140   141    1
    95    11    17   am
    96     4     3    2
    97   147   145   ar
    98    64    65    1
    99    40    41    2
   100     9     3   am
   101   145   144    1
   102   145   146   ar
   103   144   141    1
   104     3     2    1
   105   141   142    1
   106    17    18    1
   107    65    66    1
   108    36    35    1
   109    18    19    1
   110   142   143    2
   111     1     2    1
   112     2     5    1
   113    35    37    1
   114    35    32    1
   115    34    33    2
   116    19    21   am
   117    19    20    2
   118    33    32    1
   119    51    50    1
   120     5     6    1
   121    21    22    1
   122    50    49    1
   123    32    31    1
   124     6     8    1
   125     6     7    1
   126    43    44    1
   127    24    23    2
   128    47    44    1
   129    47    48    1
   130    22    25    1
   131    22    23    1
   132    49    48    1
   133    25    26    1
   134    44    45    1
   135    26    28   ar
   136    26    27   ar
   137    45    46    2
   138    28    30   ar
   139    27    29   ar
   140    30    29   ar
