@<TRIPOS>MOLECULE
tmp/5cibC01.pdb
 113 110 0 0 0
SMALL
GASTEIGER

@<TRIPOS>ATOM
      1  N        -19.4090   11.1730  -53.5270 N.3   175  HIS175     -0.1226
      2  CA       -20.8410   11.1260  -53.8130 C.3   175  HIS175      0.1752
      3  C        -21.4710    9.8630  -53.2310 C.2   175  HIS175      0.2596
      4  O        -22.4670    9.3560  -53.7480 O.2   175  HIS175     -0.2718
      5  CB       -21.1020   11.2210  -55.3210 C.3   175  HIS175      0.0759
      6  CG       -21.1680   12.6280  -55.8320 C.ar  175  HIS175      0.0818
      7  ND1      -22.0430   13.0160  -56.8190 N.ar  175  HIS175     -0.2268
      8  CD2      -20.4720   13.7360  -55.4810 C.ar  175  HIS175      0.1154
      9  CE1      -21.8850   14.3070  -57.0600 C.ar  175  HIS175      0.1986
     10  NE2      -20.9420   14.7670  -56.2620 N.ar  175  HIS175     -0.2212
     11  N        -20.8580    9.3530  -52.1660 N.am  176  ALA176     -0.1966
     12  CA       -21.4590    8.3330  -51.3220 C.3   176  ALA176      0.1728
     13  C        -21.9550    9.0030  -50.0440 C.2   176  ALA176      0.2616
     14  O        -22.6590    8.3950  -49.2350 O.2   176  ALA176     -0.2715
     15  CB       -20.4630    7.2270  -51.0100 C.3   176  ALA176      0.0334
     16  N        -21.5850   10.2720  -49.8870 N.am  177  LEU177     -0.1963
     17  CA       -21.9660   11.0710  -48.7270 C.3   177  LEU177      0.1728
     18  C        -23.1190   12.0170  -49.0320 C.2   177  LEU177      0.2617
     19  O        -23.0030   12.8840  -49.8960 O.2   177  LEU177     -0.2715
     20  CB       -20.7770   11.8920  -48.2320 C.3   177  LEU177      0.0311
     21  CG       -19.4760   11.1740  -47.8930 C.3   177  LEU177      0.0022
     22  CD1      -18.3480   12.1850  -47.8930 C.3   177  LEU177      0.0001
     23  CD2      -19.5780   10.4710  -46.5450 C.3   177  LEU177      0.0001
     24  N        -24.2190   11.8690  -48.3040 N.am  178  GLY178     -0.1940
     25  CA       -25.3410   12.7780  -48.4420 C.3   178  GLY178      0.2014
     26  C        -26.3760   12.2960  -49.4340 C.2   178  GLY178      0.2639
     27  O        -26.4940   11.1000  -49.6940 O.2   178  GLY178     -0.2714
     28  N        -27.1320   13.2340  -49.9910 N.am  179  LYS179     -0.1963
     29  CA       -28.1590   12.8940  -50.9650 C.3   179  LYS179      0.1728
     30  C        -28.4890   14.0720  -51.8710 C.2   179  LYS179      0.2616
     31  O        -28.1090   15.2100  -51.5900 O.2   179  LYS179     -0.2715
     32  CB       -29.4290   12.4230  -50.2560 C.3   179  LYS179      0.0311
     33  CG       -30.0940   13.4990  -49.4080 C.3   179  LYS179      0.0038
     34  CD       -31.3510   12.9790  -48.7320 C.3   179  LYS179      0.0206
     35  CE       -32.4340   12.6580  -49.7490 C.3   179  LYS179      0.1093
     36  NZ       -32.9050   13.8750  -50.4680 N.3   179  LYS179     -0.1314
     37  N        -29.2040   13.7910  -52.9550 N.am  180  THR180     -0.1951
     38  CA       -29.7070   14.8450  -53.8240 C.3   180  THR180      0.1897
     39  C        -31.0460   15.3510  -53.3230 C.2   180  THR180      0.2313
     40  O        -31.9450   14.5680  -53.0160 O.2   180  THR180     -0.2863
     41  CB       -29.8670   14.3710  -55.2800 C.3   180  THR180      0.1794
     42  OG1      -30.3810   13.0340  -55.2980 O.3   180  THR180     -0.2208
     43  CG2      -28.5370   14.4150  -56.0020 C.3   180  THR180      0.0378
     44  N        -32.8070   11.8400  -53.9320 N.3   189  GLY189     -0.1210
     45  CA       -32.4340   10.5450  -53.3950 C.3   189  GLY189      0.1940
     46  C        -30.9510   10.3620  -53.1260 C.2   189  GLY189      0.2454
     47  O        -30.1150   11.0310  -53.7390 O.2   189  GLY189     -0.2732
     48  N        -30.6200    9.4530  -52.1950 N.am  190  PRO190     -0.2717
     49  CA       -29.2500    9.0370  -51.8900 C.3   190  PRO190      0.1536
     50  C        -28.7710    7.9250  -52.8220 C.2   190  PRO190      0.2599
     51  O        -29.5940    7.2260  -53.4140 O.2   190  PRO190     -0.2715
     52  CB       -29.3640    8.5320  -50.4590 C.3   190  PRO190      0.0310
     53  CG       -30.7290    7.9440  -50.4040 C.3   190  PRO190      0.0237
     54  CD       -31.5970    8.8080  -51.2970 C.3   190  PRO190      0.0939
     55  N        -27.4570    7.7650  -52.9370 N.am  191  GLY191     -0.1941
     56  CA       -26.8740    6.7210  -53.7580 C.3   191  GLY191      0.2014
     57  C        -26.2250    5.6490  -52.9050 C.2   191  GLY191      0.2639
     58  O        -25.4680    4.8120  -53.3980 O.2   191  GLY191     -0.2714
     59  N        -26.5280    5.6820  -51.6110 N.am  192  GLY192     -0.1954
     60  CA       -25.9870    4.7230  -50.6690 C.3   192  GLY192      0.1869
     61  C        -26.8020    4.6690  -49.3920 C.2   192  GLY192      0.2309
     62  O        -27.7070    5.4780  -49.1870 O.2   192  GLY192     -0.2863
     63  N        -24.9570    7.6240  -45.4790 N.3   195  ASN195     -0.1240
     64  CA       -24.8690    8.9660  -46.0490 C.3   195  ASN195      0.1653
     65  C        -23.9530    9.8830  -45.2630 C.2   195  ASN195      0.2266
     66  O        -23.5690   10.9500  -45.7380 O.2   195  ASN195     -0.2867
     67  CB       -26.2560    9.5910  -46.1310 C.3   195  ASN195      0.1155
     68  CG       -27.2080    8.7700  -46.9620 C.2   195  ASN195      0.2627
     69  OD1      -27.3680    9.0110  -48.1540 O.2   195  ASN195     -0.2716
     70  ND2      -27.8510    7.7920  -46.3360 N.am  195  ASN195     -0.0877
     71  N        -20.0480    3.6460  -52.7610 N.3   202  PHE202     -0.1241
     72  CA       -20.3310    4.2760  -54.0480 C.3   202  PHE202      0.1605
     73  C        -20.0190    3.3470  -55.2170 C.2   202  PHE202      0.2264
     74  O        -20.8860    3.0480  -56.0390 O.2   202  PHE202     -0.2867
     75  CB       -19.5240    5.5730  -54.1820 C.3   202  PHE202      0.0534
     76  CG       -19.8500    6.3770  -55.4090 C.ar  202  PHE202     -0.0203
     77  CD1      -21.0330    7.0920  -55.4900 C.ar  202  PHE202     -0.0042
     78  CD2      -18.9600    6.4420  -56.4700 C.ar  202  PHE202     -0.0042
     79  CE1      -21.3300    7.8420  -56.6120 C.ar  202  PHE202     -0.0003
     80  CE2      -19.2530    7.1920  -57.5930 C.ar  202  PHE202     -0.0003
     81  CZ       -20.4400    7.8920  -57.6630 C.ar  202  PHE202     -0.0000
     82  N        -30.0580    6.0430  -55.8660 N.3   230  MET230     -0.1230
     83  CA       -30.0520    6.6940  -57.1710 C.3   230  MET230      0.1702
     84  C        -28.6400    7.0900  -57.5810 C.2   230  MET230      0.2592
     85  O        -27.7040    7.0150  -56.7880 O.2   230  MET230     -0.2718
     86  CB       -30.9600    7.9280  -57.1680 C.3   230  MET230      0.0401
     87  CG       -30.3660    9.1510  -56.4790 C.3   230  MET230      0.0596
     88  SD       -29.4730   10.2570  -57.5970 S.3   230  MET230     -0.1393
     89  CE       -30.8110   11.2240  -58.2830 C.3   230  MET230      0.0692
     90  N        -28.4990    7.5150  -58.8300 N.am  231  MET231     -0.1965
     91  CA       -27.2320    8.0250  -59.3350 C.3   231  MET231      0.1736
     92  C        -27.4760    9.1570  -60.3210 C.2   231  MET231      0.2616
     93  O        -28.4860    9.1750  -61.0230 O.2   231  MET231     -0.2715
     94  CB       -26.4220    6.9160  -60.0100 C.3   231  MET231      0.0427
     95  CG       -25.7210    5.9650  -59.0550 C.3   231  MET231      0.0599
     96  SD       -24.3200    6.7080  -58.1940 S.3   231  MET231     -0.1393
     97  CE       -23.7870    5.3370  -57.1700 C.3   231  MET231      0.0692
     98  N        -26.5530   10.1080  -60.3630 N.am  232  LEU232     -0.1977
     99  CA       -26.5770   11.1300  -61.3940 C.3   232  LEU232      0.1596
    100  C        -26.0570   10.5070  -62.6820 C.2   232  LEU232      0.2287
    101  O        -25.3230    9.5220  -62.6380 O.2   232  LEU232     -0.2864
    102  CB       -25.7320   12.3410  -60.9890 C.3   232  LEU232      0.0297
    103  CG       -26.4350   13.4760  -60.2370 C.3   232  LEU232      0.0022
    104  CD1      -27.0800   12.9680  -58.9710 C.3   232  LEU232      0.0001
    105  CD2      -25.4590   14.5930  -59.9170 C.3   232  LEU232      0.0001
    106  N        -22.4120   10.4220  -62.6550 N.3   235  ASP235     -0.1239
    107  CA       -21.8790    9.3330  -61.8440 C.3   235  ASP235      0.1674
    108  C        -21.9930    8.0120  -62.5910 C.2   235  ASP235      0.2266
    109  O        -21.0670    7.2010  -62.5890 O.2   235  ASP235     -0.2867
    110  CB       -22.6120    9.2410  -60.5040 C.3   235  ASP235      0.1410
    111  CG       -22.5840   10.5450  -59.7370 C.2   235  ASP235      0.3668
    112  OD1      -21.6650   11.3560  -59.9780 O.co2 235  ASP235     -0.2456
    113  OD2      -23.4820   10.7620  -58.8950 O.co2 235  ASP235     -0.2456
@<TRIPOS>BOND
     1   100   101    2
     2   100    99    1
     3   106   107    1
     4   108   109    2
     5   108   107    1
     6   107   110    1
     7    99   102    1
     8    99    98    1
     9    93    92    2
    10   102   103    1
    11   110   111    1
    12    98    92   am
    13    92    91    1
    14   103   105    1
    15   103   104    1
    16    94    91    1
    17    94    95    1
    18   112   111   ar
    19   111   113   ar
    20    91    90    1
    21    95    96    1
    22    90    84   am
    23    89    88    1
    24    96    97    1
    25    81    80   ar
    26    81    79   ar
    27    88    87    1
    28    80    78   ar
    29    84    83    1
    30    84    85    2
    31    83    86    1
    32    83    82    1
    33    86    87    1
    34     9     7   ar
    35     9    10   ar
    36     7     6   ar
    37    79    77   ar
    38    78    76   ar
    39    10     8   ar
    40    74    73    2
    41    43    41    1
    42     6     8   ar
    43     6     5    1
    44    77    76   ar
    45    76    75    1
    46     5     2    1
    47    42    41    1
    48    41    38    1
    49    73    72    1
    50    75    72    1
    51    72    71    1
    52    44    45    1
    53    38    39    1
    54    38    37    1
    55     2     1    1
    56     2     3    1
    57    56    55    1
    58    56    57    1
    59     4     3    2
    60    47    46    2
    61    51    50    2
    62    58    57    2
    63    45    46    1
    64    39    40    2
    65     3    11   am
    66    46    48   am
    67    37    30   am
    68    55    50   am
    69    57    59   am
    70    50    49    1
    71    48    49    1
    72    48    54    1
    73    11    12    1
    74    49    52    1
    75    30    31    2
    76    30    29    1
    77    59    60    1
    78    12    15    1
    79    12    13    1
    80    54    53    1
    81    29    32    1
    82    29    28    1
    83    60    61    1
    84    36    35    1
    85    52    53    1
    86    32    33    1
    87    13    16   am
    88    13    14    2
    89    28    26   am
    90    19    18    2
    91    16    17    1
    92    35    34    1
    93    27    26    2
    94    26    25    1
    95    33    34    1
    96    61    62    2
    97    18    17    1
    98    18    24   am
    99    17    20    1
   100    25    24    1
   101    20    21    1
   102    69    68    2
   103    21    22    1
   104    21    23    1
   105    68    70   am
   106    68    67    1
   107    67    64    1
   108    64    63    1
   109    64    65    1
   110    66    65    2
