@<TRIPOS>MOLECULE
tmp/5cicC01.pdb
 101 99 0 0 0
SMALL
GASTEIGER

@<TRIPOS>ATOM
      1  N        -17.2660   15.9030  -58.6710 N.3   175  HIS175     -0.1226
      2  CA       -18.7070   15.7990  -58.9560 C.3   175  HIS175      0.1752
      3  C        -19.3420   14.5300  -58.3780 C.2   175  HIS175      0.2596
      4  O        -20.3880   14.1040  -58.8210 O.2   175  HIS175     -0.2718
      5  CB       -18.9790   15.8510  -60.4590 C.3   175  HIS175      0.0759
      6  CG       -19.0920   17.2400  -61.0030 C.ar  175  HIS175      0.0818
      7  ND1      -19.3670   17.5010  -62.3300 N.ar  175  HIS175     -0.2268
      8  CD2      -18.9750   18.4470  -60.4010 C.ar  175  HIS175      0.1154
      9  CE1      -19.4110   18.8070  -62.5180 C.ar  175  HIS175      0.1986
     10  NE2      -19.1750   19.4070  -61.3650 N.ar  175  HIS175     -0.2212
     11  N        -18.6790   13.9110  -57.4130 N.am  176  ALA176     -0.1966
     12  CA       -19.3220   12.9400  -56.5250 C.3   176  ALA176      0.1728
     13  C        -19.9760   13.6900  -55.3660 C.2   176  ALA176      0.2616
     14  O        -20.9010   13.2040  -54.6940 O.2   176  ALA176     -0.2715
     15  CB       -18.3010   11.9240  -56.0170 C.3   176  ALA176      0.0334
     16  N        -19.5020   14.9170  -55.1890 N.am  177  LEU177     -0.1963
     17  CA       -19.9440   15.7670  -54.0890 C.3   177  LEU177      0.1728
     18  C        -21.2290   16.5470  -54.3740 C.2   177  LEU177      0.2617
     19  O        -21.4350   17.0510  -55.4710 O.2   177  LEU177     -0.2715
     20  CB       -18.8420   16.7630  -53.7120 C.3   177  LEU177      0.0311
     21  CG       -17.4940   16.1890  -53.2640 C.3   177  LEU177      0.0022
     22  CD1      -16.4510   17.2910  -53.1320 C.3   177  LEU177      0.0001
     23  CD2      -17.6430   15.4390  -51.9540 C.3   177  LEU177      0.0001
     24  N        -22.0810   16.6620  -53.3620 N.am  178  GLY178     -0.1940
     25  CA       -23.2710   17.4870  -53.4540 C.3   178  GLY178      0.2014
     26  C        -24.2740   17.0220  -54.4880 C.2   178  GLY178      0.2639
     27  O        -24.5270   15.8290  -54.6270 O.2   178  GLY178     -0.2714
     28  N        -24.8430   17.9740  -55.2190 N.am  179  LYS179     -0.1963
     29  CA       -25.8570   17.6720  -56.2200 C.3   179  LYS179      0.1728
     30  C        -26.0520   18.8580  -57.1480 C.2   179  LYS179      0.2616
     31  O        -25.6230   19.9720  -56.8440 O.2   179  LYS179     -0.2715
     32  CB       -27.1890   17.3180  -55.5430 C.3   179  LYS179      0.0311
     33  CG       -27.7360   18.4460  -54.6660 C.3   179  LYS179      0.0038
     34  CD       -28.9290   18.0050  -53.8160 C.3   179  LYS179      0.0206
     35  CE       -30.0980   17.5570  -54.6800 C.3   179  LYS179      0.1093
     36  NZ       -30.5830   18.6510  -55.5580 N.3   179  LYS179     -0.1314
     37  N        -26.7040   18.6200  -58.2810 N.am  180  THR180     -0.1951
     38  CA       -27.2020   19.7220  -59.0840 C.3   180  THR180      0.1897
     39  C        -28.5690   20.1160  -58.5390 C.2   180  THR180      0.2313
     40  O        -29.3390   19.2560  -58.1000 O.2   180  THR180     -0.2863
     41  CB       -27.3030   19.3570  -60.5750 C.3   180  THR180      0.1794
     42  OG1      -28.2690   18.3170  -60.7550 O.3   180  THR180     -0.2208
     43  CG2      -25.9650   18.8700  -61.0900 C.3   180  THR180      0.0378
     44  N        -30.3790   16.5930  -59.2130 N.3   189  GLY189     -0.1210
     45  CA       -30.0280   15.2900  -58.6740 C.3   189  GLY189      0.1940
     46  C        -28.5830   15.1250  -58.2290 C.2   189  GLY189      0.2454
     47  O        -27.6850   15.8280  -58.7060 O.2   189  GLY189     -0.2732
     48  N        -28.3490   14.1860  -57.3020 N.am  190  PRO190     -0.2717
     49  CA       -27.0000   13.8160  -56.8800 C.3   190  PRO190      0.1535
     50  C        -26.3840   12.8090  -57.8410 C.2   190  PRO190      0.2599
     51  O        -27.0910   12.2130  -58.6570 O.2   190  PRO190     -0.2715
     52  CB       -27.2300   13.1840  -55.5050 C.3   190  PRO190      0.0310
     53  CG       -28.5660   12.5090  -55.6690 C.3   190  PRO190      0.0237
     54  CD       -29.3790   13.4480  -56.5450 C.3   190  PRO190      0.0939
     55  N        -25.0770   12.6070  -57.7290 N.am  191  GLY191     -0.1955
     56  CA       -24.3830   11.6580  -58.5790 C.3   191  GLY191      0.1869
     57  C        -24.1030   10.2970  -57.9630 C.2   191  GLY191      0.2309
     58  O        -23.5540    9.4020  -58.6190 O.2   191  GLY191     -0.2863
     59  N        -17.5840    8.8970  -58.1150 N.3   202  PHE202     -0.1241
     60  CA       -17.9050    9.4830  -59.4190 C.3   202  PHE202      0.1605
     61  C        -17.5230    8.5500  -60.5660 C.2   202  PHE202      0.2264
     62  O        -18.2960    8.3350  -61.4990 O.2   202  PHE202     -0.2867
     63  CB       -17.1930   10.8310  -59.5730 C.3   202  PHE202      0.0534
     64  CG       -17.3410   11.4630  -60.9300 C.ar  202  PHE202     -0.0203
     65  CD1      -18.5100   12.1300  -61.2810 C.ar  202  PHE202     -0.0042
     66  CD2      -16.2910   11.4280  -61.8440 C.ar  202  PHE202     -0.0042
     67  CE1      -18.6390   12.7260  -62.5210 C.ar  202  PHE202     -0.0003
     68  CE2      -16.4130   12.0240  -63.0890 C.ar  202  PHE202     -0.0003
     69  CZ       -17.5910   12.6720  -63.4290 C.ar  202  PHE202     -0.0000
     70  N        -27.7570   11.2070  -61.1730 N.3   230  MET230     -0.1230
     71  CA       -27.6760   11.8860  -62.4570 C.3   230  MET230      0.1702
     72  C        -26.2320   12.1800  -62.8140 C.2   230  MET230      0.2592
     73  O        -25.3550   12.2000  -61.9510 O.2   230  MET230     -0.2718
     74  CB       -28.4850   13.1850  -62.4480 C.3   230  MET230      0.0401
     75  CG       -27.9720   14.2490  -61.4830 C.3   230  MET230      0.0596
     76  SD       -26.6240   15.2930  -62.0940 S.3   230  MET230     -0.1393
     77  CE       -27.4420   16.1750  -63.4380 C.3   230  MET230      0.0692
     78  N        -26.0010   12.4020  -64.1000 N.am  231  MET231     -0.1965
     79  CA       -24.7280   12.8890  -64.6000 C.3   231  MET231      0.1736
     80  C        -25.0070   14.0130  -65.5910 C.2   231  MET231      0.2616
     81  O        -25.9320   13.9200  -66.4050 O.2   231  MET231     -0.2715
     82  CB       -23.9220   11.7620  -65.2570 C.3   231  MET231      0.0427
     83  CG       -23.3250   10.7480  -64.2790 C.3   231  MET231      0.0599
     84  SD       -21.8840   11.4040  -63.4190 S.3   231  MET231     -0.1393
     85  CE       -21.5550   10.1170  -62.2020 C.3   231  MET231      0.0692
     86  N        -24.2320   15.0890  -65.4950 N.am  232  LEU232     -0.1977
     87  CA       -24.2860   16.1680  -66.4770 C.3   232  LEU232      0.1596
     88  C        -23.7960   15.6310  -67.8170 C.2   232  LEU232      0.2287
     89  O        -23.0520   14.6490  -67.8460 O.2   232  LEU232     -0.2864
     90  CB       -23.4300   17.3510  -66.0230 C.3   232  LEU232      0.0297
     91  CG       -23.9120   18.1430  -64.8100 C.3   232  LEU232      0.0022
     92  CD1      -22.7880   19.0260  -64.2920 C.3   232  LEU232      0.0001
     93  CD2      -25.1370   18.9850  -65.1720 C.3   232  LEU232      0.0001
     94  N        -20.1000   15.3990  -67.8450 N.3   235  ASP235     -0.1239
     95  CA       -19.5680   14.3000  -67.0360 C.3   235  ASP235      0.1674
     96  C        -19.6130   12.9850  -67.7950 C.2   235  ASP235      0.2266
     97  O        -18.6520   12.2220  -67.7840 O.2   235  ASP235     -0.2867
     98  CB       -20.3450   14.1550  -65.7260 C.3   235  ASP235      0.1410
     99  CG       -20.0510   15.2720  -64.7440 C.2   235  ASP235      0.3668
    100  OD1      -19.0250   15.9630  -64.9080 O.co2 235  ASP235     -0.2456
    101  OD2      -20.8410   15.4550  -63.8000 O.co2 235  ASP235     -0.2456
@<TRIPOS>BOND
     1    89    88    2
     2    94    95    1
     3    88    87    1
     4    96    97    2
     5    96    95    1
     6    95    98    1
     7    87    90    1
     8    87    86    1
     9    81    80    2
    10    90    91    1
    11    98    99    1
    12    80    86   am
    13    80    79    1
    14    82    79    1
    15    82    83    1
    16    93    91    1
    17   100    99   ar
    18    91    92    1
    19    99   101   ar
    20    79    78    1
    21    83    84    1
    22    78    72   am
    23    77    76    1
    24    69    68   ar
    25    69    67   ar
    26    84    85    1
    27    68    66   ar
    28    72    71    1
    29    72    73    2
    30    67    65   ar
    31     9     7   ar
    32     9    10   ar
    33    71    74    1
    34    71    70    1
    35    74    75    1
    36     7     6   ar
    37    76    75    1
    38    66    64   ar
    39    62    61    2
    40    10     8   ar
    41    65    64   ar
    42    43    41    1
    43     6     5    1
    44     6     8   ar
    45    64    63    1
    46    42    41    1
    47    41    38    1
    48    61    60    1
    49     5     2    1
    50    63    60    1
    51    60    59    1
    52    44    45    1
    53    38    39    1
    54    38    37    1
    55     2     1    1
    56     2     3    1
    57     4     3    2
    58    47    46    2
    59    45    46    1
    60    51    50    2
    61    58    57    2
    62    56    57    1
    63    56    55    1
    64    39    40    2
    65     3    11   am
    66    37    30   am
    67    46    48   am
    68    50    55   am
    69    50    49    1
    70    11    12    1
    71    48    49    1
    72    48    54    1
    73    30    31    2
    74    30    29    1
    75    49    52    1
    76    54    53    1
    77    12    15    1
    78    12    13    1
    79    29    32    1
    80    29    28    1
    81    53    52    1
    82    36    35    1
    83    32    33    1
    84    19    18    2
    85    13    16   am
    86    13    14    2
    87    28    26   am
    88    16    17    1
    89    35    34    1
    90    33    34    1
    91    27    26    2
    92    26    25    1
    93    18    17    1
    94    18    24   am
    95    17    20    1
    96    20    21    1
    97    25    24    1
    98    21    22    1
    99    21    23    1
