@<TRIPOS>MOLECULE
tmp/5cidC01.pdb
 90 88 0 0 0
SMALL
GASTEIGER

@<TRIPOS>ATOM
      1  N         14.1920   14.6080  -12.3030 N.3   175  HIS175     -0.1226
      2  CA        12.7520   14.5900  -12.5540 C.3   175  HIS175      0.1752
      3  C         12.0790   13.4120  -11.8800 C.2   175  HIS175      0.2596
      4  O         10.9070   13.1490  -12.1050 O.2   175  HIS175     -0.2718
      5  CB        12.4640   14.5920  -14.0570 C.3   175  HIS175      0.0759
      6  CG        12.4430   15.9740  -14.6540 C.ar  175  HIS175      0.0818
      7  ND1       12.3630   16.1970  -16.0090 N.ar  175  HIS175     -0.2268
      8  CD2       12.5050   17.1990  -14.0720 C.ar  175  HIS175      0.1154
      9  CE1       12.3760   17.5080  -16.2390 C.ar  175  HIS175      0.1986
     10  NE2       12.4610   18.1320  -15.0870 N.ar  175  HIS175     -0.2212
     11  N         12.8370   12.6870  -11.0680 N.am  176  ALA176     -0.1966
     12  CA        12.2330   11.7130  -10.1740 C.3   176  ALA176      0.1728
     13  C         11.5720   12.4800   -9.0410 C.2   176  ALA176      0.2616
     14  O         10.5690   12.0490   -8.4650 O.2   176  ALA176     -0.2715
     15  CB        13.2690   10.7350   -9.6340 C.3   176  ALA176      0.0334
     16  N         12.1460   13.6420   -8.7540 N.am  177  LEU177     -0.1963
     17  CA        11.7060   14.5000   -7.6630 C.3   177  LEU177      0.1728
     18  C         10.4430   15.2870   -8.0100 C.2   177  LEU177      0.2617
     19  O         10.2880   15.7470   -9.1330 O.2   177  LEU177     -0.2715
     20  CB        12.8250   15.4760   -7.2860 C.3   177  LEU177      0.0311
     21  CG        14.1670   14.9080   -6.8370 C.3   177  LEU177      0.0022
     22  CD1       15.2110   16.0130   -6.8280 C.3   177  LEU177      0.0001
     23  CD2       14.0340   14.2810   -5.4610 C.3   177  LEU177      0.0001
     24  N          9.5530   15.4500   -7.0380 N.am  178  GLY178     -0.1940
     25  CA         8.3890   16.3030   -7.2020 C.3   178  GLY178      0.2014
     26  C          7.3610   15.7890   -8.1850 C.2   178  GLY178      0.2639
     27  O          7.2030   14.5820   -8.3650 O.2   178  GLY178     -0.2714
     28  N          6.6520   16.7140   -8.8190 N.am  179  LYS179     -0.1963
     29  CA         5.6300   16.3540   -9.7900 C.3   179  LYS179      0.1728
     30  C          5.4090   17.4850  -10.7790 C.2   179  LYS179      0.2616
     31  O          6.0330   18.5440  -10.6830 O.2   179  LYS179     -0.2715
     32  CB         4.3140   16.0040   -9.0900 C.3   179  LYS179      0.0311
     33  CG         3.7480   17.1300   -8.2410 C.3   179  LYS179      0.0038
     34  CD         2.5110   16.6710   -7.4880 C.3   179  LYS179      0.0206
     35  CE         1.3820   16.3380   -8.4400 C.3   179  LYS179      0.1093
     36  NZ         0.9810   17.5390   -9.2130 N.3   179  LYS179     -0.1314
     37  N          4.5160   17.2550  -11.7320 N.am  180  THR180     -0.1951
     38  CA         4.1500   18.2950  -12.6740 C.3   180  THR180      0.1897
     39  C          2.7790   18.8350  -12.3170 C.2   180  THR180      0.2313
     40  O          1.8640   18.0690  -12.0240 O.2   180  THR180     -0.2863
     41  CB         4.1400   17.7880  -14.1240 C.3   180  THR180      0.1794
     42  OG1        5.2860   16.9580  -14.3600 O.3   180  THR180     -0.2208
     43  CG2        4.2150   18.9560  -15.0460 C.3   180  THR180      0.0378
     44  N          1.1760   15.4010  -12.8690 N.3   189  GLY189     -0.1210
     45  CA         1.5090   14.1360  -12.2390 C.3   189  GLY189      0.1940
     46  C          2.9780   13.9760  -11.9100 C.2   189  GLY189      0.2454
     47  O          3.8160   14.7340  -12.4040 O.2   189  GLY189     -0.2732
     48  N          3.2980   12.9820  -11.0660 N.am  190  PRO190     -0.2717
     49  CA         4.6690   12.6580  -10.6710 C.3   190  PRO190      0.1535
     50  C          5.2850   11.6360  -11.6150 C.2   190  PRO190      0.2599
     51  O          4.5830   11.1060  -12.4790 O.2   190  PRO190     -0.2715
     52  CB         4.4860   12.0650   -9.2800 C.3   190  PRO190      0.0310
     53  CG         3.1930   11.3160   -9.4120 C.3   190  PRO190      0.0237
     54  CD         2.3240   12.1210  -10.3710 C.3   190  PRO190      0.0939
     55  N          6.5690   11.3480  -11.4360 N.am  191  GLY191     -0.1955
     56  CA         7.2550   10.4020  -12.2920 C.3   191  GLY191      0.1869
     57  C          7.5450    9.0860  -11.6000 C.2   191  GLY191      0.2309
     58  O          8.2400    8.2310  -12.1460 O.2   191  GLY191     -0.2863
     59  N          3.8630    9.7720  -14.8040 N.3   230  MET230     -0.1230
     60  CA         3.8850   10.4850  -16.0640 C.3   230  MET230      0.1702
     61  C          5.3150   10.8270  -16.4280 C.2   230  MET230      0.2592
     62  O          6.2030   10.8020  -15.5790 O.2   230  MET230     -0.2718
     63  CB         3.0360   11.7540  -15.9840 C.3   230  MET230      0.0401
     64  CG         3.6190   12.8460  -15.0960 C.3   230  MET230      0.0596
     65  SD         4.8350   13.9020  -15.9150 S.3   230  MET230     -0.1393
     66  CE         3.8300   14.6330  -17.2080 C.3   230  MET230      0.0692
     67  N          5.5220   11.1530  -17.6980 N.am  231  MET231     -0.1965
     68  CA         6.8100   11.6170  -18.1870 C.3   231  MET231      0.1736
     69  C          6.5980   12.7480  -19.1880 C.2   231  MET231      0.2616
     70  O          5.6590   12.7140  -19.9880 O.2   231  MET231     -0.2715
     71  CB         7.5940   10.4720  -18.8300 C.3   231  MET231      0.0427
     72  CG         8.1430    9.4470  -17.8480 C.3   231  MET231      0.0599
     73  SD         9.4630   10.0970  -16.7930 S.3   231  MET231     -0.1393
     74  CE         9.7650    8.6960  -15.7180 C.3   231  MET231      0.0692
     75  N          7.4540   13.7610  -19.1310 N.am  232  LEU232     -0.1977
     76  CA         7.4380   14.7990  -20.1500 C.3   232  LEU232      0.1596
     77  C          7.9240   14.1900  -21.4540 C.2   232  LEU232      0.2287
     78  O          8.7040   13.2360  -21.4320 O.2   232  LEU232     -0.2864
     79  CB         8.3160   15.9810  -19.7480 C.3   232  LEU232      0.0297
     80  CG         7.9350   16.7140  -18.4640 C.3   232  LEU232      0.0022
     81  CD1        9.0260   17.7040  -18.0910 C.3   232  LEU232      0.0001
     82  CD2        6.5990   17.4230  -18.6300 C.3   232  LEU232      0.0001
     83  N         11.4680   14.0430  -21.5220 N.3   235  ASP235     -0.1239
     84  CA        11.9410   12.9390  -20.6860 C.3   235  ASP235      0.1674
     85  C         11.8610   11.6150  -21.4370 C.2   235  ASP235      0.2266
     86  O         12.7860   10.8030  -21.3910 O.2   235  ASP235     -0.2867
     87  CB        11.1360   12.8360  -19.3860 C.3   235  ASP235      0.1410
     88  CG        11.3250   14.0350  -18.4840 C.2   235  ASP235      0.3668
     89  OD1       12.2640   14.8290  -18.7290 O.co2 235  ASP235     -0.2456
     90  OD2       10.5310   14.1790  -17.5280 O.co2 235  ASP235     -0.2456
@<TRIPOS>BOND
     1    83    84    1
     2    77    78    2
     3    77    76    1
     4    85    86    2
     5    85    84    1
     6    84    87    1
     7    76    79    1
     8    76    75    1
     9    70    69    2
    10    79    80    1
    11    87    88    1
    12    69    75   am
    13    69    68    1
    14    71    68    1
    15    71    72    1
    16    89    88   ar
    17    82    80    1
    18    88    90   ar
    19    80    81    1
    20    68    67    1
    21    72    73    1
    22    67    61   am
    23    66    65    1
    24    73    74    1
    25    61    60    1
    26    61    62    2
    27     9     7   ar
    28     9    10   ar
    29    60    63    1
    30    60    59    1
    31     7     6   ar
    32    63    64    1
    33    65    64    1
    34    10     8   ar
    35    43    41    1
    36     6     8   ar
    37     6     5    1
    38    42    41    1
    39    41    38    1
    40     5     2    1
    41    44    45    1
    42    38    39    1
    43    38    37    1
    44     2     1    1
    45     2     3    1
    46    51    50    2
    47    47    46    2
    48    39    40    2
    49    56    57    1
    50    56    55    1
    51    45    46    1
    52    58    57    2
    53     4     3    2
    54    46    48   am
    55     3    11   am
    56    37    30   am
    57    50    55   am
    58    50    49    1
    59    11    12    1
    60    48    49    1
    61    48    54    1
    62    30    31    2
    63    30    29    1
    64    49    52    1
    65    54    53    1
    66    12    15    1
    67    12    13    1
    68    29    32    1
    69    29    28    1
    70    53    52    1
    71    36    35    1
    72    19    18    2
    73    32    33    1
    74    13    16   am
    75    13    14    2
    76    28    26   am
    77    16    17    1
    78    35    34    1
    79    27    26    2
    80    33    34    1
    81    26    25    1
    82    18    17    1
    83    18    24   am
    84    17    20    1
    85    20    21    1
    86    25    24    1
    87    21    22    1
    88    21    23    1
