@<TRIPOS>MOLECULE
tmp/5cieC01.pdb
 85 82 0 0 0
SMALL
GASTEIGER

@<TRIPOS>ATOM
      1  N         -2.6060  -13.2450  -54.1100 N.3   175  HIS175     -0.1241
      2  CA        -1.1800  -13.3110  -54.4110 C.3   175  HIS175      0.1621
      3  C         -0.4200  -12.1670  -53.7440 C.2   175  HIS175      0.2264
      4  O          0.7890  -12.0310  -53.9120 O.2   175  HIS175     -0.2867
      5  CB        -0.9480  -13.3020  -55.9220 C.3   175  HIS175      0.0745
      6  CG        -0.7800  -14.6710  -56.5110 C.ar  175  HIS175      0.0817
      7  ND1       -0.3130  -14.8800  -57.7900 N.ar  175  HIS175     -0.2268
      8  CD2       -1.0180  -15.9000  -55.9920 C.ar  175  HIS175      0.1154
      9  CE1       -0.2720  -16.1790  -58.0340 C.ar  175  HIS175      0.1986
     10  NE2       -0.6920  -16.8220  -56.9580 N.ar  175  HIS175     -0.2212
     11  N         -0.2360  -12.3490  -50.7850 N.3   177  LEU177     -0.1231
     12  CA         0.1950  -13.1620  -49.6560 C.3   177  LEU177      0.1693
     13  C          1.4270  -13.9940  -49.9890 C.2   177  LEU177      0.2593
     14  O          1.5600  -14.5120  -51.0980 O.2   177  LEU177     -0.2718
     15  CB        -0.9420  -14.0800  -49.2040 C.3   177  LEU177      0.0284
     16  CG        -2.2750  -13.3910  -48.9130 C.3   177  LEU177      0.0019
     17  CD1       -3.3580  -14.4170  -48.6270 C.3   177  LEU177      0.0001
     18  CD2       -2.1340  -12.4160  -47.7550 C.3   177  LEU177      0.0001
     19  N          2.3230  -14.1170  -49.0140 N.am  178  GLY178     -0.1942
     20  CA         3.5140  -14.9300  -49.1600 C.3   178  GLY178      0.2014
     21  C          4.4560  -14.4390  -50.2380 C.2   178  GLY178      0.2639
     22  O          4.6170  -13.2360  -50.4410 O.2   178  GLY178     -0.2714
     23  N          5.0760  -15.3830  -50.9350 N.am  179  LYS179     -0.1963
     24  CA         6.0600  -15.0570  -51.9540 C.3   179  LYS179      0.1728
     25  C          6.2380  -16.2100  -52.9300 C.2   179  LYS179      0.2616
     26  O          5.6060  -17.2580  -52.7940 O.2   179  LYS179     -0.2715
     27  CB         7.4000  -14.7130  -51.3010 C.3   179  LYS179      0.0311
     28  CG         7.9620  -15.8380  -50.4440 C.3   179  LYS179      0.0038
     29  CD         9.1890  -15.3910  -49.6690 C.3   179  LYS179      0.0206
     30  CE        10.2660  -14.8580  -50.5980 C.3   179  LYS179      0.1093
     31  NZ        10.6800  -15.8730  -51.6050 N.3   179  LYS179     -0.1314
     32  N          7.1010  -16.0080  -53.9180 N.am  180  THR180     -0.1951
     33  CA         7.5140  -17.0900  -54.7960 C.3   180  THR180      0.1897
     34  C          8.8950  -17.5670  -54.3740 C.2   180  THR180      0.2313
     35  O          9.7680  -16.7610  -54.0540 O.2   180  THR180     -0.2863
     36  CB         7.5380  -16.6620  -56.2740 C.3   180  THR180      0.1794
     37  OG1        8.2380  -15.4190  -56.4020 O.3   180  THR180     -0.2208
     38  CG2        6.1230  -16.4950  -56.8030 C.3   180  THR180      0.0378
     39  N         10.6860  -13.8980  -54.8610 N.3   189  GLY189     -0.1210
     40  CA        10.2890  -12.6100  -54.3220 C.3   189  GLY189      0.1940
     41  C          8.8130  -12.4960  -53.9980 C.2   189  GLY189      0.2454
     42  O          8.0000  -13.2720  -54.5000 O.2   189  GLY189     -0.2732
     43  N          8.4570  -11.5230  -53.1440 N.am  190  PRO190     -0.2717
     44  CA         7.0600  -11.2640  -52.7910 C.3   190  PRO190      0.1535
     45  C          6.3850  -10.3070  -53.7690 C.2   190  PRO190      0.2599
     46  O          7.0400   -9.7860  -54.6700 O.2   190  PRO190     -0.2715
     47  CB         7.1720  -10.6300  -51.4070 C.3   190  PRO190      0.0310
     48  CG         8.4630   -9.8770  -51.4740 C.3   190  PRO190      0.0237
     49  CD         9.3850  -10.6910  -52.3560 C.3   190  PRO190      0.0939
     50  N          5.0920  -10.0690  -53.5790 N.am  191  GLY191     -0.1955
     51  CA         4.3620   -9.1420  -54.4230 C.3   191  GLY191      0.1869
     52  C          4.1990   -7.7910  -53.7590 C.2   191  GLY191      0.2309
     53  O          3.8670   -6.8000  -54.4100 O.2   191  GLY191     -0.2863
     54  N          7.7770   -8.3560  -56.8220 N.3   230  MET230     -0.1230
     55  CA         7.7270   -9.0680  -58.0900 C.3   230  MET230      0.1702
     56  C          6.2970   -9.4220  -58.4650 C.2   230  MET230      0.2592
     57  O          5.4090   -9.4690  -57.6150 O.2   230  MET230     -0.2718
     58  CB         8.5860  -10.3370  -58.0400 C.3   230  MET230      0.0401
     59  CG         8.0430  -11.4520  -57.1540 C.3   230  MET230      0.0596
     60  SD         6.8720  -12.5690  -57.9580 S.3   230  MET230     -0.1393
     61  CE         7.9020  -13.3090  -59.2210 C.3   230  MET230      0.0692
     62  N          6.0900   -9.6750  -59.7510 N.am  231  MET231     -0.1965
     63  CA         4.8110  -10.1500  -60.2500 C.3   231  MET231      0.1736
     64  C          5.0410  -11.2610  -61.2610 C.2   231  MET231      0.2616
     65  O          5.9490  -11.1790  -62.0870 O.2   231  MET231     -0.2715
     66  CB         4.0120   -9.0110  -60.8880 C.3   231  MET231      0.0427
     67  CG         3.4420   -8.0080  -59.9010 C.3   231  MET231      0.0599
     68  SD         2.1560   -8.7140  -58.8530 S.3   231  MET231     -0.1393
     69  CE         1.7190   -7.2930  -57.8560 C.3   231  MET231      0.0692
     70  N          4.2300  -12.3080  -61.1830 N.am  232  LEU232     -0.1977
     71  CA         4.2350  -13.3370  -62.2100 C.3   232  LEU232      0.1596
     72  C          3.7190  -12.7220  -63.5040 C.2   232  LEU232      0.2287
     73  O          2.9550  -11.7580  -63.4630 O.2   232  LEU232     -0.2864
     74  CB         3.3740  -14.5290  -61.7910 C.3   232  LEU232      0.0297
     75  CG         3.8380  -15.2890  -60.5480 C.3   232  LEU232      0.0022
     76  CD1        2.7770  -16.2790  -60.0950 C.3   232  LEU232      0.0001
     77  CD2        5.1540  -15.9990  -60.8230 C.3   232  LEU232      0.0001
     78  N          0.1550  -12.4940  -63.4030 N.3   235  ASP235     -0.1239
     79  CA        -0.3100  -11.4000  -62.5570 C.3   235  ASP235      0.1674
     80  C         -0.2220  -10.0680  -63.2920 C.2   235  ASP235      0.2266
     81  O         -1.1410   -9.2510  -63.2310 O.2   235  ASP235     -0.2867
     82  CB         0.4980  -11.3290  -61.2590 C.3   235  ASP235      0.1410
     83  CG         0.3340  -12.5640  -60.3980 C.2   235  ASP235      0.3668
     84  OD1       -0.6090  -13.3440  -60.6470 O.co2 235  ASP235     -0.2456
     85  OD2        1.1440  -12.7490  -59.4660 O.co2 235  ASP235     -0.2456
@<TRIPOS>BOND
     1    72    73    2
     2    72    71    1
     3    78    79    1
     4    80    81    2
     5    80    79    1
     6    79    82    1
     7    71    74    1
     8    71    70    1
     9    65    64    2
    10    74    75    1
    11    64    70   am
    12    64    63    1
    13    82    83    1
    14    66    63    1
    15    66    67    1
    16    77    75    1
    17    84    83   ar
    18    75    76    1
    19    83    85   ar
    20    63    62    1
    21    67    68    1
    22    62    56   am
    23    61    60    1
    24    68    69    1
    25    56    55    1
    26    56    57    2
    27    55    58    1
    28    55    54    1
    29    58    59    1
    30     9     7   ar
    31     9    10   ar
    32    60    59    1
    33     7     6   ar
    34    10     8   ar
    35    38    36    1
    36     6     8   ar
    37     6     5    1
    38    37    36    1
    39    36    33    1
    40     5     2    1
    41    39    40    1
    42    33    34    1
    43    33    32    1
    44    46    45    2
    45    42    41    2
    46    51    52    1
    47    51    50    1
    48     2     1    1
    49     2     3    1
    50    53    52    2
    51    34    35    2
    52    40    41    1
    53    41    43   am
    54    32    25   am
    55     4     3    2
    56    45    50   am
    57    45    44    1
    58    43    44    1
    59    43    49    1
    60    25    26    2
    61    25    24    1
    62    44    47    1
    63    49    48    1
    64    24    27    1
    65    24    23    1
    66    31    30    1
    67    48    47    1
    68    27    28    1
    69    14    13    2
    70    23    21   am
    71    11    12    1
    72    30    29    1
    73    28    29    1
    74    22    21    2
    75    21    20    1
    76    13    12    1
    77    13    19   am
    78    12    15    1
    79    15    16    1
    80    20    19    1
    81    16    17    1
    82    16    18    1
