@<TRIPOS>MOLECULE
tmp/5cikB00.pdb
 106 102 0 0 0
SMALL
GASTEIGER

@<TRIPOS>ATOM
      1  N         14.2410   87.1770  148.6680 N.3   231  PRO231     -0.2102
      2  CA        14.5140   88.5940  148.9930 C.3   231  PRO231      0.1504
      3  C         14.4520   89.5210  147.8060 C.2   231  PRO231      0.2575
      4  O         13.8720   90.5830  147.9680 O.2   231  PRO231     -0.2718
      5  CB        15.9100   88.5510  149.5800 C.3   231  PRO231      0.0282
      6  CG        15.9610   87.2000  150.2490 C.3   231  PRO231      0.0208
      7  CD        15.2420   86.2800  149.2570 C.3   231  PRO231      0.0893
      8  N         14.9890   89.1280  146.6370 N.am  232  HIS232     -0.1976
      9  CA        14.9340   89.9260  145.3820 C.3   232  HIS232      0.1656
     10  C         13.6450   89.6650  144.6040 C.2   232  HIS232      0.2291
     11  O         13.2180   90.4940  143.8120 O.2   232  HIS232     -0.2864
     12  CB        16.1280   89.5900  144.4110 C.3   232  HIS232      0.0771
     13  CG        16.4070   90.6280  143.3390 C.ar  232  HIS232      0.0820
     14  ND1       15.5550   90.8540  142.2750 N.ar  232  HIS232     -0.2267
     15  CD2       17.4730   91.4550  143.1340 C.ar  232  HIS232      0.1154
     16  CE1       16.0410   91.8240  141.5110 C.ar  232  HIS232      0.1986
     17  NE2       17.2040   92.2100  142.0090 N.ar  232  HIS232     -0.2212
     18  N          6.9840   95.8420  149.3530 N.3   249  ASP249     -0.1239
     19  CA         8.1050   96.7890  149.4820 C.3   249  ASP249      0.1674
     20  C          7.9520   97.8440  148.4320 C.2   249  ASP249      0.2266
     21  O          7.9760   97.5800  147.2130 O.2   249  ASP249     -0.2867
     22  CB         9.4010   96.0660  149.2850 C.3   249  ASP249      0.1410
     23  CG        10.6170   96.9590  149.5300 C.2   249  ASP249      0.3668
     24  OD1       10.4740   98.1800  149.8150 O.co2 249  ASP249     -0.2456
     25  OD2       11.6990   96.3570  149.4800 O.co2 249  ASP249     -0.2456
     26  N         11.3810  103.9290  151.5710 N.3   260  ASP260     -0.1239
     27  CA        11.4780  102.5370  151.2100 C.3   260  ASP260      0.1674
     28  C         11.0350  101.6980  152.3770 C.2   260  ASP260      0.2266
     29  O         11.7920  101.5800  153.3620 O.2   260  ASP260     -0.2867
     30  CB        12.8910  102.1870  150.8550 C.3   260  ASP260      0.1410
     31  CG        13.0410  100.7080  150.3890 C.2   260  ASP260      0.3668
     32  OD1       12.1100   99.8880  150.4270 O.co2 260  ASP260     -0.2456
     33  OD2       14.1590  100.3740  150.0290 O.co2 260  ASP260     -0.2456
     34  N         21.0310   88.0330  154.2730 N.3   325  HIS325     -0.1226
     35  CA        21.7170   89.2370  153.8750 C.3   325  HIS325      0.1752
     36  C         21.9190   90.2140  155.0580 C.2   325  HIS325      0.2595
     37  O         21.5550   89.8950  156.1820 O.2   325  HIS325     -0.2718
     38  CB        20.9210   89.9340  152.7160 C.3   325  HIS325      0.0759
     39  CG        19.5370   90.3100  153.0590 C.ar  325  HIS325      0.0818
     40  ND1       19.2160   91.2240  154.0390 N.ar  325  HIS325     -0.2268
     41  CD2       18.3630   89.8830  152.5440 C.ar  325  HIS325      0.1154
     42  CE1       17.9100   91.3990  154.0600 C.ar  325  HIS325      0.1986
     43  NE2       17.3680   90.5770  153.1770 N.ar  325  HIS325     -0.2212
     44  N         22.5000   91.3790  154.7790 N.am  326  ARG326     -0.1980
     45  CA        22.8050   92.3670  155.8090 C.3   326  ARG326      0.1597
     46  C         21.5430   92.8810  156.4490 C.2   326  ARG326      0.2287
     47  O         20.4740   92.7820  155.8930 O.2   326  ARG326     -0.2864
     48  CB        23.5960   93.5000  155.2080 C.3   326  ARG326      0.0334
     49  CG        22.8440   94.3350  154.2150 C.3   326  ARG326      0.0492
     50  CD        23.7190   95.2170  153.3570 C.3   326  ARG326      0.2205
     51  NE        22.8540   95.8310  152.3790 N.pl3 326  ARG326     -0.0865
     52  CZ        23.2080   96.2350  151.1630 C.cat 326  ARG326      0.5346
     53  NH1       24.4550   96.2510  150.7480 N.pl3 326  ARG326      0.1354
     54  NH2       22.2570   96.6400  150.3480 N.pl3 326  ARG326      0.1354
     55  N         20.7920   96.0510  157.0480 N.3   328  GLY328     -0.1210
     56  CA        20.2800   97.2150  156.3180 C.3   328  GLY328      0.1956
     57  C         21.3110   97.9780  155.5460 C.2   328  GLY328      0.2611
     58  O         22.4770   97.6120  155.5290 O.2   328  GLY328     -0.2717
     59  N         20.8870   99.1070  154.9850 N.am  329  HIS329     -0.1975
     60  CA        21.7310   99.9350  154.1730 C.3   329  HIS329      0.1656
     61  C         21.3020  101.3780  154.2610 C.2   329  HIS329      0.2291
     62  O         20.2010  101.6930  154.6710 O.2   329  HIS329     -0.2864
     63  CB        21.5810   99.4630  152.7390 C.3   329  HIS329      0.0771
     64  CG        20.2210   99.6310  152.2340 C.ar  329  HIS329      0.0820
     65  ND1       19.3500   98.5780  152.1000 N.ar  329  HIS329     -0.2267
     66  CD2       19.5440  100.7370  151.8620 C.ar  329  HIS329      0.1154
     67  CE1       18.1870   99.0290  151.6660 C.ar  329  HIS329      0.1986
     68  NE2       18.2840  100.3370  151.5160 N.ar  329  HIS329     -0.2212
     69  N         19.9810  102.7780  147.8600 N.3   336  HIS336     -0.1241
     70  CA        21.0730  102.1700  148.6070 C.3   336  HIS336      0.1621
     71  C         22.3000  103.1420  148.5730 C.2   336  HIS336      0.2264
     72  O         22.7790  103.5220  147.5220 O.2   336  HIS336     -0.2867
     73  CB        21.5070  100.8380  147.9840 C.3   336  HIS336      0.0745
     74  CG        20.4940   99.7440  148.0740 C.ar  336  HIS336      0.0817
     75  ND1       20.7440   98.4720  147.6340 N.ar  336  HIS336     -0.2268
     76  CD2       19.2550   99.7020  148.5960 C.ar  336  HIS336      0.1154
     77  CE1       19.6740   97.7170  147.7890 C.ar  336  HIS336      0.1986
     78  NE2       18.7580   98.4420  148.3760 N.ar  336  HIS336     -0.2212
     79  N         16.0200   96.0620  158.3460 N.3   358  GLU358     -0.1245
     80  CA        15.1900   95.0560  157.6680 C.3   358  GLU358      0.1567
     81  C         15.8110   93.6920  157.6820 C.2   358  GLU358      0.2260
     82  O         16.1220   93.1020  156.6270 O.2   358  GLU358     -0.2867
     83  CB        14.9430   95.5360  156.2430 C.3   358  GLU358      0.0388
     84  CG        16.2210   95.9700  155.5490 C.3   358  GLU358      0.1160
     85  CD        15.9650   96.4770  154.1490 C.2   358  GLU358      0.3649
     86  OE1       15.0410   95.9630  153.5050 O.co2 358  GLU358     -0.2457
     87  OE2       16.7230   97.3280  153.6670 O.co2 358  GLU358     -0.2457
     88  N         15.5340   90.6010  157.3330 N.3   360  MET360     -0.1245
     89  CA        14.6080   89.5900  156.8290 C.3   360  MET360      0.1570
     90  C         14.8990   88.1520  157.2580 C.2   360  MET360      0.2261
     91  O         16.0230   87.6930  157.1410 O.2   360  MET360     -0.2867
     92  CB        14.5700   89.5990  155.3130 C.3   360  MET360      0.0387
     93  CG        13.5420   88.6360  154.7110 C.3   360  MET360      0.0595
     94  SD        13.5840   88.8980  152.8850 S.3   360  MET360     -0.1393
     95  CE        12.1710   87.8500  152.5390 C.3   360  MET360      0.0692
     96  N          9.7680   90.0470  155.9450 N.3   370  ARG370     -0.1245
     97  CA        10.5900   91.2310  155.9820 C.3   370  ARG370      0.1563
     98  C          9.8220   92.4250  156.4930 C.2   370  ARG370      0.2260
     99  O          8.7820   92.8010  155.9510 O.2   370  ARG370     -0.2867
    100  CB        11.2220   91.5640  154.6400 C.3   370  ARG370      0.0307
    101  CG        12.1610   92.7610  154.7430 C.3   370  ARG370      0.0489
    102  CD        13.1160   92.8800  153.5740 C.3   370  ARG370      0.2205
    103  NE        12.5330   93.4890  152.3830 N.pl3 370  ARG370     -0.0865
    104  CZ        12.1800   92.8430  151.2660 C.cat 370  ARG370      0.5346
    105  NH1       12.2850   91.4840  151.1730 N.pl3 370  ARG370      0.1354
    106  NH2       11.7190   93.5600  150.2210 N.pl3 370  ARG370      0.1354
@<TRIPOS>BOND
     1    16    17   ar
     2    16    14   ar
     3    17    15   ar
     4    14    13   ar
     5    15    13   ar
     6    13    12    1
     7    11    10    2
     8    12     9    1
     9    10     9    1
    10     9     8    1
    11     8     3   am
    12    21    20    2
    13    72    71    2
    14    75    77   ar
    15    75    74   ar
    16    77    78   ar
    17     3     4    2
    18     3     2    1
    19    69    70    1
    20    73    74    1
    21    73    70    1
    22    74    76   ar
    23    78    76   ar
    24    20    19    1
    25    71    70    1
    26     1     2    1
    27     1     7    1
    28     2     5    1
    29     7     6    1
    30    22    19    1
    31    22    23    1
    32    18    19    1
    33    25    23   ar
    34    23    24   ar
    35     5     6    1
    36    33    31   ar
    37   106   104    1
    38    54    52    1
    39    31    32   ar
    40    31    30    1
    41    53    52    1
    42    30    27    1
    43    52    51    2
    44   105   104    1
    45    27    26    1
    46    27    28    1
    47   104   103    2
    48    68    67   ar
    49    68    66   ar
    50    67    65   ar
    51    66    64   ar
    52    65    64   ar
    53    64    63    1
    54    28    29    2
    55    51    50    1
    56   103   102    1
    57    95    94    1
    58    41    39   ar
    59    41    43   ar
    60    38    39    1
    61    38    35    1
    62    63    60    1
    63    94    93    1
    64    39    40   ar
    65    43    42   ar
    66    50    49    1
    67    86    85   ar
    68   102   101    1
    69    87    85   ar
    70    35    34    1
    71    35    36    1
    72    40    42   ar
    73    85    84    1
    74    60    61    1
    75    60    59    1
    76    49    48    1
    77    61    62    2
    78   100   101    1
    79   100    97    1
    80    93    92    1
    81    44    36   am
    82    44    45    1
    83    59    57   am
    84    36    37    2
    85    48    45    1
    86    92    89    1
    87    58    57    2
    88    57    56    1
    89    84    83    1
    90    45    46    1
    91    47    46    2
    92    96    97    1
    93    99    98    2
    94    97    98    1
    95    83    80    1
    96    56    55    1
    97    82    81    2
    98    89    90    1
    99    89    88    1
   100    91    90    2
   101    80    81    1
   102    80    79    1
