@<TRIPOS>MOLECULE
tmp/5cimB00.pdb
 169 160 0 0 0
SMALL
GASTEIGER

@<TRIPOS>ATOM
      1  N        -14.7070  -16.1740   93.5780 N.3   262  LYS262     -0.1245
      2  CA       -14.1070  -14.8960   93.2090 C.3   262  LYS262      0.1561
      3  C        -14.6540  -13.8320   94.1700 C.2   262  LYS262      0.2260
      4  O        -15.8500  -13.8420   94.4790 O.2   262  LYS262     -0.2867
      5  CB       -14.4600  -14.5430   91.7530 C.3   262  LYS262      0.0271
      6  CG       -13.2400  -14.4140   90.8420 C.3   262  LYS262      0.0035
      7  CD       -13.6200  -13.9890   89.4180 C.3   262  LYS262      0.0206
      8  CE       -12.4610  -14.1110   88.4560 C.3   262  LYS262      0.1093
      9  NZ       -12.8520  -14.6960   87.1400 N.3   262  LYS262     -0.1314
     10  N        -13.3120   -8.6360   91.0520 N.3   266  ASN266     -0.1240
     11  CA       -12.5840   -9.7220   90.3830 C.3   266  ASN266      0.1653
     12  C        -11.3240  -10.2020   91.1340 C.2   266  ASN266      0.2266
     13  O        -10.4200  -10.7520   90.5050 O.2   266  ASN266     -0.2867
     14  CB       -12.2650   -9.3300   88.9320 C.3   266  ASN266      0.1155
     15  CG       -12.1600  -10.4790   87.9710 C.2   266  ASN266      0.2627
     16  OD1      -13.0840  -10.7660   87.2100 O.2   266  ASN266     -0.2716
     17  ND2      -10.9920  -11.1000   87.9150 N.am  266  ASN266     -0.0877
     18  N        -19.4850  -14.7880   92.2030 N.3   277  SER277     -0.1217
     19  CA       -20.0380  -14.5890   90.8730 C.3   277  SER277      0.1889
     20  C        -21.2490  -15.4790   90.5900 C.2   277  SER277      0.2288
     21  O        -21.0870  -16.6930   90.6750 O.2   277  SER277     -0.2866
     22  CB       -18.9620  -14.7970   89.8190 C.3   277  SER277      0.2089
     23  OG       -19.5020  -14.6050   88.5220 O.3   277  SER277     -0.2183
     24  N        -22.3990  -16.5410   87.8810 N.3   279  TRP279     -0.1227
     25  CA       -21.9910  -17.4100   86.7780 C.3   279  TRP279      0.1737
     26  C        -21.1100  -18.5890   87.2150 C.2   279  TRP279      0.2595
     27  O        -20.7350  -19.4000   86.3700 O.2   279  TRP279     -0.2718
     28  CB       -21.3480  -16.6040   85.6550 C.3   279  TRP279      0.0564
     29  CG       -22.3190  -15.7320   84.9460 C.ar  279  TRP279      0.0003
     30  CD1      -23.1120  -16.0840   83.9030 C.ar  279  TRP279      0.0946
     31  CD2      -22.6590  -14.3770   85.2720 C.ar  279  TRP279      0.0152
     32  NE1      -23.8950  -15.0210   83.5270 N.ar  279  TRP279     -0.2442
     33  CE2      -23.6290  -13.9560   84.3450 C.ar  279  TRP279      0.0810
     34  CE3      -22.2290  -13.4690   86.2600 C.ar  279  TRP279      0.0012
     35  CZ2      -24.1660  -12.6660   84.3590 C.ar  279  TRP279      0.0191
     36  CZ3      -22.7560  -12.1880   86.2690 C.ar  279  TRP279      0.0001
     37  CH2      -23.7240  -11.8040   85.3380 C.ar  279  TRP279      0.0015
     38  N        -20.7940  -18.7010   88.5270 N.am  280  ALA280     -0.1980
     39  CA       -20.0370  -19.8280   89.0560 C.3   280  ALA280      0.1597
     40  C        -21.0850  -20.7630   89.6610 C.2   280  ALA280      0.2287
     41  O        -21.2060  -20.8980   90.8860 O.2   280  ALA280     -0.2864
     42  CB       -19.0380  -19.3450   90.0930 C.3   280  ALA280      0.0319
     43  N        -21.2530  -24.0230   82.5870 N.3   322  GLN322     -0.1245
     44  CA       -19.9880  -24.1780   83.2830 C.3   322  GLN322      0.1566
     45  C        -20.3230  -24.5970   84.6950 C.2   322  GLN322      0.2260
     46  O        -21.4820  -24.5220   85.0840 O.2   322  GLN322     -0.2867
     47  CB       -19.1790  -22.8680   83.2670 C.3   322  GLN322      0.0367
     48  CG       -19.8930  -21.6760   83.8820 C.3   322  GLN322      0.0905
     49  CD       -19.9870  -20.4640   82.9830 C.2   322  GLN322      0.2608
     50  OE1      -20.2670  -19.3630   83.4680 O.2   322  GLN322     -0.2717
     51  NE2      -19.7220  -20.6170   81.6730 N.am  322  GLN322     -0.0878
     52  N        -10.0030  -12.9210   78.9640 N.3   353  LYS353     -0.1245
     53  CA       -10.6930  -13.2320   80.2150 C.3   353  LYS353      0.1561
     54  C        -10.3680  -14.6460   80.7630 C.2   353  LYS353      0.2260
     55  O        -10.5420  -15.6470   80.0630 O.2   353  LYS353     -0.2867
     56  CB       -12.2100  -13.0130   80.0460 C.3   353  LYS353      0.0271
     57  CG       -12.5880  -11.6120   79.6180 C.3   353  LYS353      0.0035
     58  CD       -12.0670  -10.5860   80.5950 C.3   353  LYS353      0.0206
     59  CE       -12.9190   -9.3380   80.5670 C.3   353  LYS353      0.1093
     60  NZ       -14.3560   -9.6570   80.8470 N.3   353  LYS353     -0.1314
     61  N        -11.1980  -17.2650   83.9330 N.3   355  TYR355     -0.1241
     62  CA       -12.2700  -17.5370   84.9050 C.3   355  TYR355      0.1605
     63  C        -11.8880  -18.6620   85.9450 C.2   355  TYR355      0.2264
     64  O        -12.3690  -19.8020   85.8880 O.2   355  TYR355     -0.2867
     65  CB       -13.5980  -17.8560   84.1740 C.3   355  TYR355      0.0534
     66  CG       -14.0030  -17.0110   82.9720 C.ar  355  TYR355     -0.0201
     67  CD1      -14.1880  -15.6370   83.0900 C.ar  355  TYR355     -0.0009
     68  CD2      -14.3750  -17.6100   81.7730 C.ar  355  TYR355     -0.0009
     69  CE1      -14.6580  -14.8720   82.0230 C.ar  355  TYR355      0.0417
     70  CE2      -14.8360  -16.8550   80.6960 C.ar  355  TYR355      0.0417
     71  CZ       -14.9750  -15.4840   80.8250 C.ar  355  TYR355      0.1957
     72  OH       -15.4190  -14.7350   79.7550 O.3   355  TYR355     -0.2866
     73  N        -12.7160  -19.3850   88.8600 N.3   357  ASP357     -0.1225
     74  CA       -13.8070  -19.8920   89.6630 C.3   357  ASP357      0.1805
     75  C        -14.6780  -20.8990   88.9500 C.2   357  ASP357      0.2597
     76  O        -15.5360  -21.4820   89.5980 O.2   357  ASP357     -0.2718
     77  CB       -14.6400  -18.7350   90.2420 C.3   357  ASP357      0.1424
     78  CG       -15.0220  -17.6020   89.3100 C.2   357  ASP357      0.3668
     79  OD1      -14.2810  -17.3500   88.3420 O.co2 357  ASP357     -0.2456
     80  OD2      -16.0320  -16.9220   89.5890 O.co2 357  ASP357     -0.2456
     81  N        -14.4630  -21.1280   87.6300 N.am  358  ILE358     -0.1980
     82  CA       -15.2640  -22.0830   86.8340 C.3   358  ILE358      0.1595
     83  C        -14.5030  -23.1630   86.0640 C.2   358  ILE358      0.2287
     84  O        -13.3300  -22.9880   85.7210 O.2   358  ILE358     -0.2864
     85  CB       -16.3830  -21.4410   85.9670 C.3   358  ILE358      0.0276
     86  CG1      -15.8550  -20.3030   85.1520 C.3   358  ILE358      0.0022
     87  CG2      -17.5770  -21.0300   86.8110 C.3   358  ILE358      0.0022
     88  CD1      -16.6780  -19.9670   84.0570 C.3   358  ILE358      0.0001
     89  N        -31.0010  -16.4550   78.0100 N.3   390  ARG390     -0.1245
     90  CA       -29.8890  -15.6210   77.5560 C.3   390  ARG390      0.1563
     91  C        -28.6360  -16.5170   77.6760 C.2   390  ARG390      0.2260
     92  O        -28.0680  -16.7110   78.7610 O.2   390  ARG390     -0.2867
     93  CB       -29.7980  -14.3290   78.3860 C.3   390  ARG390      0.0307
     94  CG       -28.8290  -13.2680   77.8700 C.3   390  ARG390      0.0489
     95  CD       -27.3920  -13.5680   78.2390 C.3   390  ARG390      0.2205
     96  NE       -26.5760  -12.3680   78.3750 N.pl3 390  ARG390     -0.0865
     97  CZ       -25.3340  -12.3760   78.8460 C.cat 390  ARG390      0.5346
     98  NH1      -24.7640  -13.5180   79.2090 N.pl3 390  ARG390      0.1354
     99  NH2      -24.6470  -11.2430   78.9490 N.pl3 390  ARG390      0.1354
    100  N        -24.9530  -17.9710   77.4300 N.3   392  ASP392     -0.1225
    101  CA       -23.6200  -17.4630   77.6970 C.3   392  ASP392      0.1805
    102  C        -22.5910  -17.9290   76.7070 C.2   392  ASP392      0.2597
    103  O        -22.4280  -19.1470   76.5650 O.2   392  ASP392     -0.2718
    104  CB       -23.2230  -17.8700   79.0980 C.3   392  ASP392      0.1424
    105  CG       -23.2990  -16.6850   79.9830 C.2   392  ASP392      0.3668
    106  OD1      -24.1880  -15.8320   79.7500 O.co2 392  ASP392     -0.2456
    107  OD2      -22.4160  -16.5450   80.8380 O.co2 392  ASP392     -0.2456
    108  N        -21.8520  -16.9660   76.0700 N.am  393  ASN393     -0.1974
    109  CA       -20.8410  -17.2000   75.0140 C.3   393  ASN393      0.1688
    110  C        -21.0580  -18.5360   74.3010 C.2   393  ASN393      0.2292
    111  O        -20.3660  -19.5160   74.5930 O.2   393  ASN393     -0.2864
    112  CB       -19.3850  -16.9640   75.4550 C.3   393  ASN393      0.1181
    113  CG       -19.1390  -16.9660   76.9330 C.2   393  ASN393      0.2629
    114  OD1      -19.4120  -15.9820   77.6180 O.2   393  ASN393     -0.2716
    115  ND2      -18.5900  -18.0560   77.4510 N.am  393  ASN393     -0.0877
    116  N        -25.2900  -14.4460   73.5360 N.3   421  GLU421     -0.1245
    117  CA       -24.3160  -13.4580   73.9550 C.3   421  GLU421      0.1567
    118  C        -22.9950  -13.8330   73.3330 C.2   421  GLU421      0.2260
    119  O        -22.0330  -14.1740   74.0100 O.2   421  GLU421     -0.2867
    120  CB       -24.1950  -13.3410   75.4690 C.3   421  GLU421      0.0388
    121  CG       -23.3270  -12.1540   75.8720 C.3   421  GLU421      0.1160
    122  CD       -22.1160  -12.4000   76.7620 C.2   421  GLU421      0.3649
    123  OE1      -21.4600  -13.4660   76.6480 O.co2 421  GLU421     -0.2457
    124  OE2      -21.8010  -11.4820   77.5560 O.co2 421  GLU421     -0.2457
    125  N        -23.1360   -5.8700   82.5370 N.3   476  PRO476     -0.2102
    126  CA       -22.3050   -5.7870   83.7670 C.3   476  PRO476      0.1504
    127  C        -20.7990   -5.9620   83.5650 C.2   476  PRO476      0.2575
    128  O        -20.0250   -5.9070   84.5360 O.2   476  PRO476     -0.2718
    129  CB       -22.8990   -6.8770   84.6690 C.3   476  PRO476      0.0282
    130  CG       -23.5420   -7.8290   83.7370 C.3   476  PRO476      0.0208
    131  CD       -24.1160   -6.9760   82.6530 C.3   476  PRO476      0.0893
    132  N        -20.4000   -6.1010   82.2860 N.am  477  ASP477     -0.1974
    133  CA       -19.0450   -6.3090   81.7930 C.3   477  ASP477      0.1708
    134  C        -18.6880   -5.2720   80.7470 C.2   477  ASP477      0.2293
    135  O        -17.5090   -5.1100   80.4230 O.2   477  ASP477     -0.2864
    136  CB       -18.9030   -7.7340   81.2140 C.3   477  ASP477      0.1436
    137  CG       -20.2180   -8.4710   80.9940 C.2   477  ASP477      0.3671
    138  OD1      -20.7120   -9.1080   81.9670 O.co2 477  ASP477     -0.2456
    139  OD2      -20.7550   -8.4180   79.8400 O.co2 477  ASP477     -0.2456
    140  N        -14.8370   -2.6550   82.3400 N.3   525  GLU525     -0.1245
    141  CA       -15.5000   -3.1700   83.5340 C.3   525  GLU525      0.1567
    142  C        -15.8830   -2.0520   84.5320 C.2   525  GLU525      0.2260
    143  O        -15.1700   -1.0450   84.6810 O.2   525  GLU525     -0.2867
    144  CB       -14.6390   -4.2430   84.2210 C.3   525  GLU525      0.0388
    145  CG       -14.6750   -5.5990   83.5440 C.3   525  GLU525      0.1160
    146  CD       -15.8350   -6.5150   83.8940 C.2   525  GLU525      0.3649
    147  OE1      -16.6790   -6.1480   84.7490 O.co2 525  GLU525     -0.2457
    148  OE2      -15.8910   -7.6150   83.2960 O.co2 525  GLU525     -0.2457
    149  N        -21.6860   -8.1710   89.9940 N.3   531  LYS531     -0.1231
    150  CA       -21.3090   -9.5800   89.8980 C.3   531  LYS531      0.1693
    151  C        -20.5340  -10.0590   91.1180 C.2   531  LYS531      0.2592
    152  O        -20.5720  -11.2460   91.4150 O.2   531  LYS531     -0.2718
    153  CB       -20.4570   -9.8360   88.6370 C.3   531  LYS531      0.0285
    154  CG       -20.9520   -9.1760   87.3340 C.3   531  LYS531      0.0035
    155  CD       -20.1340   -9.6200   86.1080 C.3   531  LYS531      0.0206
    156  CE       -18.7840   -8.9250   86.0150 C.3   531  LYS531      0.1093
    157  NZ       -18.0610   -9.2620   84.7660 N.3   531  LYS531     -0.1314
    158  N        -19.8260   -9.1740   91.8180 N.am  532  TYR532     -0.1976
    159  CA       -19.0200   -9.5570   92.9860 C.3   532  TYR532      0.1639
    160  C        -19.5140   -9.0290   94.3560 C.2   532  TYR532      0.2290
    161  O        -19.1320   -9.5790   95.4070 O.2   532  TYR532     -0.2864
    162  CB       -17.5250   -9.2910   92.7580 C.3   532  TYR532      0.0560
    163  CG       -17.0490   -9.6130   91.3560 C.ar  532  TYR532     -0.0198
    164  CD1      -17.0870   -8.6560   90.3530 C.ar  532  TYR532     -0.0009
    165  CD2      -16.5350  -10.8640   91.0430 C.ar  532  TYR532     -0.0009
    166  CE1      -16.6340   -8.9350   89.0700 C.ar  532  TYR532      0.0417
    167  CE2      -16.0890  -11.1610   89.7580 C.ar  532  TYR532      0.0417
    168  CZ       -16.1400  -10.1920   88.7720 C.ar  532  TYR532      0.1957
    169  OH       -15.7050  -10.4590   87.4940 O.3   532  TYR532     -0.2866
@<TRIPOS>BOND
     1   118   117    1
     2   118   119    2
     3   116   117    1
     4   117   120    1
     5   110   111    2
     6   110   109    1
     7   109   112    1
     8   109   108    1
     9   112   113    1
    10   120   121    1
    11   121   122    1
    12   108   102   am
    13   103   102    2
    14   123   122   ar
    15   102   101    1
    16   122   124   ar
    17   113   115   am
    18   113   114    2
    19   100   101    1
    20    90    91    1
    21    90    89    1
    22    90    93    1
    23    91    92    2
    24   101   104    1
    25    94    95    1
    26    94    93    1
    27    95    96    1
    28    96    97    2
    29    97    99    1
    30    97    98    1
    31    52    53    1
    32   104   105    1
    33    57    56    1
    34    57    58    1
    35   106   105   ar
    36    72    71    1
    37   139   137   ar
    38   105   107   ar
    39    56    53    1
    40    55    54    2
    41    53    54    1
    42   135   134    2
    43    59    58    1
    44    59    60    1
    45    70    71   ar
    46    70    68   ar
    47   134   133    1
    48    71    69   ar
    49   137   136    1
    50   137   138   ar
    51   136   133    1
    52    51    49   am
    53    68    66   ar
    54   133   132    1
    55    69    67   ar
    56   132   127   am
    57   140   141    1
    58   125   131    1
    59   125   126    1
    60    43    44    1
    61   131   130    1
    62    66    67   ar
    63    66    65    1
    64    49    50    2
    65    49    48    1
    66    47    44    1
    67    47    48    1
    68    44    45    1
    69   148   146   ar
    70    32    30   ar
    71    32    33   ar
    72   141   144    1
    73   141   142    1
    74   145   146    1
    75   145   144    1
    76   127   126    1
    77   127   128    2
    78   130   129    1
    79   126   129    1
    80   146   147   ar
    81    30    29   ar
    82    61    62    1
    83    88    86    1
    84    65    62    1
    85    33    35   ar
    86    33    31   ar
    87    35    37   ar
    88   142   143    2
    89    45    46    2
    90   157   156    1
    91    62    63    1
    92    29    31   ar
    93    29    28    1
    94    86    85    1
    95    31    34   ar
    96    37    36   ar
    97    28    25    1
    98    84    83    2
    99    64    63    2
   100    85    87    1
   101    85    82    1
   102   156   155    1
   103    83    82    1
   104   155   154    1
   105    34    36   ar
   106    27    26    2
   107    25    26    1
   108    25    24    1
   109    82    81    1
   110     9     8    1
   111    16    15    2
   112    26    38   am
   113   154   153    1
   114   169   168    1
   115    81    75   am
   116    17    15   am
   117    15    14    1
   118    79    78   ar
   119     8     7    1
   120    23    22    1
   121    38    39    1
   122   153   150    1
   123   168   166   ar
   124   168   167   ar
   125    73    74    1
   126    14    11    1
   127    75    76    2
   128    75    74    1
   129    39    40    1
   130    39    42    1
   131   166   164   ar
   132    78    80   ar
   133    78    77    1
   134     7     6    1
   135    40    41    2
   136    74    77    1
   137   167   165   ar
   138    22    19    1
   139   150   149    1
   140   150   151    1
   141   164   163   ar
   142    11    10    1
   143    11    12    1
   144    13    12    2
   145    20    21    2
   146    20    19    1
   147     6     5    1
   148    19    18    1
   149   165   163   ar
   150   151   152    2
   151   151   158   am
   152   163   162    1
   153     5     2    1
   154   158   159    1
   155   162   159    1
   156   159   160    1
   157     2     1    1
   158     2     3    1
   159     3     4    2
   160   160   161    2
