@<TRIPOS>MOLECULE
tmp/5ciuA01.pdb
 145 146 0 0 0
SMALL
GASTEIGER

@<TRIPOS>ATOM
      1  N         -1.0250   33.5120  -36.3430 N.3    18  ILE18      -0.1231
      2  CA        -0.3220   34.0390  -37.5160 C.3    18  ILE18       0.1692
      3  C         -0.6310   33.1930  -38.7670 C.2    18  ILE18       0.2592
      4  O         -1.0760   32.0450  -38.6500 O.2    18  ILE18      -0.2718
      5  CB         1.2040   34.1440  -37.2960 C.3    18  ILE18       0.0266
      6  CG1        1.8050   32.7860  -36.9760 C.3    18  ILE18       0.0019
      7  CG2        1.5460   35.1270  -36.1790 C.3    18  ILE18       0.0020
      8  CD1        3.3460   32.8290  -36.9140 C.3    18  ILE18       0.0001
      9  N         -0.3970   33.7520  -39.9540 N.am   19  LYS19      -0.1966
     10  CA        -0.7300   33.0550  -41.2090 C.3    19  LYS19       0.1728
     11  C         -0.0510   31.6870  -41.3340 C.2    19  LYS19       0.2617
     12  O          1.1700   31.5670  -41.1870 O.2    19  LYS19      -0.2715
     13  CB        -0.3850   33.9260  -42.4230 C.3    19  LYS19       0.0311
     14  CG        -1.2430   35.1710  -42.5690 C.3    19  LYS19       0.0038
     15  CD        -2.6490   34.8170  -43.0170 C.3    19  LYS19       0.0206
     16  CE        -3.4320   36.0600  -43.4040 C.3    19  LYS19       0.1093
     17  NZ        -4.7650   35.7100  -43.9650 N.3    19  LYS19      -0.1314
     18  N         -0.8430   30.6500  -41.5780 N.am   20  GLY20      -0.1940
     19  CA        -0.2860   29.3260  -41.7970 C.3    20  GLY20       0.2014
     20  C         -0.4250   28.3540  -40.6360 C.2    20  GLY20       0.2639
     21  O         -0.2200   27.1480  -40.8170 O.2    20  GLY20      -0.2714
     22  N         -0.7710   28.8580  -39.4490 N.am   21  PHE21      -0.1959
     23  CA        -0.7650   28.0160  -38.2510 C.3    21  PHE21       0.1771
     24  C         -2.0860   28.0600  -37.4990 C.2    21  PHE21       0.2620
     25  O         -2.8620   29.0040  -37.6510 O.2    21  PHE21      -0.2715
     26  CB         0.3480   28.4580  -37.2890 C.3    21  PHE21       0.0574
     27  CG         1.7380   28.3020  -37.8360 C.ar   21  PHE21      -0.0200
     28  CD1        2.4000   27.0780  -37.7540 C.ar   21  PHE21      -0.0042
     29  CD2        2.4000   29.3850  -38.4000 C.ar   21  PHE21      -0.0042
     30  CE1        3.6980   26.9330  -38.2510 C.ar   21  PHE21      -0.0003
     31  CE2        3.7060   29.2500  -38.9000 C.ar   21  PHE21      -0.0003
     32  CZ         4.3490   28.0250  -38.8280 C.ar   21  PHE21      -0.0000
     33  N         -2.3310   27.0490  -36.6650 N.am   22  SER22      -0.1950
     34  CA        -3.4610   27.0930  -35.7400 C.3    22  SER22       0.1924
     35  C         -3.2200   28.2170  -34.7320 C.2    22  SER22       0.2314
     36  O         -2.1010   28.7450  -34.6370 O.2    22  SER22      -0.2863
     37  CB        -3.5800   25.7770  -34.9640 C.3    22  SER22       0.2116
     38  OG        -3.6770   24.6490  -35.8190 O.3    22  SER22      -0.2180
     39  N         -2.0110   29.4390  -31.3930 N.3    24  TRP24      -0.1241
     40  CA        -0.8610   28.8740  -30.6860 C.3    24  TRP24       0.1605
     41  C         -0.6360   29.6630  -29.3890 C.2    24  TRP24       0.2264
     42  O         -0.7820   30.8960  -29.3840 O.2    24  TRP24      -0.2867
     43  CB         0.3800   28.9390  -31.6020 C.3    24  TRP24       0.0550
     44  CG         1.3860   27.8620  -31.3690 C.ar   24  TRP24       0.0003
     45  CD1        2.3170   27.8010  -30.3570 C.ar   24  TRP24       0.0946
     46  CD2        1.6050   26.6920  -32.1830 C.ar   24  TRP24       0.0152
     47  NE1        3.0770   26.6560  -30.4830 N.ar   24  TRP24      -0.2442
     48  CE2        2.6630   25.9610  -31.5930 C.ar   24  TRP24       0.0810
     49  CE3        1.0040   26.1930  -33.3480 C.ar   24  TRP24       0.0012
     50  CZ2        3.1280   24.7550  -32.1260 C.ar   24  TRP24       0.0191
     51  CZ3        1.4740   25.0010  -33.8830 C.ar   24  TRP24       0.0001
     52  CH2        2.5260   24.2950  -33.2710 C.ar   24  TRP24       0.0015
     53  N         13.1820   40.8820  -27.1070 N.3    34  THR34      -0.1218
     54  CA        13.2510   40.3180  -28.4560 C.3    34  THR34       0.1862
     55  C         14.5310   40.6420  -29.1920 C.2    34  THR34       0.2287
     56  O         14.8140   40.0270  -30.2180 O.2    34  THR34      -0.2866
     57  CB        12.1010   40.8360  -29.3640 C.3    34  THR34       0.1770
     58  OG1       12.3290   42.2170  -29.6870 O.3    34  THR34      -0.2211
     59  CG2       10.7290   40.6540  -28.6900 C.3    34  THR34       0.0375
     60  N         14.8390   43.0040  -31.1080 N.3    36  LYS36      -0.1231
     61  CA        14.3990   43.3860  -32.4470 C.3    36  LYS36       0.1693
     62  C         14.1260   44.8940  -32.4810 C.2    36  LYS36       0.2591
     63  O         15.0590   45.6810  -32.5950 O.2    36  LYS36      -0.2718
     64  CB        13.1660   42.5800  -32.8790 C.3    36  LYS36       0.0285
     65  CG        13.3650   41.0520  -32.9190 C.3    36  LYS36       0.0035
     66  CD        14.3710   40.6280  -33.9740 C.3    36  LYS36       0.0206
     67  CE        13.9390   41.0680  -35.3730 C.3    36  LYS36       0.1093
     68  NZ        14.7770   40.4750  -36.4690 N.3    36  LYS36      -0.1314
     69  N         12.8610   45.2890  -32.3550 N.am   37  ARG37      -0.1980
     70  CA        12.4570   46.6970  -32.4550 C.3    37  ARG37       0.1597
     71  C         11.1560   46.8720  -31.6700 C.2    37  ARG37       0.2287
     72  O         10.4970   45.8810  -31.3460 O.2    37  ARG37      -0.2864
     73  CB        12.1980   47.0640  -33.9230 C.3    37  ARG37       0.0334
     74  CG        11.0040   46.2960  -34.4860 C.3    37  ARG37       0.0492
     75  CD        10.7930   46.4160  -35.9920 C.3    37  ARG37       0.2205
     76  NE         9.6100   45.6440  -36.3920 N.pl3  37  ARG37      -0.0865
     77  CZ         9.6360   44.3710  -36.7930 C.cat  37  ARG37       0.5346
     78  NH1       10.7900   43.7170  -36.8950 N.pl3  37  ARG37       0.1354
     79  NH2        8.5070   43.7510  -37.1090 N.pl3  37  ARG37       0.1354
     80  N          4.5100   42.3130  -29.0420 N.3    45  TRP45      -0.1241
     81  CA         5.4330   41.2160  -29.2400 C.3    45  TRP45       0.1605
     82  C          4.9590   40.0440  -28.3780 C.2    45  TRP45       0.2264
     83  O          4.6140   40.2290  -27.2180 O.2    45  TRP45      -0.2867
     84  CB         6.8460   41.6140  -28.8330 C.3    45  TRP45       0.0550
     85  CG         7.5400   42.4140  -29.8680 C.ar   45  TRP45       0.0003
     86  CD1        7.7810   43.7610  -29.8460 C.ar   45  TRP45       0.0946
     87  CD2        8.0920   41.9220  -31.0990 C.ar   45  TRP45       0.0152
     88  NE1        8.4480   44.1360  -30.9970 N.ar   45  TRP45      -0.2442
     89  CE2        8.6590   43.0260  -31.7770 C.ar   45  TRP45       0.0810
     90  CE3        8.1640   40.6550  -31.6930 C.ar   45  TRP45       0.0012
     91  CZ2        9.2930   42.8980  -33.0330 C.ar   45  TRP45       0.0191
     92  CZ3        8.7860   40.5240  -32.9380 C.ar   45  TRP45       0.0001
     93  CH2        9.3510   41.6400  -33.5900 C.ar   45  TRP45       0.0015
     94  N          6.3600   32.5550  -28.3030 N.3    48  TRP48      -0.1241
     95  CA         5.5380   31.3400  -28.4190 C.3    48  TRP48       0.1605
     96  C          6.0140   30.2290  -27.4800 C.2    48  TRP48       0.2264
     97  O          7.2150   29.9340  -27.4460 O.2    48  TRP48      -0.2867
     98  CB         5.5920   30.7960  -29.8530 C.3    48  TRP48       0.0550
     99  CG         5.2170   31.8030  -30.9100 C.ar   48  TRP48       0.0003
    100  CD1        6.0730   32.5240  -31.7170 C.ar   48  TRP48       0.0946
    101  CD2        3.8880   32.1990  -31.2800 C.ar   48  TRP48       0.0152
    102  NE1        5.3470   33.3520  -32.5550 N.ar   48  TRP48      -0.2442
    103  CE2        4.0070   33.1640  -32.3140 C.ar   48  TRP48       0.0810
    104  CE3        2.6040   31.8390  -30.8290 C.ar   48  TRP48       0.0012
    105  CZ2        2.8850   33.7710  -32.9080 C.ar   48  TRP48       0.0191
    106  CZ3        1.4880   32.4390  -31.4220 C.ar   48  TRP48       0.0001
    107  CH2        1.6410   33.3930  -32.4570 C.ar   48  TRP48       0.0015
    108  N          8.4920   26.6330  -29.0080 N.3    51  ASP51      -0.1225
    109  CA         9.7250   26.9450  -29.7420 C.3    51  ASP51       0.1805
    110  C         10.4690   28.1990  -29.2670 C.2    51  ASP51       0.2598
    111  O         11.5910   28.4400  -29.6940 O.2    51  ASP51      -0.2718
    112  CB         9.5330   26.9630  -31.2720 C.3    51  ASP51       0.1424
    113  CG         8.6080   28.0810  -31.7580 C.2    51  ASP51       0.3668
    114  OD1        8.4370   29.1040  -31.0630 O.co2  51  ASP51      -0.2456
    115  OD2        8.0560   27.9430  -32.8770 O.co2  51  ASP51      -0.2456
    116  N          9.8440   28.9930  -28.4000 N.am   52  GLY52      -0.1942
    117  CA        10.5080   30.1480  -27.8160 C.3    52  GLY52       0.2014
    118  C         10.7710   31.3100  -28.7690 C.2    52  GLY52       0.2639
    119  O         11.4800   32.2580  -28.4190 O.2    52  GLY52      -0.2714
    120  N         10.2030   31.2640  -29.9670 N.am   53  LYS53      -0.1963
    121  CA        10.4380   32.3450  -30.9150 C.3    53  LYS53       0.1728
    122  C          9.5210   33.5480  -30.7040 C.2    53  LYS53       0.2616
    123  O          8.5490   33.4620  -29.9510 O.2    53  LYS53      -0.2715
    124  CB        10.3590   31.8220  -32.3460 C.3    53  LYS53       0.0311
    125  CG        11.5560   30.9410  -32.6720 C.3    53  LYS53       0.0038
    126  CD        11.3760   30.1840  -33.9590 C.3    53  LYS53       0.0206
    127  CE        12.6570   29.4260  -34.2700 C.3    53  LYS53       0.1093
    128  NZ        12.5120   28.5920  -35.4840 N.3    53  LYS53      -0.1314
    129  N          9.8340   34.6640  -31.3660 N.am   54  PHE54      -0.1960
    130  CA         9.0410   35.8860  -31.2170 C.3    54  PHE54       0.1771
    131  C          8.2880   36.2610  -32.5050 C.2    54  PHE54       0.2620
    132  O          8.7960   36.0670  -33.6080 O.2    54  PHE54      -0.2715
    133  CB         9.9380   37.0580  -30.8090 C.3    54  PHE54       0.0574
    134  CG        10.7890   36.7950  -29.5960 C.ar   54  PHE54      -0.0200
    135  CD1       10.2410   36.8750  -28.3100 C.ar   54  PHE54      -0.0042
    136  CD2       12.1480   36.4910  -29.7290 C.ar   54  PHE54      -0.0042
    137  CE1       11.0310   36.6490  -27.1710 C.ar   54  PHE54      -0.0003
    138  CE2       12.9520   36.2700  -28.6000 C.ar   54  PHE54      -0.0003
    139  CZ        12.3920   36.3440  -27.3160 C.ar   54  PHE54      -0.0000
    140  N          7.0790   36.8000  -32.3550 N.am   55  SER55      -0.1950
    141  CA         6.3350   37.3880  -33.4640 C.3    55  SER55       0.1924
    142  C          5.7240   38.6890  -32.9710 C.2    55  SER55       0.2314
    143  O          5.3750   38.8110  -31.7820 O.2    55  SER55      -0.2863
    144  CB         5.2030   36.4640  -33.9480 C.3    55  SER55       0.2116
    145  OG         5.6900   35.2350  -34.4730 O.3    55  SER55      -0.2180
@<TRIPOS>BOND
     1    17    16    1
     2    16    15    1
     3    15    14    1
     4    14    13    1
     5    13    10    1
     6    19    18    1
     7    19    20    1
     8    18    11   am
     9    11    10    1
    10    11    12    2
    11    10     9    1
    12    21    20    2
    13    20    22   am
    14     9     3   am
    15    22    23    1
    16    31    32   ar
    17    31    29   ar
    18    32    30   ar
    19     3     4    2
    20     3     2    1
    21    29    27   ar
    22    30    28   ar
    23    23    24    1
    24    23    26    1
    25    27    28   ar
    26    27    26    1
    27    25    24    2
    28     2     5    1
    29     2     1    1
    30    24    33   am
    31     5     6    1
    32     5     7    1
    33    79    77    1
    34     6     8    1
    35    78    77    1
    36    77    76    2
    37    33    34    1
    38    68    67    1
    39    76    75    1
    40    75    74    1
    41    38    37    1
    42    34    37    1
    43    34    35    1
    44   128   127    1
    45    67    66    1
    46    35    36    2
    47    74    73    1
    48   145   144    1
    49   127   126    1
    50    66    65    1
    51   126   125    1
    52   144   141    1
    53    73    70    1
    54    51    49   ar
    55    51    52   ar
    56   132   131    2
    57    93    91   ar
    58    93    92   ar
    59   141   142    1
    60   141   140    1
    61    49    46   ar
    62    52    50   ar
    63    91    89   ar
    64   142   143    2
    65    92    90   ar
    66    65    64    1
    67   105   107   ar
    68   105   103   ar
    69    64    61    1
    70   115   113   ar
    71   125   124    1
    72    63    62    2
    73   102   103   ar
    74   102   100   ar
    75   131   140   am
    76   131   130    1
    77    62    61    1
    78    62    69   am
    79   107   106   ar
    80    70    69    1
    81    70    71    1
    82    61    60    1
    83   124   121    1
    84   103   101   ar
    85    46    48   ar
    86    46    44   ar
    87    50    48   ar
    88    89    87   ar
    89    89    88   ar
    90   113   112    1
    91   113   114   ar
    92   100    99   ar
    93    90    87   ar
    94    71    72    2
    95    43    44    1
    96    43    40    1
    97    48    47   ar
    98   106   104   ar
    99    39    40    1
   100    44    45   ar
   101   129   130    1
   102   129   122   am
   103   101    99   ar
   104   101   104   ar
   105   112   109    1
   106   130   133    1
   107    87    85   ar
   108    88    86   ar
   109   121   122    1
   110   121   120    1
   111    99    98    1
   112   133   134    1
   113   122   123    2
   114    40    41    1
   115    47    45   ar
   116    56    55    2
   117   120   118   am
   118    85    86   ar
   119    85    84    1
   120    98    95    1
   121   109   110    1
   122   109   108    1
   123   136   134   ar
   124   136   138   ar
   125   111   110    2
   126    58    57    1
   127   134   135   ar
   128    41    42    2
   129    57    59    1
   130    57    54    1
   131   110   116   am
   132    81    80    1
   133    81    84    1
   134    81    82    1
   135    55    54    1
   136   118   119    2
   137   118   117    1
   138   138   139   ar
   139    54    53    1
   140    95    94    1
   141    95    96    1
   142   116   117    1
   143    82    83    2
   144   135   137   ar
   145    96    97    2
   146   139   137   ar
