@<TRIPOS>MOLECULE
tmp/5cixA01.pdb
 103 99 0 0 0
SMALL
GASTEIGER

@<TRIPOS>ATOM
      1  N        -21.6600  -19.5200  -13.8050 N.3    69  VAL69      -0.1231
      2  CA       -21.3680  -18.1870  -14.3610 C.3    69  VAL69       0.1692
      3  C        -19.9600  -17.7600  -13.8920 C.2    69  VAL69       0.2592
      4  O        -19.6580  -16.5650  -13.7830 O.2    69  VAL69      -0.2718
      5  CB       -22.4160  -17.0760  -13.9780 C.3    69  VAL69       0.0266
      6  CG1      -22.4760  -16.0300  -15.0830 C.3    69  VAL69       0.0020
      7  CG2      -23.8390  -17.6290  -13.7470 C.3    69  VAL69       0.0020
      8  N        -19.0990  -18.7450  -13.6410 N.am   70  TYR70      -0.1962
      9  CA       -17.7080  -18.4710  -13.2770 C.3    70  TYR70       0.1771
     10  C        -16.8890  -18.2340  -14.5310 C.2    70  TYR70       0.2619
     11  O        -16.9400  -19.0060  -15.4750 O.2    70  TYR70      -0.2715
     12  CB       -17.0940  -19.6180  -12.4850 C.3    70  TYR70       0.0574
     13  CG       -17.4830  -19.7190  -11.0190 C.ar   70  TYR70      -0.0198
     14  CD1      -18.6040  -19.0800  -10.5060 C.ar   70  TYR70      -0.0009
     15  CD2      -16.7190  -20.5080  -10.1470 C.ar   70  TYR70      -0.0009
     16  CE1      -18.9490  -19.2040   -9.1670 C.ar   70  TYR70       0.0417
     17  CE2      -17.0430  -20.6180   -8.8130 C.ar   70  TYR70       0.0417
     18  CZ       -18.1600  -19.9720   -8.3360 C.ar   70  TYR70       0.1957
     19  OH       -18.4620  -20.0960   -7.0170 O.3    70  TYR70      -0.2866
     20  N        -16.0770  -17.1970  -14.5160 N.am   71  ILE71      -0.1963
     21  CA       -15.0910  -16.9650  -15.5690 C.3    71  ILE71       0.1727
     22  C        -13.9540  -17.9300  -15.2890 C.2    71  ILE71       0.2616
     23  O        -13.4010  -17.9260  -14.1920 O.2    71  ILE71      -0.2715
     24  CB       -14.6760  -15.4890  -15.5430 C.3    71  ILE71       0.0290
     25  CG1      -15.8920  -14.6230  -15.9050 C.3    71  ILE71       0.0022
     26  CG2      -13.4810  -15.2740  -16.4420 C.3    71  ILE71       0.0023
     27  CD1      -15.6870  -13.1460  -15.6760 C.3    71  ILE71       0.0001
     28  N        -13.6040  -18.7430  -16.2900 N.am   72  MET72      -0.1977
     29  CA       -12.5270  -19.6950  -16.2320 C.3    72  MET72       0.1605
     30  C        -11.2070  -19.1200  -16.7830 C.2    72  MET72       0.2287
     31  O        -10.1290  -19.4210  -16.2780 O.2    72  MET72      -0.2864
     32  CB       -12.8850  -20.9640  -17.0820 C.3    72  MET72       0.0413
     33  CG       -14.1110  -21.7620  -16.6120 C.3    72  MET72       0.0598
     34  SD       -13.8490  -22.4120  -14.9540 S.3    72  MET72      -0.1393
     35  CE       -14.4680  -21.1660  -13.8720 C.3    72  MET72       0.0692
     36  N         -7.3970  -19.2290  -14.8290 N.3    83  PHE83      -0.1241
     37  CA        -7.0970  -19.1380  -13.3780 C.3    83  PHE83       0.1605
     38  C         -6.3540  -20.3600  -12.9060 C.2    83  PHE83       0.2264
     39  O         -6.3740  -21.4050  -13.5730 O.2    83  PHE83      -0.2867
     40  CB        -8.3650  -18.9700  -12.5420 C.3    83  PHE83       0.0534
     41  CG        -9.0060  -17.6000  -12.6440 C.ar   83  PHE83      -0.0203
     42  CD1       -8.3630  -16.4820  -12.1390 C.ar   83  PHE83      -0.0042
     43  CD2      -10.2930  -17.4470  -13.1740 C.ar   83  PHE83      -0.0042
     44  CE1       -8.9310  -15.2370  -12.2130 C.ar   83  PHE83      -0.0003
     45  CE2      -10.8770  -16.1870  -13.2230 C.ar   83  PHE83      -0.0003
     46  CZ       -10.1950  -15.0870  -12.7360 C.ar   83  PHE83      -0.0000
     47  N         -6.6710  -22.9560  -10.9160 N.3    85  GLU85      -0.1245
     48  CA        -7.6820  -23.7550  -10.2310 C.3    85  GLU85       0.1567
     49  C         -8.1370  -24.9210  -11.1770 C.2    85  GLU85       0.2260
     50  O         -8.1360  -24.7990  -12.4400 O.2    85  GLU85      -0.2867
     51  CB        -8.8550  -22.8680   -9.7850 C.3    85  GLU85       0.0388
     52  CG        -9.7160  -22.4850  -10.9930 C.3    85  GLU85       0.1160
     53  CD       -10.6290  -21.2870  -10.8030 C.2    85  GLU85       0.3649
     54  OE1      -10.4900  -20.5810   -9.7760 O.co2  85  GLU85      -0.2457
     55  OE2      -11.4830  -21.0430  -11.7280 O.co2  85  GLU85      -0.2457
     56  N         -9.5370  -17.7480   -9.2730 N.3   109  GLY109     -0.1210
     57  CA       -10.5100  -16.6780   -9.5430 C.3   109  GLY109      0.1956
     58  C        -11.4760  -16.2360   -8.4600 C.2   109  GLY109      0.2612
     59  O        -12.4350  -15.5390   -8.7500 O.2   109  GLY109     -0.2717
     60  N        -11.3140  -16.6480   -7.2210 N.am  110  ASN110     -0.1960
     61  CA       -12.2630  -16.1620   -6.2220 C.3   110  ASN110      0.1819
     62  C        -11.8950  -14.8340   -5.6640 C.2   110  ASN110      0.2621
     63  O        -10.7760  -14.3890   -5.6670 O.2   110  ASN110     -0.2715
     64  CB       -12.4780  -17.1220   -5.0950 C.3   110  ASN110      0.1195
     65  CG       -11.2340  -17.3140   -4.2880 C.2   110  ASN110      0.2630
     66  OD1      -10.9240  -16.5380   -3.3800 O.2   110  ASN110     -0.2716
     67  ND2      -10.5020  -18.3570   -4.6210 N.am  110  ASN110     -0.0877
     68  N        -12.9000  -14.1610   -5.1910 N.am  111  TYR111     -0.1974
     69  CA       -12.7330  -12.7800   -4.8870 C.3   111  TYR111      0.1639
     70  C        -11.6170  -12.5990   -3.8610 C.2   111  TYR111      0.2290
     71  O        -10.8670  -11.6370   -3.9200 O.2   111  TYR111     -0.2864
     72  CB       -14.0030  -12.2510   -4.3190 C.3   111  TYR111      0.0560
     73  CG       -15.0510  -11.8980   -5.3260 C.ar  111  TYR111     -0.0198
     74  CD1      -14.7390  -11.1520   -6.4560 C.ar  111  TYR111     -0.0009
     75  CD2      -16.3820  -12.2410   -5.1110 C.ar  111  TYR111     -0.0009
     76  CE1      -15.7190  -10.7490   -7.3510 C.ar  111  TYR111      0.0417
     77  CE2      -17.3670  -11.8550   -6.0000 C.ar  111  TYR111      0.0417
     78  CZ       -17.0310  -11.0920   -7.1180 C.ar  111  TYR111      0.1957
     79  OH       -17.9970  -10.7130   -8.0350 O.3   111  TYR111     -0.2866
     80  N        -15.5730   -9.5120  -13.8130 N.3   155  ILE155     -0.1245
     81  CA       -16.5060  -10.3460  -13.0970 C.3   155  ILE155      0.1561
     82  C        -17.7720   -9.6460  -12.6890 C.2   155  ILE155      0.2260
     83  O        -18.8750  -10.1740  -12.9440 O.2   155  ILE155     -0.2867
     84  CB       -15.8110  -11.0420  -11.8800 C.3   155  ILE155      0.0252
     85  CG1      -14.8410  -12.0790  -12.3990 C.3   155  ILE155      0.0019
     86  CG2      -16.8020  -11.7070  -10.9610 C.3   155  ILE155      0.0019
     87  CD1      -13.8710  -12.5220  -11.3100 C.3   155  ILE155      0.0001
     88  N        -20.7160  -11.2760  -15.0580 N.3   159  ALA159     -0.1245
     89  CA       -21.3750  -12.3500  -14.2800 C.3   159  ALA159      0.1562
     90  C        -22.2540  -11.8660  -13.2030 C.2   159  ALA159      0.2260
     91  O        -23.4040  -12.3630  -13.0850 O.2   159  ALA159     -0.2867
     92  CB       -20.3390  -13.2900  -13.6610 C.3   159  ALA159      0.0290
     93  N        -26.4280  -12.1480  -12.8160 N.3   163  ARG163     -0.1245
     94  CA       -27.0570  -12.7740  -11.6710 C.3   163  ARG163      0.1563
     95  C        -28.0690  -11.9440  -11.0160 C.2   163  ARG163      0.2260
     96  O        -29.1060  -12.5020  -10.5240 O.2   163  ARG163     -0.2867
     97  CB       -26.0230  -13.1790  -10.6160 C.3   163  ARG163      0.0307
     98  CG       -25.1700  -14.3600  -11.0360 C.3   163  ARG163      0.0489
     99  CD       -23.9630  -14.5460  -10.1370 C.3   163  ARG163      0.2205
    100  NE       -23.0710  -15.6600  -10.4910 N.pl3 163  ARG163     -0.0865
    101  CZ       -21.7730  -15.6640  -10.1890 C.cat 163  ARG163      0.5346
    102  NH1      -21.2670  -14.6190   -9.5670 N.pl3 163  ARG163      0.1354
    103  NH2      -20.9880  -16.6800  -10.4760 N.pl3 163  ARG163      0.1354
@<TRIPOS>BOND
     1    32    33    1
     2    32    29    1
     3    30    31    2
     4    30    29    1
     5    33    34    1
     6    26    24    1
     7    28    29    1
     8    28    22   am
     9    25    27    1
    10    25    24    1
    11    21    24    1
    12    21    22    1
    13    21    20    1
    14    11    10    2
    15    22    23    2
    16     6     5    1
    17    88    89    1
    18    34    35    1
    19    36    37    1
    20    10    20   am
    21    10     9    1
    22     2     5    1
    23     2     3    1
    24     2     1    1
    25    89    92    1
    26    89    90    1
    27     5     7    1
    28     3     4    2
    29     3     8   am
    30    80    81    1
    31     8     9    1
    32    39    38    2
    33    37    38    1
    34    37    40    1
    35     9    12    1
    36    45    43   ar
    37    45    46   ar
    38    90    91    2
    39    43    41   ar
    40    81    82    1
    41    81    84    1
    42    83    82    2
    43    93    94    1
    44    46    44   ar
    45    41    40    1
    46    41    42   ar
    47    12    13    1
    48    50    49    2
    49    85    84    1
    50    85    87    1
    51    44    42   ar
    52    84    86    1
    53    55    53   ar
    54    94    95    1
    55    94    97    1
    56    49    48    1
    57    98    97    1
    58    98    99    1
    59    13    14   ar
    60    13    15   ar
    61    95    96    2
    62    52    53    1
    63    52    51    1
    64    47    48    1
    65    53    54   ar
    66    14    16   ar
    67   100   101    2
    68   100    99    1
    69   103   101    1
    70    48    51    1
    71   101   102    1
    72    15    17   ar
    73    57    56    1
    74    57    58    1
    75    16    18   ar
    76    17    18   ar
    77    59    58    2
    78    58    60   am
    79    18    19    1
    80    79    78    1
    81    76    78   ar
    82    76    74   ar
    83    60    61    1
    84    78    77   ar
    85    74    73   ar
    86    61    62    1
    87    61    64    1
    88    77    75   ar
    89    63    62    2
    90    62    68   am
    91    73    75   ar
    92    73    72    1
    93    68    69    1
    94    64    65    1
    95    69    72    1
    96    69    70    1
    97    67    65   am
    98    65    66    2
    99    71    70    2
