@<TRIPOS>MOLECULE
tmp/5cj3B01.pdb
 195 185 0 0 0
SMALL
GASTEIGER

@<TRIPOS>ATOM
      1  N         17.5560  -13.1430   20.0930 N.3    56  GLN56      -0.1245
      2  CA        17.0650  -12.5460   21.3420 C.3    56  GLN56       0.1566
      3  C         16.6370  -11.0860   21.1410 C.2    56  GLN56       0.2260
      4  O         15.8210  -10.5560   21.9000 O.2    56  GLN56      -0.2867
      5  CB        18.1440  -12.6590   22.4450 C.3    56  GLN56       0.0367
      6  CG        17.7430  -12.1150   23.8320 C.3    56  GLN56       0.0905
      7  CD        16.5170  -12.7980   24.4150 C.2    56  GLN56       0.2608
      8  OE1       16.3260  -14.0020   24.2430 O.2    56  GLN56      -0.2717
      9  NE2       15.6830  -12.0280   25.1280 N.am   56  GLN56      -0.0878
     10  N         12.4380  -10.6990   21.0860 N.3    59  PRO59      -0.2102
     11  CA        11.6400  -10.4340   22.2940 C.3    59  PRO59       0.1504
     12  C         12.0530   -9.1500   23.0360 C.2    59  PRO59       0.2576
     13  O         11.2060   -8.4650   23.6210 O.2    59  PRO59      -0.2718
     14  CB        11.8930  -11.6730   23.1820 C.3    59  PRO59       0.0282
     15  CG        13.0350  -12.3990   22.5690 C.3    59  PRO59       0.0208
     16  CD        13.0600  -12.0360   21.1170 C.3    59  PRO59       0.0893
     17  N         13.3390   -8.8170   22.9690 N.am   60  ASP60      -0.1960
     18  CA        13.8360   -7.5790   23.5510 C.3    60  ASP60       0.1840
     19  C         13.2810   -6.3470   22.8420 C.2    60  ASP60       0.2622
     20  O         13.5230   -5.2290   23.2930 O.2    60  ASP60      -0.2715
     21  CB        15.3810   -7.5350   23.5270 C.3    60  ASP60       0.1450
     22  CG        16.0170   -8.5210   24.5000 C.2    60  ASP60       0.3671
     23  OD1       15.2780   -9.2070   25.2380 O.co2  60  ASP60      -0.2456
     24  OD2       17.2660   -8.6130   24.5280 O.co2  60  ASP60      -0.2456
     25  N         12.5160   -6.5330   21.7640 N.am   61  ASN61      -0.1958
     26  CA        11.8640   -5.3920   21.1180 C.3    61  ASN61       0.1819
     27  C         10.3730   -5.6010   20.9790 C.2    61  ASN61       0.2622
     28  O          9.6890   -4.8280   20.2950 O.2    61  ASN61      -0.2715
     29  CB        12.4780   -5.1310   19.7500 C.3    61  ASN61       0.1195
     30  CG        13.7870   -4.3900   19.8500 C.2    61  ASN61       0.2630
     31  OD1       14.8630   -4.9920   19.9830 O.2    61  ASN61      -0.2716
     32  ND2       13.7060   -3.0700   19.8170 N.am   61  ASN61      -0.0877
     33  N          9.8670   -6.6400   21.6390 N.am   62  THR62      -0.1937
     34  CA         8.4710   -7.0080   21.5100 C.3    62  THR62       0.2028
     35  C          7.6670   -6.5630   22.7240 C.2    62  THR62       0.2642
     36  O          8.0990   -6.7190   23.8740 O.2    62  THR62      -0.2714
     37  CB         8.3420   -8.5200   21.2950 C.3    62  THR62       0.1808
     38  OG1        8.9640   -8.8290   20.0470 O.3    62  THR62      -0.2208
     39  CG2        6.8730   -8.9440   21.2180 C.3    62  THR62       0.0379
     40  N          6.5190   -5.9540   22.4410 N.am   63  GLN63      -0.1976
     41  CA         5.6370   -5.4160   23.4750 C.3    63  GLN63       0.1601
     42  C          4.2120   -5.8670   23.2200 C.2    63  GLN63       0.2287
     43  O          3.8740   -6.2840   22.1170 O.2    63  GLN63      -0.2864
     44  CB         5.6900   -3.8840   23.4910 C.3    63  GLN63       0.0394
     45  CG         7.0340   -3.3740   23.9160 C.3    63  GLN63       0.0908
     46  CD         7.1260   -1.8780   23.8610 C.2    63  GLN63       0.2608
     47  OE1        7.0900   -1.2150   24.8960 O.2    63  GLN63      -0.2717
     48  NE2        7.2590   -1.3340   22.6580 N.am   63  GLN63      -0.0878
     49  N          0.0740   -4.5200   24.9060 N.3    65  TRP65      -0.1241
     50  CA        -0.7090   -3.8340   25.9210 C.3    65  TRP65       0.1605
     51  C         -1.8620   -4.7480   26.3040 C.2    65  TRP65       0.2264
     52  O         -2.4910   -5.3500   25.4370 O.2    65  TRP65      -0.2867
     53  CB        -1.2420   -2.4710   25.4240 C.3    65  TRP65       0.0550
     54  CG        -0.4100   -1.2860   25.8740 C.ar   65  TRP65       0.0003
     55  CD1       -0.7020   -0.4070   26.8830 C.ar   65  TRP65       0.0946
     56  CD2        0.8510   -0.8770   25.3380 C.ar   65  TRP65       0.0152
     57  NE1        0.3000    0.5290   27.0000 N.ar   65  TRP65      -0.2442
     58  CE2        1.2720    0.2530   26.0710 C.ar   65  TRP65       0.0810
     59  CE3        1.6690   -1.3590   24.3140 C.ar   65  TRP65       0.0012
     60  CZ2        2.4610    0.9100   25.7990 C.ar   65  TRP65       0.0191
     61  CZ3        2.8600   -0.7180   24.0650 C.ar   65  TRP65       0.0001
     62  CH2        3.2410    0.4090   24.7980 C.ar   65  TRP65       0.0015
     63  N         -5.3860   -4.3620   28.5490 N.3    67  ARG67      -0.1245
     64  CA        -6.2710   -3.5160   29.3500 C.3    67  ARG67       0.1563
     65  C         -6.8000   -4.2700   30.5520 C.2    67  ARG67       0.2260
     66  O         -7.1280   -5.4420   30.4420 O.2    67  ARG67      -0.2867
     67  CB        -7.4440   -3.0300   28.5230 C.3    67  ARG67       0.0307
     68  CG        -7.0670   -2.3580   27.2360 C.3    67  ARG67       0.0489
     69  CD        -6.1710   -1.1550   27.4610 C.3    67  ARG67       0.2205
     70  NE        -6.0060   -0.4150   26.2110 N.pl3  67  ARG67      -0.0865
     71  CZ        -5.0870    0.5280   26.0240 C.cat  67  ARG67       0.5346
     72  NH1       -4.2340    0.8360   27.0010 N.pl3  67  ARG67       0.1354
     73  NH2       -5.0250    1.1610   24.8630 N.pl3  67  ARG67       0.1354
     74  N         13.3630   -3.9150   38.3320 N.3    86  TYR86      -0.1227
     75  CA        13.2760   -3.9270   36.8700 C.3    86  TYR86       0.1736
     76  C         14.6420   -3.7280   36.2090 C.2    86  TYR86       0.2595
     77  O         14.8960   -4.2330   35.1120 O.2    86  TYR86      -0.2718
     78  CB        12.2830   -2.8650   36.3840 C.3    86  TYR86       0.0548
     79  CG        11.9030   -3.0470   34.9300 C.ar   86  TYR86      -0.0200
     80  CD1       10.8440   -3.8770   34.5690 C.ar   86  TYR86      -0.0009
     81  CD2       12.6120   -2.3990   33.9180 C.ar   86  TYR86      -0.0009
     82  CE1       10.4920   -4.0560   33.2320 C.ar   86  TYR86       0.0417
     83  CE2       12.2790   -2.5770   32.5850 C.ar   86  TYR86       0.0417
     84  CZ        11.2130   -3.4040   32.2520 C.ar   86  TYR86       0.1957
     85  OH        10.8800   -3.5820   30.9400 O.3    86  TYR86      -0.2866
     86  N         15.5250   -2.9960   36.8770 N.am   87  ALA87      -0.1980
     87  CA        16.8640   -2.7310   36.3490 C.3    87  ALA87       0.1597
     88  C         17.7170   -3.9890   36.1800 C.2    87  ALA87       0.2287
     89  O         18.6550   -4.0020   35.3880 O.2    87  ALA87      -0.2864
     90  CB        17.5900   -1.7370   37.2600 C.3    87  ALA87       0.0319
     91  N         18.0390   -7.2610   34.5760 N.3    89  ALA89      -0.1245
     92  CA        17.4280   -7.9590   33.4370 C.3    89  ALA89       0.1562
     93  C         17.6290   -9.4690   33.4670 C.2    89  ALA89       0.2260
     94  O         17.2480  -10.1510   32.5220 O.2    89  ALA89      -0.2867
     95  CB        17.9730   -7.3970   32.1090 C.3    89  ALA89       0.0290
     96  N          7.3140   -3.0460   36.9980 N.3    95  THR95      -0.1218
     97  CA         7.5010   -1.6770   37.4720 C.3    95  THR95       0.1862
     98  C          6.4000   -1.2760   38.4460 C.2    95  THR95       0.2287
     99  O          5.3890   -1.9730   38.5910 O.2    95  THR95      -0.2866
    100  CB         7.4890   -0.6540   36.3220 C.3    95  THR95       0.1770
    101  OG1        6.1510   -0.5310   35.8240 O.3    95  THR95      -0.2211
    102  CG2        8.4130   -1.0700   35.1930 C.3    95  THR95       0.0375
    103  N          2.2480    3.7410   37.2570 N.3    98  ARG98      -0.1245
    104  CA         2.4280    5.1740   37.0370 C.3    98  ARG98       0.1563
    105  C          1.2780    5.7790   36.2430 C.2    98  ARG98       0.2260
    106  O          0.6010    5.0940   35.4750 O.2    98  ARG98      -0.2867
    107  CB         3.7550    5.4480   36.3250 C.3    98  ARG98       0.0307
    108  CG         3.8220    4.9950   34.8850 C.3    98  ARG98       0.0489
    109  CD         5.2170    5.2230   34.3210 C.3    98  ARG98       0.2205
    110  NE         5.2920    4.9410   32.8900 N.pl3  98  ARG98      -0.0865
    111  CZ         5.2020    5.8690   31.9430 C.cat  98  ARG98       0.5346
    112  NH1        5.0320    7.1430   32.2750 N.pl3  98  ARG98       0.1354
    113  NH2        5.2840    5.5220   30.6630 N.pl3  98  ARG98       0.1354
    114  N         -3.4790    8.5850   29.3340 N.3   102  TRP102     -0.1241
    115  CA        -4.6910    7.8020   29.1290 C.3   102  TRP102      0.1605
    116  C         -5.1460    6.9630   30.3280 C.2   102  TRP102      0.2264
    117  O         -6.1120    6.2110   30.2130 O.2   102  TRP102     -0.2867
    118  CB        -4.5010    6.8690   27.9330 C.3   102  TRP102      0.0550
    119  CG        -3.3260    5.9340   28.0530 C.ar  102  TRP102      0.0003
    120  CD1       -3.3240    4.6720   28.5780 C.ar  102  TRP102      0.0946
    121  CD2       -1.9820    6.1880   27.6280 C.ar  102  TRP102      0.0152
    122  NE1       -2.0660    4.1290   28.5090 N.ar  102  TRP102     -0.2442
    123  CE2       -1.2220    5.0450   27.9350 C.ar  102  TRP102      0.0810
    124  CE3       -1.3480    7.2780   27.0260 C.ar  102  TRP102      0.0012
    125  CZ2        0.1380    4.9580   27.6590 C.ar  102  TRP102      0.0191
    126  CZ3        0.0030    7.1870   26.7490 C.ar  102  TRP102      0.0001
    127  CH2        0.7300    6.0360   27.0630 C.ar  102  TRP102      0.0015
    128  N         -0.7570    2.6540   34.3630 N.3   105  GLU105     -0.1245
    129  CA        -0.2490    1.3510   33.9130 C.3   105  GLU105      0.1567
    130  C          1.0660    0.9640   34.5680 C.2   105  GLU105      0.2260
    131  O          1.7640    1.8080   35.1150 O.2   105  GLU105     -0.2867
    132  CB        -0.1210    1.3130   32.3800 C.3   105  GLU105      0.0388
    133  CG         0.7910    2.2910   31.7140 C.3   105  GLU105      0.1160
    134  CD         0.8110    2.0730   30.1860 C.2   105  GLU105      0.3649
    135  OE1        1.9130    1.9250   29.6170 O.co2 105  GLU105     -0.2457
    136  OE2       -0.2760    2.0270   29.5660 O.co2 105  GLU105     -0.2457
    137  N          4.5750   -1.8250   33.8240 N.3   107  GLY107     -0.1225
    138  CA         5.2120   -2.6770   32.8450 C.3   107  GLY107      0.1811
    139  C          5.6660   -3.9710   33.4870 C.2   107  GLY107      0.2280
    140  O          6.0900   -3.9830   34.6430 O.2   107  GLY107     -0.2866
    141  N          8.1810   -7.2770   32.4880 N.3   109  ARG109     -0.1245
    142  CA         9.0780   -7.9450   31.5490 C.3   109  ARG109      0.1563
    143  C          9.1050   -9.4280   31.8930 C.2   109  ARG109      0.2260
    144  O          9.4530   -9.7920   33.0180 O.2   109  ARG109     -0.2867
    145  CB        10.4910   -7.3470   31.6170 C.3   109  ARG109      0.0307
    146  CG        11.4800   -7.9090   30.5940 C.3   109  ARG109      0.0489
    147  CD        12.9000   -7.3590   30.8660 C.3   109  ARG109      0.2205
    148  NE        13.3510   -7.8110   32.1790 N.pl3 109  ARG109     -0.0865
    149  CZ        13.7530   -6.9990   33.1570 C.cat 109  ARG109      0.5346
    150  NH1       13.7950   -5.6930   32.9600 N.pl3 109  ARG109      0.1354
    151  NH2       14.1150   -7.4950   34.3340 N.pl3 109  ARG109      0.1354
    152  N         11.9350  -11.7740   27.7420 N.3   113  GLY113     -0.1225
    153  CA        12.3480  -10.4120   27.4530 C.3   113  GLY113      0.1811
    154  C         11.2280   -9.5070   26.9460 C.2   113  GLY113      0.2280
    155  O         11.4290   -8.3020   26.8040 O.2   113  GLY113     -0.2866
    156  N          8.0720   -7.1110   26.9030 N.3   115  LEU115     -0.1245
    157  CA         7.5540   -6.1010   27.8090 C.3   115  LEU115      0.1561
    158  C          6.0490   -5.9720   27.6200 C.2   115  LEU115      0.2260
    159  O          5.5900   -5.5400   26.5670 O.2   115  LEU115     -0.2867
    160  CB         8.2470   -4.7580   27.5650 C.3   115  LEU115      0.0270
    161  CG         7.6620   -3.5380   28.2870 C.3   115  LEU115      0.0019
    162  CD1        7.5150   -3.7640   29.7970 C.3   115  LEU115      0.0001
    163  CD2        8.5310   -2.3060   27.9910 C.3   115  LEU115      0.0001
    164  N          2.5800   -4.2030   28.8780 N.3   117  HIS117     -0.1241
    165  CA         2.0430   -3.0740   29.6130 C.3   117  HIS117      0.1621
    166  C          0.6340   -3.3810   30.0780 C.2   117  HIS117      0.2264
    167  O         -0.2630   -3.6170   29.2660 O.2   117  HIS117     -0.2867
    168  CB         2.0390   -1.8280   28.7450 C.3   117  HIS117      0.0745
    169  CG         3.3800   -1.4810   28.1700 C.ar  117  HIS117      0.0817
    170  ND1        4.1380   -0.4360   28.6500 N.ar  117  HIS117     -0.2268
    171  CD2        4.0740   -2.0050   27.1340 C.ar  117  HIS117      0.1154
    172  CE1        5.2530   -0.3390   27.9410 C.ar  117  HIS117      0.1986
    173  NE2        5.2430   -1.2890   27.0210 N.ar  117  HIS117     -0.2212
    174  N         -7.4850    2.1770   31.6620 N.3   121  LEU121     -0.1245
    175  CA        -7.9050    3.4210   31.0060 C.3   121  LEU121      0.1561
    176  C         -8.7890    4.2610   31.9120 C.2   121  LEU121      0.2260
    177  O         -9.6730    3.7330   32.5920 O.2   121  LEU121     -0.2867
    178  CB        -8.6660    3.1200   29.7090 C.3   121  LEU121      0.0270
    179  CG        -7.8680    2.3780   28.6370 C.3   121  LEU121      0.0019
    180  CD1       -8.6890    2.1610   27.3640 C.3   121  LEU121      0.0001
    181  CD2       -6.5850    3.1310   28.3470 C.3   121  LEU121      0.0001
    182  N        -10.8080    8.1170   28.6140 N.3   125  ALA125     -0.1231
    183  CA       -10.0510    7.4610   27.5460 C.3   125  ALA125      0.1694
    184  C        -10.8070    6.2690   26.9570 C.2   125  ALA125      0.2591
    185  O        -10.4780    5.8110   25.8620 O.2   125  ALA125     -0.2718
    186  CB        -8.6870    7.0150   28.0600 C.3   125  ALA125      0.0304
    187  N        -11.8100    5.7860   27.6920 N.am  126  GLU126     -0.1979
    188  CA       -12.7110    4.6950   27.2800 C.3   126  GLU126      0.1602
    189  C        -12.0410    3.5990   26.4510 C.2   126  GLU126      0.2287
    190  O        -12.6780    2.9630   25.6070 O.2   126  GLU126     -0.2864
    191  CB       -13.9180    5.2550   26.5050 C.3   126  GLU126      0.0415
    192  CG       -13.6090    5.9260   25.1640 C.3   126  GLU126      0.1163
    193  CD       -13.6320    7.4430   25.2470 C.2   126  GLU126      0.3649
    194  OE1      -13.4700    7.9750   26.3630 O.co2 126  GLU126     -0.2457
    195  OE2      -13.8150    8.1030   24.1990 O.co2 126  GLU126     -0.2457
@<TRIPOS>BOND
     1    29    30    1
     2    29    26    1
     3    32    30   am
     4    30    31    2
     5    38    37    1
     6     1     2    1
     7    28    27    2
     8    27    26    1
     9    27    33   am
    10    10    16    1
    11    10    11    1
    12    16    15    1
    13    26    25    1
    14     3     2    1
    15     3     4    2
    16    39    37    1
    17    37    34    1
    18     2     5    1
    19    34    33    1
    20    34    35    1
    21    25    19   am
    22    43    42    2
    23    11    12    1
    24    11    14    1
    25    40    35   am
    26    40    41    1
    27     5     6    1
    28    15    14    1
    29    48    46   am
    30    35    36    2
    31    19    20    2
    32    19    18    1
    33    17    12   am
    34    17    18    1
    35    12    13    2
    36    42    41    1
    37    41    44    1
    38    44    45    1
    39    21    18    1
    40    21    22    1
    41     6     7    1
    42    46    45    1
    43    46    47    2
    44    61    59   ar
    45    61    62   ar
    46   195   193   ar
    47     8     7    2
    48    59    56   ar
    49     7     9   am
    50    22    24   ar
    51    22    23   ar
    52    62    60   ar
    53    73    71    1
    54    49    50    1
    55   192   193    1
    56   192   191    1
    57   193   194   ar
    58    56    54   ar
    59    56    58   ar
    60    53    54    1
    61    53    50    1
    62    52    51    2
    63   190   189    2
    64    60    58   ar
    65   185   184    2
    66    54    55   ar
    67    50    51    1
    68    71    70    2
    69    71    72    1
    70    58    57   ar
    71    70    69    1
    72   189   188    1
    73   191   188    1
    74   159   158    2
    75   126   124   ar
    76   126   127   ar
    77   155   154    2
    78    55    57   ar
    79   156   157    1
    80   154   153    1
    81   184   183    1
    82   184   187   am
    83   173   171   ar
    84   173   172   ar
    85   124   121   ar
    86   127   125   ar
    87   171   169   ar
    88    68    69    1
    89    68    67    1
    90   188   187    1
    91   180   179    1
    92   153   152    1
    93   183   186    1
    94   183   182    1
    95   160   157    1
    96   160   161    1
    97   158   157    1
    98   121   123   ar
    99   121   119   ar
   100   125   123   ar
   101   118   119    1
   102   118   115    1
   103   123   122   ar
   104   172   170   ar
   105   163   161    1
   106   119   120   ar
   107   169   170   ar
   108   169   168    1
   109   161   162    1
   110   181   179    1
   111   122   120   ar
   112    67    64    1
   113    63    64    1
   114   179   178    1
   115   168   165    1
   116   164   165    1
   117   115   114    1
   118   115   116    1
   119   167   166    2
   120    64    65    1
   121   136   134   ar
   122   165   166    1
   123   135   134   ar
   124   178   175    1
   125   134   133    1
   126   117   116    2
   127    66    65    2
   128   146   147    1
   129   146   145    1
   130   113   111    1
   131   147   148    1
   132    85    84    1
   133   175   174    1
   134   175   176    1
   135   142   145    1
   136   142   143    1
   137   142   141    1
   138   133   132    1
   139   143   144    2
   140   176   177    2
   141   111   112    1
   142   111   110    2
   143    95    92    1
   144   148   149    2
   145    84    83   ar
   146    84    82   ar
   147   132   129    1
   148    94    93    2
   149    83    81   ar
   150   138   139    1
   151   138   137    1
   152   110   109    1
   153   150   149    1
   154   149   151    1
   155    82    80   ar
   156    92    93    1
   157    92    91    1
   158   139   140    2
   159   129   128    1
   160   129   130    1
   161    81    79   ar
   162   109   108    1
   163   130   131    2
   164    80    79   ar
   165   108   107    1
   166    79    78    1
   167    77    76    2
   168   102   100    1
   169    89    88    2
   170   106   105    2
   171   101   100    1
   172    88    87    1
   173    76    75    1
   174    76    86   am
   175   105   104    1
   176   100    97    1
   177   107   104    1
   178    87    86    1
   179    87    90    1
   180    78    75    1
   181    75    74    1
   182    96    97    1
   183   104   103    1
   184    97    98    1
   185    98    99    2
