@<TRIPOS>MOLECULE
tmp/5cj6A01.pdb
 181 170 0 0 0
SMALL
GASTEIGER

@<TRIPOS>ATOM
      1  N        -31.6450    0.0730    2.8510 N.3    31  LEU31      -0.1245
      2  CA       -31.7820   -0.1900    1.4230 C.3    31  LEU31       0.1561
      3  C        -32.9470    0.5770    0.7950 C.2    31  LEU31       0.2260
      4  O        -32.8490    1.0170   -0.3500 O.2    31  LEU31      -0.2867
      5  CB       -31.8540   -1.6980    1.1260 C.3    31  LEU31       0.0270
      6  CG       -30.5240   -2.4350    0.9210 C.3    31  LEU31       0.0019
      7  CD1      -29.8140   -1.9930   -0.3690 C.3    31  LEU31       0.0001
      8  CD2      -29.5910   -2.2680    2.0890 C.3    31  LEU31       0.0001
      9  N        -31.4260    3.8600    0.2450 N.3    34  LEU34      -0.1231
     10  CA       -30.4810    3.7440   -0.8720 C.3    34  LEU34       0.1693
     11  C        -31.2060    3.7320   -2.2180 C.2    34  LEU34       0.2592
     12  O        -30.7460    4.3580   -3.1750 O.2    34  LEU34      -0.2718
     13  CB       -29.5840    2.5080   -0.7300 C.3    34  LEU34       0.0284
     14  CG       -28.3420    2.6170    0.1720 C.3    34  LEU34       0.0019
     15  CD1      -27.5930    1.2930    0.1750 C.3    34  LEU34       0.0001
     16  CD2      -27.4050    3.7520   -0.2570 C.3    34  LEU34       0.0001
     17  N        -32.3410    3.0380   -2.2850 N.am   35  ASN35      -0.1974
     18  CA       -33.1350    2.9720   -3.5220 C.3    35  ASN35       0.1688
     19  C        -33.7490    4.3210   -3.9010 C.2    35  ASN35       0.2292
     20  O        -33.7710    4.6880   -5.0750 O.2    35  ASN35      -0.2864
     21  CB       -34.2260    1.8850   -3.4250 C.3    35  ASN35       0.1181
     22  CG       -33.6430    0.4760   -3.3380 C.2    35  ASN35       0.2629
     23  OD1      -32.4940    0.2360   -3.7260 O.2    35  ASN35      -0.2716
     24  ND2      -34.4290   -0.4550   -2.8210 N.am   35  ASN35      -0.0877
     25  N        -32.5150    7.2600   -3.0040 N.3    37  LEU37      -0.1231
     26  CA       -31.3500    7.9910   -3.4790 C.3    37  LEU37       0.1693
     27  C        -30.9640    7.5910   -4.9060 C.2    37  LEU37       0.2592
     28  O        -30.6730    8.4470   -5.7320 O.2    37  LEU37      -0.2718
     29  CB       -30.1600    7.7890   -2.5260 C.3    37  LEU37       0.0284
     30  CG       -28.8630    8.5270   -2.8910 C.3    37  LEU37       0.0019
     31  CD1      -29.0630   10.0550   -2.8890 C.3    37  LEU37       0.0001
     32  CD2      -27.7710    8.1250   -1.9200 C.3    37  LEU37       0.0001
     33  N        -30.9560    6.2910   -5.1860 N.am   38  GLY38      -0.1957
     34  CA       -30.6090    5.8060   -6.5150 C.3    38  GLY38       0.1869
     35  C        -31.4740    6.4630   -7.5750 C.2    38  GLY38       0.2309
     36  O        -30.9610    6.9310   -8.5970 O.2    38  GLY38      -0.2863
     37  N        -30.6400   10.2090   -7.9710 N.3    41  GLN41      -0.1245
     38  CA       -29.4140   10.2670   -8.7730 C.3    41  GLN41       0.1566
     39  C        -29.6600    9.9890  -10.2580 C.2    41  GLN41       0.2260
     40  O        -29.0580   10.6300  -11.1080 O.2    41  GLN41      -0.2867
     41  CB       -28.3420    9.3160   -8.2260 C.3    41  GLN41       0.0367
     42  CG       -27.7950    9.7010   -6.8450 C.3    41  GLN41       0.0905
     43  CD       -26.8090   10.8730   -6.8740 C.2    41  GLN41       0.2608
     44  OE1      -26.7000   11.5990   -7.8690 O.2    41  GLN41      -0.2717
     45  NE2      -26.0880   11.0590   -5.7700 N.am   41  GLN41      -0.0878
     46  N        -25.6390    3.8740  -15.7140 N.3    71  TRP71      -0.1227
     47  CA       -26.1160    4.4840  -14.4930 C.3    71  TRP71       0.1737
     48  C        -25.3830    4.0090  -13.2360 C.2    71  TRP71       0.2595
     49  O        -24.8810    4.8310  -12.4740 O.2    71  TRP71      -0.2718
     50  CB       -27.6230    4.2400  -14.3770 C.3    71  TRP71       0.0564
     51  CG       -28.2320    4.4880  -13.0410 C.ar   71  TRP71       0.0003
     52  CD1      -28.2610    5.6680  -12.3450 C.ar   71  TRP71       0.0946
     53  CD2      -28.9590    3.5400  -12.2540 C.ar   71  TRP71       0.0152
     54  NE1      -28.9460    5.5010  -11.1600 N.ar   71  TRP71      -0.2442
     55  CE2      -29.3820    4.2040  -11.0810 C.ar   71  TRP71       0.0810
     56  CE3      -29.2810    2.1830  -12.4210 C.ar   71  TRP71       0.0012
     57  CZ2      -30.1170    3.5600  -10.0770 C.ar   71  TRP71       0.0191
     58  CZ3      -30.0020    1.5350  -11.4160 C.ar   71  TRP71       0.0001
     59  CH2      -30.4130    2.2290  -10.2590 C.ar   71  TRP71       0.0015
     60  N        -25.3440    2.6910  -13.0180 N.am   72  MET72      -0.1979
     61  CA       -24.7320    2.1370  -11.8060 C.3    72  MET72       0.1605
     62  C        -23.2670    2.5530  -11.6490 C.2    72  MET72       0.2287
     63  O        -22.8730    3.0100  -10.5760 O.2    72  MET72      -0.2864
     64  CB       -24.8560    0.6060  -11.7590 C.3    72  MET72       0.0413
     65  CG       -24.3600   -0.0130  -10.4320 C.3    72  MET72       0.0598
     66  SD       -25.3830    0.4510   -9.0160 S.3    72  MET72      -0.1393
     67  CE       -26.8930   -0.4590   -9.3890 C.3    72  MET72       0.0692
     68  N        -22.8990    6.3040  -10.8810 N.3    75  MET75      -0.1230
     69  CA       -23.2090    6.5240   -9.4590 C.3    75  MET75       0.1702
     70  C        -22.0670    6.1110   -8.5310 C.2    75  MET75       0.2592
     71  O        -21.6920    6.8650   -7.6360 O.2    75  MET75      -0.2718
     72  CB       -24.4620    5.7600   -9.0460 C.3    75  MET75       0.0401
     73  CG       -25.7550    6.5220   -9.2340 C.3    75  MET75       0.0596
     74  SD       -27.1020    5.9290   -8.1690 S.3    75  MET75      -0.1393
     75  CE       -26.9760    4.1430   -8.3140 C.3    75  MET75       0.0692
     76  N        -21.5150    4.9210   -8.7530 N.am   76  VAL76      -0.1980
     77  CA       -20.3810    4.4300   -7.9660 C.3    76  VAL76       0.1595
     78  C        -19.1650    5.3560   -8.0750 C.2    76  VAL76       0.2287
     79  O        -18.5540    5.7070   -7.0660 O.2    76  VAL76      -0.2864
     80  CB       -19.9820    2.9920   -8.3900 C.3    76  VAL76       0.0276
     81  CG1      -18.6630    2.5910   -7.7800 C.3    76  VAL76       0.0022
     82  CG2      -21.0350    2.0230   -7.9530 C.3    76  VAL76       0.0022
     83  N        -19.8710    8.7220   -6.3580 N.3    79  MET79      -0.1245
     84  CA       -19.9280    8.4980   -4.9150 C.3    79  MET79       0.1570
     85  C        -18.5150    8.3140   -4.3400 C.2    79  MET79       0.2261
     86  O        -18.1940    8.8470   -3.2770 O.2    79  MET79      -0.2867
     87  CB       -20.8240    7.3010   -4.5940 C.3    79  MET79       0.0387
     88  CG       -21.0930    7.1040   -3.1050 C.3    79  MET79       0.0595
     89  SD       -19.7730    6.1620   -2.3340 S.3    79  MET79      -0.1393
     90  CE       -20.2460    4.4980   -2.8290 C.3    79  MET79       0.0692
     91  N        -17.0620   11.8590   -4.0650 N.3    82  ARG82      -0.1245
     92  CA       -17.6770   12.4990   -2.8770 C.3    82  ARG82       0.1563
     93  C        -17.0620   11.9910   -1.5840 C.2    82  ARG82       0.2260
     94  O        -16.7970   12.7630   -0.6580 O.2    82  ARG82      -0.2867
     95  CB       -19.1790   12.1910   -2.7850 C.3    82  ARG82       0.0307
     96  CG       -20.0500   12.9130   -3.7560 C.3    82  ARG82       0.0489
     97  CD       -21.4910   12.9070   -3.2810 C.3    82  ARG82       0.2205
     98  NE       -22.1260   11.5870   -3.3080 N.pl3  82  ARG82      -0.0865
     99  CZ       -22.5230   10.9560   -4.4100 C.cat  82  ARG82       0.5346
    100  NH1      -23.1250    9.7730   -4.3130 N.pl3  82  ARG82       0.1354
    101  NH2      -22.3160   11.4920   -5.6150 N.pl3  82  ARG82       0.1354
    102  N        -22.6070    8.3340    0.4650 N.3    94  PHE94      -0.1241
    103  CA       -23.6740    8.2400   -0.5300 C.3    94  PHE94       0.1605
    104  C        -24.4120    9.5780   -0.6860 C.2    94  PHE94       0.2264
    105  O        -24.7140   10.0060   -1.8000 O.2    94  PHE94      -0.2867
    106  CB       -24.6760    7.1690   -0.1210 C.3    94  PHE94       0.0534
    107  CG       -24.1500    5.7790   -0.2230 C.ar   94  PHE94      -0.0203
    108  CD1      -23.7050    5.1060    0.9160 C.ar   94  PHE94      -0.0042
    109  CD2      -24.1260    5.1270   -1.4460 C.ar   94  PHE94      -0.0042
    110  CE1      -23.2390    3.7980    0.8340 C.ar   94  PHE94      -0.0003
    111  CE2      -23.6590    3.8200   -1.5430 C.ar   94  PHE94      -0.0003
    112  CZ       -23.2120    3.1570   -0.4090 C.ar   94  PHE94      -0.0000
    113  N        -24.1800   -5.4630    2.4010 N.3   110  MET110     -0.1245
    114  CA       -23.4300   -5.0240    1.2310 C.3   110  MET110      0.1570
    115  C        -21.9570   -4.8460    1.5610 C.2   110  MET110      0.2261
    116  O        -21.2340   -4.1690    0.8250 O.2   110  MET110     -0.2867
    117  CB       -23.9580   -3.6650    0.7680 C.3   110  MET110      0.0387
    118  CG       -25.0750   -3.7190   -0.2310 C.3   110  MET110      0.0595
    119  SD       -25.6230   -2.0580   -0.6970 S.3   110  MET110     -0.1393
    120  CE       -24.1910   -1.4570   -1.5790 C.3   110  MET110      0.0692
    121  N        -16.0110   -0.5540   -3.2100 N.3   117  MET117     -0.1245
    122  CA       -16.2800    0.8770   -3.4660 C.3   117  MET117      0.1570
    123  C        -15.3670    1.8280   -2.6910 C.2   117  MET117      0.2261
    124  O        -14.9330    2.8590   -3.2190 O.2   117  MET117     -0.2867
    125  CB       -17.7420    1.2110   -3.1810 C.3   117  MET117      0.0387
    126  CG       -18.7000    0.5070   -4.1340 C.3   117  MET117      0.0595
    127  SD       -20.3880    1.0840   -3.9310 S.3   117  MET117     -0.1393
    128  CE       -20.9310    0.0770   -2.5560 C.3   117  MET117      0.0692
    129  N        -22.5490   -4.6620   -8.0510 N.3   199  LEU199     -0.1245
    130  CA       -23.7330   -3.9260   -7.5860 C.3   199  LEU199      0.1561
    131  C        -24.9650   -4.2820   -8.3910 C.2   199  LEU199      0.2260
    132  O        -26.0680   -4.3480   -7.8410 O.2   199  LEU199     -0.2867
    133  CB       -23.4980   -2.4130   -7.5800 C.3   199  LEU199      0.0270
    134  CG       -22.5700   -2.0010   -6.4210 C.3   199  LEU199      0.0019
    135  CD1      -22.0670   -0.6030   -6.6510 C.3   199  LEU199      0.0001
    136  CD2      -23.3030   -2.0720   -5.1040 C.3   199  LEU199      0.0001
    137  N        -26.1230   -7.6640   -7.0280 N.3   202  PHE202     -0.1227
    138  CA       -26.7440   -7.4450   -5.7180 C.3   202  PHE202      0.1736
    139  C        -28.1400   -6.8120   -5.8460 C.2   202  PHE202      0.2596
    140  O        -29.0960   -7.2510   -5.1960 O.2   202  PHE202     -0.2718
    141  CB       -25.8350   -6.5840   -4.8180 C.3   202  PHE202      0.0547
    142  CG       -26.4480   -6.2480   -3.4770 C.ar  202  PHE202     -0.0202
    143  CD1      -26.2790   -7.1010   -2.3910 C.ar  202  PHE202     -0.0042
    144  CD2      -27.1850   -5.0780   -3.3070 C.ar  202  PHE202     -0.0042
    145  CE1      -26.8410   -6.8010   -1.1500 C.ar  202  PHE202     -0.0003
    146  CE2      -27.7580   -4.7640   -2.0740 C.ar  202  PHE202     -0.0003
    147  CZ       -27.5870   -5.6350   -0.9890 C.ar  202  PHE202     -0.0000
    148  N        -28.2500   -5.7850   -6.6810 N.am  203  THR203     -0.1953
    149  CA       -29.5130   -5.0540   -6.8680 C.3   203  THR203      0.1897
    150  C        -30.6140   -5.9310   -7.5010 C.2   203  THR203      0.2313
    151  O        -31.7830   -5.8880   -7.0970 O.2   203  THR203     -0.2863
    152  CB       -29.2810   -3.8000   -7.7500 C.3   203  THR203      0.1794
    153  OG1      -28.2210   -3.0140   -7.1860 O.3   203  THR203     -0.2208
    154  CG2      -30.5490   -2.9400   -7.8280 C.3   203  THR203      0.0378
    155  N        -31.7370   -8.4530   -4.9190 N.3   206  LEU206     -0.1245
    156  CA       -32.5730   -7.7470   -3.9700 C.3   206  LEU206      0.1561
    157  C        -33.9810   -7.4680   -4.5370 C.2   206  LEU206      0.2260
    158  O        -34.9690   -7.6990   -3.8520 O.2   206  LEU206     -0.2867
    159  CB       -31.8910   -6.4690   -3.4700 C.3   206  LEU206      0.0270
    160  CG       -32.6170   -5.6750   -2.3780 C.3   206  LEU206      0.0019
    161  CD1      -32.9040   -6.5280   -1.1510 C.3   206  LEU206      0.0001
    162  CD2      -31.8050   -4.4300   -1.9910 C.3   206  LEU206      0.0001
    163  N        -38.7750   -0.4930   -3.6420 N.3   217  PHE217     -0.1241
    164  CA       -38.1930   -0.0040   -4.8910 C.3   217  PHE217      0.1605
    165  C        -39.1430    0.9700   -5.5670 C.2   217  PHE217      0.2264
    166  O        -40.3030    0.6340   -5.8040 O.2   217  PHE217     -0.2867
    167  CB       -37.8930   -1.1570   -5.8530 C.3   217  PHE217      0.0534
    168  CG       -36.6180   -1.8810   -5.5500 C.ar  217  PHE217     -0.0203
    169  CD1      -36.6070   -2.9360   -4.6530 C.ar  217  PHE217     -0.0042
    170  CD2      -35.4240   -1.5080   -6.1690 C.ar  217  PHE217     -0.0042
    171  CE1      -35.4370   -3.6090   -4.3640 C.ar  217  PHE217     -0.0003
    172  CE2      -34.2360   -2.1800   -5.8860 C.ar  217  PHE217     -0.0003
    173  CZ       -34.2440   -3.2320   -4.9770 C.ar  217  PHE217     -0.0000
    174  N        -37.0380    2.5930  -10.8780 N.3   221  MET221     -0.1245
    175  CA       -35.9270    1.7210  -10.4910 C.3   221  MET221      0.1570
    176  C        -36.2570    0.2710  -10.7980 C.2   221  MET221      0.2261
    177  O        -35.4850   -0.4200  -11.4560 O.2   221  MET221     -0.2867
    178  CB       -35.6300    1.8430   -8.9930 C.3   221  MET221      0.0387
    179  CG       -34.2830    2.4490   -8.6430 C.3   221  MET221      0.0595
    180  SD       -33.5810    1.6860   -7.1550 S.3   221  MET221     -0.1393
    181  CE       -32.0290    2.5550   -7.0750 C.3   221  MET221      0.0692
@<TRIPOS>BOND
     1    46    47    1
     2    47    50    1
     3    47    48    1
     4    50    51    1
     5    48    60   am
     6    48    49    2
     7    51    52   ar
     8    51    53   ar
     9    60    61    1
    10    56    53   ar
    11    56    58   ar
    12    52    54   ar
    13    53    55   ar
    14    61    64    1
    15    61    62    1
    16    64    65    1
    17    62    63    2
    18   177   176    2
    19    58    59   ar
    20    54    55   ar
    21    40    39    2
    22    55    57   ar
    23    68    69    1
    24   174   175    1
    25   176   175    1
    26   175   178    1
    27    65    66    1
    28    59    57   ar
    29    39    38    1
    30    69    72    1
    31    69    70    1
    32    67    66    1
    33    73    72    1
    34    73    74    1
    35   178   179    1
    36    38    41    1
    37    38    37    1
    38    76    70   am
    39    76    77    1
    40   179   180    1
    41    36    35    2
    42    70    71    2
    43   131   132    2
    44   131   130    1
    45    80    77    1
    46    80    82    1
    47    80    81    1
    48    75    74    1
    49    41    42    1
    50    78    77    1
    51    78    79    2
    52   129   130    1
    53    44    43    2
    54   154   152    1
    55   152   153    1
    56   152   149    1
    57   130   133    1
    58   133   134    1
    59    35    34    1
    60   150   151    2
    61   150   149    1
    62   180   181    1
    63   137   138    1
    64    43    42    1
    65    43    45   am
    66   149   148    1
    67   148   139   am
    68   135   134    1
    69    34    33    1
    70   134   136    1
    71    83    84    1
    72   170   172   ar
    73   170   168   ar
    74   172   173   ar
    75   167   168    1
    76   167   164    1
    77   139   138    1
    78   139   140    2
    79   166   165    2
    80    28    27    2
    81   138   141    1
    82   101    99    1
    83   165   164    1
    84   168   169   ar
    85    33    27   am
    86    20    19    2
    87   173   171   ar
    88   155   156    1
    89    84    87    1
    90    84    85    1
    91    27    26    1
    92   164   163    1
    93   141   142    1
    94   169   171   ar
    95    87    88    1
    96   157   156    1
    97   157   158    2
    98    99   100    1
    99    99    98    2
   100    85    86    2
   101   126   127    1
   102   126   125    1
   103    91    92    1
   104   156   159    1
   105   127   128    1
   106    19    18    1
   107    96    97    1
   108    96    95    1
   109    23    22    2
   110    18    21    1
   111    18    17    1
   112    26    25    1
   113    26    29    1
   114   142   144   ar
   115   142   143   ar
   116   159   160    1
   117   122   121    1
   118   122   125    1
   119   122   123    1
   120    21    22    1
   121    22    24   am
   122    98    97    1
   123   144   146   ar
   124   124   123    2
   125    12    11    2
   126    88    89    1
   127    30    31    1
   128    30    29    1
   129    30    32    1
   130    92    95    1
   131    92    93    1
   132    90    89    1
   133   143   145   ar
   134   160   162    1
   135   160   161    1
   136    17    11   am
   137    11    10    1
   138   146   147   ar
   139   105   104    2
   140    93    94    2
   141   120   119    1
   142   111   109   ar
   143   111   112   ar
   144   109   107   ar
   145   145   147   ar
   146    10    13    1
   147    10     9    1
   148    13    14    1
   149   119   118    1
   150   104   103    1
   151   103   106    1
   152   103   102    1
   153   112   110   ar
   154     7     6    1
   155     4     3    2
   156    16    14    1
   157   118   117    1
   158   107   106    1
   159   107   108   ar
   160    14    15    1
   161   117   114    1
   162     3     2    1
   163   116   115    2
   164   110   108   ar
   165     6     5    1
   166     6     8    1
   167     5     2    1
   168   114   115    1
   169   114   113    1
   170     2     1    1
