@<TRIPOS>MOLECULE
tmp/5cjfA00.pdb
 168 163 0 0 0
SMALL
GASTEIGER

@<TRIPOS>ATOM
      1  N         80.2600   38.7560   -6.2240 N.3     1  HIS1       -0.1241
      2  CA        80.8870   40.1050   -6.1380 C.3     1  HIS1        0.1621
      3  C         80.9270   40.6510   -4.7150 C.2     1  HIS1        0.2264
      4  O         82.0070   40.8610   -4.1630 O.2     1  HIS1       -0.2867
      5  CB        80.1680   41.0970   -7.0680 C.3     1  HIS1        0.0745
      6  CG        78.7090   40.8130   -7.2610 C.ar    1  HIS1        0.0817
      7  ND1       77.9270   41.5300   -8.1400 N.ar    1  HIS1       -0.2268
      8  CD2       77.8950   39.8800   -6.7090 C.ar    1  HIS1        0.1154
      9  CE1       76.6950   41.0520   -8.1220 C.ar    1  HIS1        0.1986
     10  NE2       76.6500   40.0500   -7.2620 N.ar    1  HIS1       -0.2212
     11  N         62.9950   28.6950    0.5910 N.3    87  GLN87      -0.1245
     12  CA        64.2890   28.1850    1.0170 C.3    87  GLN87       0.1566
     13  C         64.6060   28.5710    2.4540 C.2    87  GLN87       0.2260
     14  O         63.9120   29.3830    3.0650 O.2    87  GLN87      -0.2867
     15  CB        65.3920   28.7340    0.0950 C.3    87  GLN87       0.0367
     16  CG        65.3680   30.2690   -0.0850 C.3    87  GLN87       0.0905
     17  CD        66.3540   31.0170    0.8110 C.2    87  GLN87       0.2608
     18  OE1       66.6790   30.5720    1.9110 O.2    87  GLN87      -0.2717
     19  NE2       66.8200   32.1760    0.3420 N.am   87  GLN87      -0.0878
     20  N         68.2680   29.0400    5.0960 N.3    89  HIS89      -0.1241
     21  CA        69.7150   29.1120    5.0840 C.3    89  HIS89       0.1621
     22  C         70.1780   29.5390    6.4650 C.2    89  HIS89       0.2264
     23  O         69.3550   29.8450    7.3340 O.2    89  HIS89      -0.2867
     24  CB        70.1960   30.1090    4.0210 C.3    89  HIS89       0.0745
     25  CG        69.6710   31.4970    4.2160 C.ar   89  HIS89       0.0817
     26  ND1       68.4820   31.9540    3.6890 N.ar   89  HIS89      -0.2268
     27  CD2       70.1700   32.5240    4.9490 C.ar   89  HIS89       0.1154
     28  CE1       68.3000   33.2130    4.1140 C.ar   89  HIS89       0.1986
     29  NE2       69.2980   33.6020    4.8810 N.ar   89  HIS89      -0.2212
     30  N         73.2570   31.6420    9.1360 N.3    91  HIS91      -0.1241
     31  CA        74.2480   32.6920    9.3510 C.3    91  HIS91       0.1621
     32  C         75.0010   32.2770   10.6180 C.2    91  HIS91       0.2264
     33  O         74.3840   31.8440   11.5940 O.2    91  HIS91      -0.2867
     34  CB        73.5670   34.0450    9.5710 C.3    91  HIS91       0.0745
     35  CG        72.8280   34.5540    8.3710 C.ar   91  HIS91       0.0817
     36  ND1       73.4190   35.2370    7.3300 N.ar   91  HIS91      -0.2268
     37  CD2       71.5130   34.4660    8.0510 C.ar   91  HIS91       0.1154
     38  CE1       72.4610   35.5380    6.4340 C.ar   91  HIS91       0.1986
     39  NE2       71.2850   35.0880    6.8270 N.ar   91  HIS91      -0.2212
     40  N         67.2020   31.1650    8.9530 N.3   115  HIS115     -0.1241
     41  CA        66.2070   31.9620    8.2490 C.3   115  HIS115      0.1621
     42  C         65.4140   31.0610    7.3170 C.2   115  HIS115      0.2264
     43  O         65.9920   30.3730    6.4790 O.2   115  HIS115     -0.2867
     44  CB        66.8830   33.0720    7.4320 C.3   115  HIS115      0.0745
     45  CG        67.4500   34.1740    8.2730 C.ar  115  HIS115      0.0817
     46  ND1       68.3530   35.0770    7.7690 N.ar  115  HIS115     -0.2268
     47  CD2       67.1870   34.4740    9.5700 C.ar  115  HIS115      0.1154
     48  CE1       68.6200   35.9060    8.7620 C.ar  115  HIS115      0.1986
     49  NE2       67.9350   35.5800    9.8760 N.ar  115  HIS115     -0.2212
     50  N         62.8140   31.3760    4.5160 N.3   117  VAL117     -0.1245
     51  CA        62.2720   32.3740    3.5950 C.3   117  VAL117      0.1561
     52  C         61.0150   31.9830    2.8240 C.2   117  VAL117      0.2260
     53  O         60.9830   30.9460    2.1650 O.2   117  VAL117     -0.2867
     54  CB        63.3690   32.7690    2.5780 C.3   117  VAL117      0.0252
     55  CG1       62.8930   33.9110    1.6870 C.3   117  VAL117      0.0019
     56  CG2       64.6450   33.1550    3.3310 C.3   117  VAL117      0.0019
     57  N         59.7950   34.0070   -5.8970 N.3   127  LEU127     -0.1231
     58  CA        60.5030   34.6050   -4.7810 C.3   127  LEU127      0.1693
     59  C         61.2250   35.8610   -5.2380 C.2   127  LEU127      0.2592
     60  O         61.2040   36.8900   -4.5670 O.2   127  LEU127     -0.2718
     61  CB        61.5220   33.6180   -4.2060 C.3   127  LEU127      0.0284
     62  CG        62.5710   34.1930   -3.2440 C.3   127  LEU127      0.0019
     63  CD1       61.9020   34.5490   -1.9260 C.3   127  LEU127      0.0001
     64  CD2       63.6940   33.1880   -3.0080 C.3   127  LEU127      0.0001
     65  N         61.8590   35.7720   -6.4060 N.am  128  SER128     -0.1952
     66  CA        62.6100   36.8960   -6.9590 C.3   128  SER128      0.1924
     67  C         61.7280   38.1130   -7.1940 C.2   128  SER128      0.2314
     68  O         62.1170   39.2370   -6.8720 O.2   128  SER128     -0.2863
     69  CB        63.2890   36.4880   -8.2720 C.3   128  SER128      0.2116
     70  OG        62.3370   36.1630   -9.2720 O.3   128  SER128     -0.2180
     71  N         60.5770   39.5840   -3.8790 N.3   131  ALA131     -0.1231
     72  CA        61.6950   40.1410   -3.1290 C.3   131  ALA131      0.1694
     73  C         61.8680   41.6550   -3.2430 C.2   131  ALA131      0.2591
     74  O         62.4870   42.2780   -2.3800 O.2   131  ALA131     -0.2718
     75  CB        62.9860   39.4400   -3.5370 C.3   131  ALA131      0.0304
     76  N         61.3170   42.2500   -4.2960 N.am  132  GLU132     -0.1979
     77  CA        61.4500   43.6890   -4.5020 C.3   132  GLU132      0.1602
     78  C         60.2070   44.4730   -4.0910 C.2   132  GLU132      0.2287
     79  O         60.1710   45.6960   -4.2340 O.2   132  GLU132     -0.2864
     80  CB        61.7460   43.9750   -5.9810 C.3   132  GLU132      0.0415
     81  CG        62.6480   42.9430   -6.6500 C.3   132  GLU132      0.1163
     82  CD        62.9680   43.2800   -8.0980 C.2   132  GLU132      0.3649
     83  OE1       62.0570   43.7190   -8.8280 O.co2 132  GLU132     -0.2457
     84  OE2       64.1300   43.0910   -8.5090 O.co2 132  GLU132     -0.2457
     85  N         58.0030   39.4300    1.0790 N.3   137  LEU137     -0.1245
     86  CA        58.5450   38.2420    1.7300 C.3   137  LEU137      0.1561
     87  C         58.2200   38.1980    3.2170 C.2   137  LEU137      0.2260
     88  O         57.9580   39.2240    3.8510 O.2   137  LEU137     -0.2867
     89  CB        60.0700   38.1900    1.5890 C.3   137  LEU137      0.0270
     90  CG        60.7230   38.4000    0.2240 C.3   137  LEU137      0.0019
     91  CD1       62.2380   38.2570    0.3730 C.3   137  LEU137      0.0001
     92  CD2       60.1870   37.3980   -0.7760 C.3   137  LEU137      0.0001
     93  N         60.0550   36.2350    6.4220 N.3   139  VAL139     -0.1245
     94  CA        61.1520   35.3720    6.8420 C.3   139  VAL139      0.1561
     95  C         61.0230   35.0760    8.3250 C.2   139  VAL139      0.2260
     96  O         60.6470   35.9490    9.1120 O.2   139  VAL139     -0.2867
     97  CB        62.5310   36.0300    6.5910 C.3   139  VAL139      0.0252
     98  CG1       63.6590   35.0820    7.0230 C.3   139  VAL139      0.0019
     99  CG2       62.6830   36.3680    5.1110 C.3   139  VAL139      0.0019
    100  N         66.0520   42.5120    3.4670 N.3   196  LEU196     -0.1231
    101  CA        66.9170   41.3620    3.2380 C.3   196  LEU196      0.1693
    102  C         68.1700   41.7840    4.0020 C.2   196  LEU196      0.2593
    103  O         68.4840   42.9790    4.0480 O.2   196  LEU196     -0.2718
    104  CB        67.2690   41.2360    1.7540 C.3   196  LEU196      0.0284
    105  CG        66.1180   41.1010    0.7570 C.3   196  LEU196      0.0019
    106  CD1       66.6870   40.9030   -0.6440 C.3   196  LEU196      0.0001
    107  CD2       65.2420   39.9170    1.1440 C.3   196  LEU196      0.0001
    108  N         68.8840   40.8350    4.6020 N.am  197  THR197     -0.1939
    109  CA        70.0890   41.1940    5.3490 C.3   197  THR197      0.2028
    110  C         71.3370   41.0630    4.4840 C.2   197  THR197      0.2643
    111  O         72.4570   41.1170    4.9860 O.2   197  THR197     -0.2714
    112  CB        70.2740   40.3310    6.6080 C.3   197  THR197      0.1808
    113  OG1       70.5110   38.9770    6.2170 O.3   197  THR197     -0.2208
    114  CG2       69.0400   40.4080    7.5030 C.3   197  THR197      0.0379
    115  N         71.1350   40.8700    3.1830 N.am  198  THR198     -0.1937
    116  CA        72.2460   40.7970    2.2400 C.3   198  THR198      0.2013
    117  C         71.8370   41.6450    1.0420 C.2   198  THR198      0.2484
    118  O         70.6550   41.9540    0.8700 O.2   198  THR198     -0.2729
    119  CB        72.5090   39.3520    1.7360 C.3   198  THR198      0.1807
    120  OG1       71.3600   38.8740    1.0250 O.3   198  THR198     -0.2208
    121  CG2       72.7990   38.4160    2.9020 C.3   198  THR198      0.0379
    122  N         72.8080   42.0610    0.2140 N.am  199  PRO199     -0.2715
    123  CA        72.4610   42.8650   -0.9620 C.3   199  PRO199      0.1521
    124  C         71.4310   42.0700   -1.7640 C.2   199  PRO199      0.2440
    125  O         71.4770   40.8370   -1.7730 O.2   199  PRO199     -0.2731
    126  CB        73.7940   42.9770   -1.6970 C.3   199  PRO199      0.0310
    127  CG        74.7770   43.0550   -0.5710 C.3   199  PRO199      0.0237
    128  CD        74.2720   41.9680    0.3760 C.3   199  PRO199      0.0939
    129  N         70.5150   42.7500   -2.4760 N.am  200  PRO200     -0.2727
    130  CA        70.3360   44.2000   -2.6230 C.3   200  PRO200      0.1402
    131  C         69.7110   44.9270   -1.4310 C.2   200  PRO200      0.2269
    132  O         69.4230   46.1220   -1.5250 O.2   200  PRO200     -0.2865
    133  CB        69.4470   44.3190   -3.8700 C.3   200  PRO200      0.0296
    134  CG        69.6480   43.0230   -4.5900 C.3   200  PRO200      0.0237
    135  CD        69.6770   42.0380   -3.4520 C.3   200  PRO200      0.0939
    136  N         66.7070   44.8400   -0.2260 N.3   202  TYR202     -0.1241
    137  CA        65.3570   45.3540   -0.4580 C.3   202  TYR202      0.1605
    138  C         64.5420   45.3420    0.8300 C.2   202  TYR202      0.2264
    139  O         64.6060   44.3890    1.6020 O.2   202  TYR202     -0.2867
    140  CB        64.6400   44.5180   -1.5190 C.3   202  TYR202      0.0534
    141  CG        65.2550   44.6150   -2.8990 C.ar  202  TYR202     -0.0201
    142  CD1       65.6080   45.8540   -3.4400 C.ar  202  TYR202     -0.0009
    143  CD2       65.4520   43.4760   -3.6770 C.ar  202  TYR202     -0.0009
    144  CE1       66.1430   45.9540   -4.7240 C.ar  202  TYR202      0.0417
    145  CE2       65.9850   43.5650   -4.9650 C.ar  202  TYR202      0.0417
    146  CZ        66.3260   44.8060   -5.4800 C.ar  202  TYR202      0.1957
    147  OH        66.8440   44.9040   -6.7550 O.3   202  TYR202     -0.2866
    148  N         60.7850   42.6570    3.5340 N.3   205  VAL205     -0.1245
    149  CA        60.5440   41.5820    4.4900 C.3   205  VAL205      0.1561
    150  C         59.6960   41.8810    5.7140 C.2   205  VAL205      0.2260
    151  O         59.9420   42.8440    6.4390 O.2   205  VAL205     -0.2867
    152  CB        61.8960   40.9960    5.0000 C.3   205  VAL205      0.0252
    153  CG1       61.6470   39.7420    5.8390 C.3   205  VAL205      0.0019
    154  CG2       62.8070   40.6740    3.8240 C.3   205  VAL205      0.0019
    155  N         59.3480   40.5980    8.9610 N.3   207  TRP207     -0.1241
    156  CA        60.1170   39.7190    9.8380 C.3   207  TRP207      0.1605
    157  C         59.3880   39.1650   11.0520 C.2   207  TRP207      0.2264
    158  O         58.5790   39.8490   11.6750 O.2   207  TRP207     -0.2867
    159  CB        61.3690   40.4440   10.3560 C.3   207  TRP207      0.0550
    160  CG        62.5360   40.4000    9.4300 C.ar  207  TRP207      0.0003
    161  CD1       62.9350   41.3760    8.5590 C.ar  207  TRP207      0.0946
    162  CD2       63.4460   39.3100    9.2590 C.ar  207  TRP207      0.0152
    163  NE1       64.0380   40.9570    7.8550 N.ar  207  TRP207     -0.2442
    164  CE2       64.3730   39.6910    8.2650 C.ar  207  TRP207      0.0810
    165  CE3       63.5670   38.0420    9.8490 C.ar  207  TRP207      0.0012
    166  CZ2       65.4130   38.8500    7.8440 C.ar  207  TRP207      0.0191
    167  CZ3       64.6040   37.2050    9.4310 C.ar  207  TRP207      0.0001
    168  CH2       65.5110   37.6140    8.4400 C.ar  207  TRP207      0.0015
@<TRIPOS>BOND
     1    70    69    1
     2    83    82   ar
     3    84    82   ar
     4    69    66    1
     5     7     9   ar
     6     7     6   ar
     7     9    10   ar
     8    82    81    1
     9    10     8   ar
    10     6     5    1
    11     6     8   ar
    12    67    66    1
    13    67    68    2
    14     5     2    1
    15    66    65    1
    16   147   146    1
    17    81    80    1
    18    65    59   am
    19     1     2    1
    20     2     3    1
    21    80    77    1
    22    57    58    1
    23   146   145   ar
    24   146   144   ar
    25    59    58    1
    26    59    60    2
    27   145   143   ar
    28    58    61    1
    29   144   142   ar
    30     3     4    2
    31   134   133    1
    32   134   135    1
    33    77    76    1
    34    77    78    1
    35    76    73   am
    36    79    78    2
    37    61    62    1
    38    71    72    1
    39   133   130    1
    40   143   141   ar
    41    75    72    1
    42   135   129    1
    43   142   141   ar
    44    62    64    1
    45    62    63    1
    46    73    72    1
    47    73    74    2
    48   141   140    1
    49   130   129    1
    50   130   131    1
    51   129   124   am
    52   125   124    2
    53   124   123    1
    54   126   123    1
    55   126   127    1
    56   132   131    2
    57   140   137    1
    58   123   122    1
    59    92    90    1
    60   106   105    1
    61   127   128    1
    62   137   136    1
    63   137   138    1
    64    16    15    1
    65    16    17    1
    66    15    12    1
    67   122   128    1
    68   122   117   am
    69    90    91    1
    70    90    89    1
    71    19    17   am
    72    11    12    1
    73   105   107    1
    74   105   104    1
    75    17    18    2
    76   138   139    2
    77   118   117    2
    78    12    13    1
    79   120   119    1
    80   117   116    1
    81    85    86    1
    82    89    86    1
    83    55    54    1
    84    86    87    1
    85   119   116    1
    86   119   121    1
    87   104   101    1
    88    53    52    2
    89   116   115    1
    90    13    14    2
    91    54    56    1
    92    54    51    1
    93    52    51    1
    94   115   110   am
    95    87    88    2
    96   101   100    1
    97   101   102    1
    98   148   149    1
    99    51    50    1
   100    26    28   ar
   101    26    25   ar
   102   154   152    1
   103   102   103    2
   104   102   108   am
   105    24    25    1
   106    24    21    1
   107    28    29   ar
   108    25    27   ar
   109   110   111    2
   110   110   109    1
   111   149   152    1
   112   149   150    1
   113   108   109    1
   114    29    27   ar
   115   152   153    1
   116    21    20    1
   117    21    22    1
   118    99    97    1
   119   109   112    1
   120   150   151    2
   121   113   112    1
   122    93    94    1
   123    38    39   ar
   124    38    36   ar
   125    22    23    2
   126    43    42    2
   127    97    94    1
   128    97    98    1
   129   112   114    1
   130    39    37   ar
   131    94    95    1
   132    42    41    1
   133    36    35   ar
   134    44    41    1
   135    44    45    1
   136    46    45   ar
   137    46    48   ar
   138   166   164   ar
   139   166   168   ar
   140   163   164   ar
   141   163   161   ar
   142    37    35   ar
   143    41    40    1
   144   164   162   ar
   145    45    47   ar
   146    95    96    2
   147    35    34    1
   148   168   167   ar
   149   161   160   ar
   150    48    49   ar
   151   155   156    1
   152    30    31    1
   153   162   160   ar
   154   162   165   ar
   155    31    34    1
   156    31    32    1
   157   160   159    1
   158   167   165   ar
   159    47    49   ar
   160   156   159    1
   161   156   157    1
   162    32    33    2
   163   157   158    2
