@<TRIPOS>MOLECULE
tmp/5cjmA00.pdb
 117 110 0 0 0
SMALL
GASTEIGER

@<TRIPOS>ATOM
      1  N         26.7090   83.0100   61.3720 N.3   117  VAL117     -0.1231
      2  CA        27.7060   82.7860   60.3410 C.3   117  VAL117      0.1692
      3  C         27.4750   81.4290   59.7010 C.2   117  VAL117      0.2592
      4  O         27.3320   80.4220   60.3960 O.2   117  VAL117     -0.2718
      5  CB        29.1180   82.8390   60.8930 C.3   117  VAL117      0.0266
      6  CG1       30.1200   82.8260   59.7520 C.3   117  VAL117      0.0020
      7  CG2       29.3040   84.0960   61.7570 C.3   117  VAL117      0.0020
      8  N         27.4520   81.4060   58.3680 N.am  118  VAL118     -0.1966
      9  CA        27.0080   80.2290   57.6440 C.3   118  VAL118      0.1712
     10  C         27.7490   80.1370   56.3070 C.2   118  VAL118      0.2458
     11  O         28.0180   81.1580   55.6720 O.2   118  VAL118     -0.2730
     12  CB        25.4680   80.2910   57.4560 C.3   118  VAL118      0.0289
     13  CG1       25.0550   81.6380   56.8440 C.3   118  VAL118      0.0023
     14  CG2       24.9520   79.1330   56.6250 C.3   118  VAL118      0.0023
     15  N         28.1410   78.9140   55.9180 N.am  119  PRO119     -0.2727
     16  CA        28.8450   78.6650   54.6560 C.3   119  PRO119      0.1402
     17  C         28.0040   79.1040   53.4560 C.2   119  PRO119      0.2269
     18  O         26.9040   78.5820   53.2680 O.2   119  PRO119     -0.2865
     19  CB        29.0380   77.1390   54.6510 C.3   119  PRO119      0.0296
     20  CG        28.1300   76.6040   55.7430 C.3   119  PRO119      0.0237
     21  CD        28.0510   77.6990   56.7490 C.3   119  PRO119      0.0939
     22  N         34.6050   78.6780   56.6230 N.3   274  SER274     -0.1217
     23  CA        33.5210   77.6980   56.7360 C.3   274  SER274      0.1889
     24  C         33.1390   76.9730   55.4330 C.2   274  SER274      0.2288
     25  O         32.2780   76.0940   55.4480 O.2   274  SER274     -0.2866
     26  CB        32.2830   78.2850   57.4300 C.3   274  SER274      0.2089
     27  OG        31.7400   79.3760   56.7120 O.3   274  SER274     -0.2183
     28  N         31.6350   87.5380   54.1360 N.3   328  ARG328     -0.1245
     29  CA        33.0530   87.4220   54.4730 C.3   328  ARG328      0.1563
     30  C         33.8560   86.9490   53.2560 C.2   328  ARG328      0.2260
     31  O         33.6580   85.8290   52.7720 O.2   328  ARG328     -0.2867
     32  CB        33.2720   86.4730   55.6670 C.3   328  ARG328      0.0307
     33  CG        34.7410   86.3090   56.0930 C.3   328  ARG328      0.0489
     34  CD        34.9160   85.8480   57.5980 C.3   328  ARG328      0.2205
     35  NE        34.7060   84.4130   57.7990 N.pl3 328  ARG328     -0.0865
     36  CZ        35.1970   83.6990   58.8150 C.cat 328  ARG328      0.5346
     37  NH1       35.9500   84.2770   59.7390 N.pl3 328  ARG328      0.1354
     38  NH2       34.9470   82.3980   58.9070 N.pl3 328  ARG328      0.1354
     39  N         40.1270   80.2900   67.7790 N.3   444  LEU444     -0.1245
     40  CA        40.9330   79.4020   66.9450 C.3   444  LEU444      0.1561
     41  C         42.0640   80.0440   66.1170 C.2   444  LEU444      0.2260
     42  O         43.2350   79.7360   66.3430 O.2   444  LEU444     -0.2867
     43  CB        40.0260   78.5220   66.0950 C.3   444  LEU444      0.0270
     44  CG        39.0840   77.5600   66.8230 C.3   444  LEU444      0.0019
     45  CD1       38.2780   76.7570   65.8090 C.3   444  LEU444      0.0001
     46  CD2       39.8530   76.6200   67.7290 C.3   444  LEU444      0.0001
     47  N         32.6120   82.2250   68.4370 N.3   498  MET498     -0.1245
     48  CA        31.5430   81.2700   68.1610 C.3   498  MET498      0.1570
     49  C         31.3320   80.2460   69.2560 C.2   498  MET498      0.2261
     50  O         32.2960   79.7220   69.8230 O.2   498  MET498     -0.2867
     51  CB        31.8630   80.5070   66.8750 C.3   498  MET498      0.0387
     52  CG        30.8840   79.3810   66.5150 C.3   498  MET498      0.0595
     53  SD        29.3260   79.9830   65.8020 S.3   498  MET498     -0.1393
     54  CE        29.9180   80.8180   64.3210 C.3   498  MET498      0.0692
     55  N         30.6410   76.6060   69.6640 N.3   500  THR500     -0.1218
     56  CA        30.8510   75.4770   68.7560 C.3   500  THR500      0.1862
     57  C         30.0720   74.2060   69.1160 C.2   500  THR500      0.2287
     58  O         29.9540   73.3150   68.2840 O.2   500  THR500     -0.2866
     59  CB        32.3610   75.1250   68.6250 C.3   500  THR500      0.1770
     60  OG1       32.9120   74.8360   69.9150 O.3   500  THR500     -0.2211
     61  CG2       33.1250   76.2820   68.0320 C.3   500  THR500      0.0375
     62  N         29.0460   85.3590   67.9060 N.3   524  TRP524     -0.1241
     63  CA        28.7550   84.3420   66.8970 C.3   524  TRP524      0.1605
     64  C         28.0050   83.1190   67.4280 C.2   524  TRP524      0.2264
     65  O         28.3480   82.5780   68.4760 O.2   524  TRP524     -0.2867
     66  CB        30.0510   83.9100   66.1820 C.3   524  TRP524      0.0550
     67  CG        30.5730   84.9200   65.1910 C.ar  524  TRP524      0.0003
     68  CD1       30.0630   86.1620   64.9440 C.ar  524  TRP524      0.0946
     69  CD2       31.7020   84.7680   64.3140 C.ar  524  TRP524      0.0152
     70  NE1       30.7990   86.7920   63.9630 N.ar  524  TRP524     -0.2442
     71  CE2       31.8100   85.9590   63.5580 C.ar  524  TRP524      0.0810
     72  CE3       32.6250   83.7410   64.0870 C.ar  524  TRP524      0.0012
     73  CZ2       32.8130   86.1520   62.5830 C.ar  524  TRP524      0.0191
     74  CZ3       33.6180   83.9300   63.1080 C.ar  524  TRP524      0.0001
     75  CH2       33.7000   85.1290   62.3770 C.ar  524  TRP524      0.0015
     76  N         26.0760   79.3280   65.7210 N.3   526  PRO526     -0.2116
     77  CA        26.2130   78.4010   64.5940 C.3   526  PRO526      0.1372
     78  C         24.9080   77.9760   63.9130 C.2   526  PRO526      0.2244
     79  O         24.9610   77.1260   63.0160 O.2   526  PRO526     -0.2868
     80  CB        26.7820   77.1660   65.2740 C.3   526  PRO526      0.0268
     81  CG        26.0280   77.1430   66.5670 C.3   526  PRO526      0.0207
     82  CD        25.9050   78.5960   66.9870 C.3   526  PRO526      0.0892
     83  N         32.3440   73.1680   56.9030 N.3   602  ALA602     -0.1245
     84  CA        31.8690   73.1950   58.2890 C.3   602  ALA602      0.1562
     85  C         30.7360   72.1970   58.4640 C.2   602  ALA602      0.2260
     86  O         29.8480   72.0950   57.6070 O.2   602  ALA602     -0.2867
     87  CB        31.4090   74.5970   58.6870 C.3   602  ALA602      0.0290
     88  N         30.8650   72.3170   65.9020 N.3   614  MET614     -0.1230
     89  CA        30.7020   72.9660   64.5940 C.3   614  MET614      0.1702
     90  C         31.8100   73.9920   64.4030 C.2   614  MET614      0.2592
     91  O         31.5920   75.1930   64.5740 O.2   614  MET614     -0.2718
     92  CB        29.3450   73.6630   64.5060 C.3   614  MET614      0.0401
     93  CG        29.1000   74.4260   63.2150 C.3   614  MET614      0.0596
     94  SD        28.3330   73.4330   61.9400 S.3   614  MET614     -0.1393
     95  CE        26.6630   73.3000   62.5820 C.3   614  MET614      0.0692
     96  N         33.0100   73.5140   64.0860 N.am  615  GLU615     -0.1966
     97  CA        34.1540   74.3970   63.9030 C.3   615  GLU615      0.1733
     98  C         34.4260   74.6200   62.4130 C.2   615  GLU615      0.2616
     99  O         34.0020   73.8150   61.5610 O.2   615  GLU615     -0.2715
    100  CB        35.4000   73.8220   64.5780 C.3   615  GLU615      0.0429
    101  CG        35.3270   73.7700   66.0950 C.3   615  GLU615      0.1163
    102  CD        36.4760   72.9860   66.7170 C.2   615  GLU615      0.3649
    103  OE1       36.9750   73.4020   67.7960 O.co2 615  GLU615     -0.2457
    104  OE2       36.8630   71.9490   66.1270 O.co2 615  GLU615     -0.2457
    105  N         35.1230   75.7180   62.1200 N.am  616  ASP616     -0.1971
    106  CA        35.6170   75.9970   60.7710 C.3   616  ASP616      0.1709
    107  C         37.0910   75.5740   60.6590 C.2   616  ASP616      0.2293
    108  O         37.6030   74.8640   61.5290 O.2   616  ASP616     -0.2864
    109  CB        35.3820   77.4670   60.3690 C.3   616  ASP616      0.1436
    110  CG        36.2290   78.4560   61.1660 C.2   616  ASP616      0.3671
    111  OD1       37.0960   78.0230   61.9440 O.co2 616  ASP616     -0.2456
    112  OD2       36.0460   79.6830   61.0040 O.co2 616  ASP616     -0.2456
    113  N         39.9250   77.1100   60.9510 N.3   618  ALA618     -0.1245
    114  CA        40.7890   77.5690   62.0350 C.3   618  ALA618      0.1562
    115  C         41.1470   76.4750   63.0590 C.2   618  ALA618      0.2260
    116  O         42.1950   76.5400   63.6920 O.2   618  ALA618     -0.2867
    117  CB        40.1500   78.7420   62.7280 C.3   618  ALA618      0.0290
@<TRIPOS>BOND
     1    31    30    2
     2    30    29    1
     3    18    17    2
     4    17    16    1
     5    28    29    1
     6    29    32    1
     7    19    16    1
     8    19    20    1
     9    16    15    1
    10    24    25    2
    11    24    23    1
    12    32    33    1
    13    11    10    2
    14    20    21    1
    15    15    10   am
    16    15    21    1
    17    33    34    1
    18    10     9    1
    19    22    23    1
    20    14    12    1
    21    27    26    1
    22    23    26    1
    23    13    12    1
    24    83    84    1
    25    12     9    1
    26    34    35    1
    27    86    85    2
    28     9     8    1
    29    35    36    2
    30    84    85    1
    31    84    87    1
    32     8     3   am
    33    36    38    1
    34    36    37    1
    35     3     2    1
    36     3     4    2
    37     6     5    1
    38     2     5    1
    39     2     1    1
    40   109   106    1
    41   109   110    1
    42   107   106    1
    43   107   108    2
    44   106   105    1
    45     5     7    1
    46   113   114    1
    47   112   110   ar
    48   110   111   ar
    49    99    98    2
    50    94    95    1
    51    94    93    1
    52   114   117    1
    53   114   115    1
    54   105    98   am
    55    75    73   ar
    56    75    74   ar
    57    98    97    1
    58    73    71   ar
    59    79    78    2
    60   115   116    2
    61    74    72   ar
    62    93    92    1
    63    71    70   ar
    64    71    69   ar
    65    97    96    1
    66    97   100    1
    67    78    77    1
    68    70    68   ar
    69    96    90   am
    70    72    69   ar
    71    69    67   ar
    72    54    53    1
    73    90    91    2
    74    90    89    1
    75    92    89    1
    76   100   101    1
    77    77    80    1
    78    77    76    1
    79    89    88    1
    80    68    67   ar
    81    67    66    1
    82    80    81    1
    83    76    82    1
    84    53    52    1
    85    45    44    1
    86   101   102    1
    87    43    44    1
    88    43    40    1
    89    41    42    2
    90    41    40    1
    91   104   102   ar
    92    66    63    1
    93    52    51    1
    94    81    82    1
    95   102   103   ar
    96    44    46    1
    97    51    48    1
    98    63    64    1
    99    63    62    1
   100    40    39    1
   101    64    65    2
   102    61    59    1
   103    48    47    1
   104    48    49    1
   105    58    57    2
   106    59    56    1
   107    59    60    1
   108    56    57    1
   109    56    55    1
   110    49    50    2
