@<TRIPOS>MOLECULE
tmp/5cjnA00.pdb
 154 145 0 0 0
SMALL
GASTEIGER

@<TRIPOS>ATOM
      1  N         26.9440   80.6940   60.7650 N.3   112  VAL112     -0.1245
      2  CA        27.8950   80.6000   59.6510 C.3   112  VAL112      0.1561
      3  C         27.5950   79.3150   58.9050 C.2   112  VAL112      0.2260
      4  O         27.4550   78.2730   59.5280 O.2   112  VAL112     -0.2867
      5  CB        29.3570   80.5600   60.1330 C.3   112  VAL112      0.0252
      6  CG1       30.3210   80.7600   58.9590 C.3   112  VAL112      0.0019
      7  CG2       29.5960   81.6190   61.1920 C.3   112  VAL112      0.0019
      8  N         28.1040   76.7910   55.0960 N.3   114  PRO114     -0.2116
      9  CA        28.7830   76.5460   53.8150 C.3   114  PRO114      0.1372
     10  C         27.9310   76.9480   52.6240 C.2   114  PRO114      0.2244
     11  O         26.8520   76.3790   52.3950 O.2   114  PRO114     -0.2868
     12  CB        28.9950   75.0200   53.8130 C.3   114  PRO114      0.0268
     13  CG        28.0040   74.4950   54.7690 C.3   114  PRO114      0.0207
     14  CD        27.9490   75.5400   55.8530 C.3   114  PRO114      0.0892
     15  N         34.4950   76.4810   55.7120 N.3   269  SER269     -0.1217
     16  CA        33.4850   75.4300   55.7800 C.3   269  SER269      0.1889
     17  C         33.1240   74.7940   54.4150 C.2   269  SER269      0.2288
     18  O         32.2460   73.9440   54.3470 O.2   269  SER269     -0.2866
     19  CB        32.2180   75.9020   56.5090 C.3   269  SER269      0.2089
     20  OG        31.4830   76.8530   55.7510 O.3   269  SER269     -0.2183
     21  N         31.5460   85.3980   53.4760 N.3   324  ARG324     -0.1245
     22  CA        32.9530   85.2850   53.8680 C.3   324  ARG324      0.1563
     23  C         33.7840   84.8600   52.6530 C.2   324  ARG324      0.2260
     24  O         33.6280   83.7470   52.1430 O.2   324  ARG324     -0.2867
     25  CB        33.1690   84.3280   55.0600 C.3   324  ARG324      0.0307
     26  CG        34.6530   84.1900   55.4420 C.3   324  ARG324      0.0489
     27  CD        34.8950   83.5820   56.8180 C.3   324  ARG324      0.2205
     28  NE        34.5560   82.1540   56.8910 N.pl3 324  ARG324     -0.0865
     29  CZ        34.8100   81.3840   57.9510 C.cat 324  ARG324      0.5346
     30  NH1       35.4060   81.9020   59.0130 N.pl3 324  ARG324      0.1354
     31  NH2       34.4910   80.0990   57.9540 N.pl3 324  ARG324      0.1354
     32  N         38.1690   89.4370   60.8030 N.3   416  MET416     -0.1245
     33  CA        38.3670   88.3710   61.6780 C.3   416  MET416      0.1570
     34  C         39.7590   88.5350   62.3740 C.2   416  MET416      0.2261
     35  O         40.7180   88.7180   61.7260 O.2   416  MET416     -0.2867
     36  CB        38.1640   87.0590   60.9300 C.3   416  MET416      0.0387
     37  CG        36.6960   86.6270   60.9050 C.3   416  MET416      0.0595
     38  SD        36.5140   85.1030   60.1120 S.3   416  MET416     -0.1393
     39  CE        37.1430   83.9390   61.3240 C.3   416  MET416      0.0692
     40  N         42.0400   86.4090   64.0020 N.3   418  GLU418     -0.1245
     41  CA        42.2900   84.9880   64.1470 C.3   418  GLU418      0.1567
     42  C         43.7400   84.6750   63.7930 C.2   418  GLU418      0.2260
     43  O         44.0940   83.5250   63.5680 O.2   418  GLU418     -0.2867
     44  CB        41.3280   84.1640   63.2820 C.3   418  GLU418      0.0388
     45  CG        41.4950   84.3540   61.7680 C.3   418  GLU418      0.1160
     46  CD        40.4430   83.6130   60.9770 C.2   418  GLU418      0.3649
     47  OE1       40.1350   84.0290   59.8400 O.co2 418  GLU418     -0.2457
     48  OE2       39.9170   82.6040   61.4900 O.co2 418  GLU418     -0.2457
     49  N         38.0430   83.6550   67.7060 N.3   443  GLY443     -0.1210
     50  CA        37.7780   82.2310   67.6140 C.3   443  GLY443      0.1956
     51  C         38.6810   81.4090   68.5140 C.2   443  GLY443      0.2612
     52  O         39.4100   81.9410   69.3500 O.2   443  GLY443     -0.2717
     53  N         38.6290   80.0950   68.3700 N.am  444  PHE444     -0.1962
     54  CA        39.5520   79.2630   69.1280 C.3   444  PHE444      0.1771
     55  C         40.5350   78.6050   68.1770 C.2   444  PHE444      0.2619
     56  O         41.7450   78.8100   68.2940 O.2   444  PHE444     -0.2715
     57  CB        38.8320   78.2080   69.9840 C.3   444  PHE444      0.0574
     58  CG        39.7550   77.1140   70.5050 C.ar  444  PHE444     -0.0200
     59  CD1       40.8580   77.4260   71.2940 C.ar  444  PHE444     -0.0042
     60  CD2       39.5090   75.7780   70.2140 C.ar  444  PHE444     -0.0042
     61  CE1       41.7050   76.4280   71.7670 C.ar  444  PHE444     -0.0003
     62  CE2       40.3490   74.7760   70.6760 C.ar  444  PHE444     -0.0003
     63  CZ        41.4490   75.0980   71.4550 C.ar  444  PHE444     -0.0000
     64  N         40.0000   77.8450   67.2230 N.am  445  LEU445     -0.1963
     65  CA        40.8190   76.9610   66.4060 C.3   445  LEU445      0.1728
     66  C         41.8640   77.6830   65.5390 C.2   445  LEU445      0.2616
     67  O         43.0540   77.3920   65.6550 O.2   445  LEU445     -0.2715
     68  CB        39.9380   76.0110   65.5720 C.3   445  LEU445      0.0311
     69  CG        39.0020   75.0640   66.3480 C.3   445  LEU445      0.0022
     70  CD1       38.0340   74.3280   65.4090 C.3   445  LEU445      0.0001
     71  CD2       39.7630   74.0570   67.2220 C.3   445  LEU445      0.0001
     72  N         41.4370   78.6050   64.6800 N.am  446  ASP446     -0.1971
     73  CA        42.3530   79.2140   63.7110 C.3   446  ASP446      0.1709
     74  C         43.3990   80.0190   64.4590 C.2   446  ASP446      0.2293
     75  O         44.5920   79.9120   64.1840 O.2   446  ASP446     -0.2864
     76  CB        41.6120   80.1320   62.7400 C.3   446  ASP446      0.1436
     77  CG        41.7150   79.6730   61.2710 C.2   446  ASP446      0.3671
     78  OD1       42.6550   78.9300   60.8940 O.co2 446  ASP446     -0.2456
     79  OD2       40.8410   80.0970   60.4880 O.co2 446  ASP446     -0.2456
     80  N         33.3440   83.3750   69.3310 N.3   498  GLY498     -0.1210
     81  CA        33.4470   82.1450   68.5580 C.3   498  GLY498      0.1956
     82  C         32.2860   81.1680   68.4860 C.2   498  GLY498      0.2611
     83  O         31.1930   81.3940   69.0150 O.2   498  GLY498     -0.2717
     84  N         32.5520   80.0520   67.8170 N.am  499  MET499     -0.1979
     85  CA        31.5500   79.0450   67.5200 C.3   499  MET499      0.1605
     86  C         31.4150   78.0200   68.6370 C.2   499  MET499      0.2287
     87  O         32.4150   77.5820   69.2070 O.2   499  MET499     -0.2864
     88  CB        31.9410   78.3200   66.2260 C.3   499  MET499      0.0413
     89  CG        31.0610   77.1350   65.8770 C.3   499  MET499      0.0598
     90  SD        29.4150   77.6270   65.3050 S.3   499  MET499     -0.1393
     91  CE        29.7480   78.2460   63.6500 C.3   499  MET499      0.0692
     92  N         30.7560   74.3410   68.9350 N.3   501  THR501     -0.1218
     93  CA        30.8960   73.2610   67.9580 C.3   501  THR501      0.1862
     94  C         30.1150   71.9970   68.3180 C.2   501  THR501      0.2287
     95  O         29.8330   71.1610   67.4510 O.2   501  THR501     -0.2866
     96  CB        32.3590   72.8790   67.7680 C.3   501  THR501      0.1770
     97  OG1       32.8950   72.4350   69.0190 O.3   501  THR501     -0.2211
     98  CG2       33.1630   74.0820   67.2790 C.3   501  THR501      0.0375
     99  N         28.9300   83.0070   67.3400 N.3   525  TRP525     -0.1241
    100  CA        28.6200   82.0150   66.3070 C.3   525  TRP525      0.1605
    101  C         27.9040   80.7480   66.7880 C.2   525  TRP525      0.2264
    102  O         28.2480   80.1510   67.8090 O.2   525  TRP525     -0.2867
    103  CB        29.8980   81.6340   65.5500 C.3   525  TRP525      0.0550
    104  CG        30.3860   82.7170   64.6240 C.ar  525  TRP525      0.0003
    105  CD1       29.8450   83.9600   64.4640 C.ar  525  TRP525      0.0946
    106  CD2       31.4960   82.6440   63.7190 C.ar  525  TRP525      0.0152
    107  NE1       30.5550   84.6710   63.5240 N.ar  525  TRP525     -0.2442
    108  CE2       31.5650   83.8830   63.0400 C.ar  525  TRP525      0.0810
    109  CE3       32.4300   81.6520   63.4060 C.ar  525  TRP525      0.0012
    110  CZ2       32.5390   84.1580   62.0780 C.ar  525  TRP525      0.0191
    111  CZ3       33.4000   81.9290   62.4480 C.ar  525  TRP525      0.0001
    112  CH2       33.4430   83.1690   61.7940 C.ar  525  TRP525      0.0015
    113  N         26.1580   76.8970   65.2540 N.3   527  PRO527     -0.2116
    114  CA        26.3340   75.9370   64.1580 C.3   527  PRO527      0.1372
    115  C         25.0590   75.5980   63.3880 C.2   527  PRO527      0.2244
    116  O         25.1410   74.9560   62.3340 O.2   527  PRO527     -0.2868
    117  CB        26.8190   74.6880   64.8810 C.3   527  PRO527      0.0268
    118  CG        26.1610   74.7870   66.2460 C.3   527  PRO527      0.0207
    119  CD        26.1940   76.2420   66.5790 C.3   527  PRO527      0.0892
    120  N         32.1370   70.9480   56.0210 N.3   603  ALA603     -0.1245
    121  CA        31.4690   71.1140   57.3140 C.3   603  ALA603      0.1562
    122  C         30.3030   70.1390   57.4120 C.2   603  ALA603      0.2260
    123  O         29.5180   69.9990   56.4630 O.2   603  ALA603     -0.2867
    124  CB        30.9660   72.5350   57.5090 C.3   603  ALA603      0.0290
    125  N         30.6990   70.1990   64.9190 N.3   615  MET615     -0.1230
    126  CA        30.6150   70.8220   63.5940 C.3   615  MET615      0.1702
    127  C         31.7100   71.8620   63.5040 C.2   615  MET615      0.2592
    128  O         31.4880   73.0550   63.7420 O.2   615  MET615     -0.2718
    129  CB        29.2520   71.4780   63.3440 C.3   615  MET615      0.0401
    130  CG        29.1960   72.3630   62.0860 C.3   615  MET615      0.0596
    131  SD        28.2920   71.6460   60.7170 S.3   615  MET615     -0.1393
    132  CE        26.6520   72.3070   60.9920 C.3   615  MET615      0.0692
    133  N         32.9130   71.3970   63.2060 N.am  616  GLU616     -0.1966
    134  CA        34.0370   72.2990   63.0530 C.3   616  GLU616      0.1733
    135  C         34.2290   72.5870   61.5650 C.2   616  GLU616      0.2616
    136  O         33.6480   71.9010   60.7090 O.2   616  GLU616     -0.2715
    137  CB        35.2920   71.6680   63.6580 C.3   616  GLU616      0.0429
    138  CG        35.0910   71.1550   65.0850 C.3   616  GLU616      0.1163
    139  CD        36.3260   70.4800   65.6550 C.2   616  GLU616      0.3649
    140  OE1       36.7970   70.9060   66.7420 O.co2 616  GLU616     -0.2457
    141  OE2       36.8150   69.5140   65.0200 O.co2 616  GLU616     -0.2457
    142  N         35.0290   73.6050   61.2620 N.am  617  ASP617     -0.1971
    143  CA        35.4810   73.8200   59.8950 C.3   617  ASP617      0.1709
    144  C         36.9640   73.4520   59.7610 C.2   617  ASP617      0.2293
    145  O         37.5260   72.8100   60.6420 O.2   617  ASP617     -0.2864
    146  CB        35.1930   75.2560   59.4400 C.3   617  ASP617      0.1436
    147  CG        35.9720   76.3060   60.2220 C.2   617  ASP617      0.3671
    148  OD1       36.7920   75.9470   61.0950 O.co2 617  ASP617     -0.2456
    149  OD2       35.7740   77.5120   59.9350 O.co2 617  ASP617     -0.2456
    150  N         39.6930   75.0020   60.2110 N.3   619  ALA619     -0.1245
    151  CA        40.5810   75.4190   61.3010 C.3   619  ALA619      0.1562
    152  C         40.8860   74.2840   62.2990 C.2   619  ALA619      0.2260
    153  O         41.9380   74.2890   62.9550 O.2   619  ALA619     -0.2867
    154  CB        39.9880   76.6230   62.0380 C.3   619  ALA619      0.0290
@<TRIPOS>BOND
     1    24    23    2
     2    11    10    2
     3    10     9    1
     4    23    22    1
     5    21    22    1
     6    12     9    1
     7    12    13    1
     8     9     8    1
     9    22    25    1
    10    18    17    2
    11    17    16    1
    12    13    14    1
    13    25    26    1
    14     8    14    1
    15    26    27    1
    16    15    16    1
    17    20    19    1
    18    16    19    1
    19   120   121    1
    20   123   122    2
    21    27    28    1
    22    28    29    2
    23   121   122    1
    24   121   124    1
    25    29    31    1
    26    29    30    1
    27     3     4    2
    28     3     2    1
    29     6     5    1
    30   146   143    1
    31   146   147    1
    32     2     5    1
    33     2     1    1
    34   144   143    1
    35   144   145    2
    36    47    46   ar
    37   143   142    1
    38   149   147   ar
    39    38    37    1
    40    38    39    1
    41     5     7    1
    42   150   151    1
    43   147   148   ar
    44    79    77   ar
    45   136   135    2
    46   131   132    1
    47   131   130    1
    48    32    33    1
    49    78    77   ar
    50    37    36    1
    51    36    33    1
    52    46    48   ar
    53    46    45    1
    54   142   135   am
    55    77    76    1
    56   151   154    1
    57   151   152    1
    58   135   134    1
    59    33    34    1
    60    35    34    2
    61    45    44    1
    62   112   110   ar
    63   112   111   ar
    64   110   108   ar
    65   130   129    1
    66   152   153    2
    67   116   115    2
    68   111   109   ar
    69    76    73    1
    70   108   107   ar
    71   108   106   ar
    72   134   133    1
    73   134   137    1
    74   133   127   am
    75    44    41    1
    76   129   126    1
    77   115   114    1
    78   109   106   ar
    79   127   126    1
    80   127   128    2
    81   107   105   ar
    82    43    42    2
    83   126   125    1
    84    91    90    1
    85   137   138    1
    86    73    74    1
    87    73    72    1
    88   106   104   ar
    89    42    41    1
    90    40    41    1
    91   114   117    1
    92   114   113    1
    93    75    74    2
    94   105   104   ar
    95   104   103    1
    96    72    66   am
    97   117   118    1
    98   141   139   ar
    99   138   139    1
   100   113   119    1
   101    90    89    1
   102    70    69    1
   103    66    67    2
   104    66    65    1
   105   103   100    1
   106    68    69    1
   107    68    65    1
   108   139   140   ar
   109    89    88    1
   110    88    85    1
   111   118   119    1
   112   100   101    1
   113   100    99    1
   114    69    71    1
   115    65    64    1
   116   101   102    2
   117    64    55   am
   118    98    96    1
   119    95    94    2
   120    85    84    1
   121    85    86    1
   122    50    49    1
   123    50    51    1
   124    96    93    1
   125    96    97    1
   126    84    82   am
   127    93    94    1
   128    93    92    1
   129    55    56    2
   130    55    54    1
   131    53    51   am
   132    53    54    1
   133    82    81    1
   134    82    83    2
   135    51    52    2
   136    81    80    1
   137    86    87    2
   138    54    57    1
   139    57    58    1
   140    60    58   ar
   141    60    62   ar
   142    58    59   ar
   143    62    63   ar
   144    59    61   ar
   145    63    61   ar
