@<TRIPOS>MOLECULE
tmp/5cjpD00.pdb
 177 175 0 0 0
SMALL
GASTEIGER

@<TRIPOS>ATOM
      1  N        -39.0740   43.9380  -34.0470 N.3    12  GLY12      -0.1210
      2  CA       -40.4360   43.8800  -34.5270 C.3    12  GLY12       0.1956
      3  C        -41.3540   44.8180  -33.7750 C.2    12  GLY12       0.2612
      4  O        -41.1700   45.0580  -32.5900 O.2    12  GLY12      -0.2717
      5  N        -42.3450   45.3410  -34.4870 N.am   13  ALA13      -0.1965
      6  CA       -43.3550   46.2570  -33.9580 C.3    13  ALA13       0.1728
      7  C        -42.8920   47.7000  -33.7290 C.2    13  ALA13       0.2616
      8  O        -43.6580   48.5160  -33.2060 O.2    13  ALA13      -0.2715
      9  CB       -43.9670   45.6820  -32.6760 C.3    13  ALA13       0.0334
     10  N        -41.6580   48.0240  -34.1250 N.am   14  VAL14      -0.1963
     11  CA       -41.1640   49.3910  -33.9450 C.3    14  VAL14       0.1727
     12  C        -41.8080   50.3000  -34.9840 C.2    14  VAL14       0.2617
     13  O        -41.8040   51.5190  -34.8380 O.2    14  VAL14      -0.2715
     14  CB       -39.6140   49.4990  -34.0740 C.3    14  VAL14       0.0290
     15  CG1      -38.9450   48.5260  -33.1200 C.3    14  VAL14       0.0023
     16  CG2      -39.1730   49.2590  -35.5050 C.3    14  VAL14       0.0023
     17  N        -42.3620   49.6990  -36.0330 N.am   15  GLY15      -0.1940
     18  CA       -43.0220   50.4760  -37.0670 C.3    15  GLY15       0.2014
     19  C        -42.3140   50.5140  -38.4080 C.2    15  GLY15       0.2639
     20  O        -42.5900   51.3920  -39.2230 O.2    15  GLY15      -0.2714
     21  N        -41.4080   49.5710  -38.6470 N.am   16  LYS16      -0.1963
     22  CA       -40.6760   49.5270  -39.9090 C.3    16  LYS16       0.1728
     23  C        -41.6120   49.5520  -41.1120 C.2    16  LYS16       0.2617
     24  O        -41.3610   50.2620  -42.0890 O.2    16  LYS16      -0.2715
     25  CB       -39.8010   48.2740  -39.9800 C.3    16  LYS16       0.0311
     26  CG       -38.6290   48.2670  -39.0170 C.3    16  LYS16       0.0038
     27  CD       -37.7420   47.0480  -39.2300 C.3    16  LYS16       0.0206
     28  CE       -38.5470   45.7670  -39.1030 C.3    16  LYS16       0.1093
     29  NZ       -39.3990   45.7910  -37.8810 N.3    16  LYS16      -0.1314
     30  N        -42.6900   48.7750  -41.0400 N.am   17  THR17      -0.1937
     31  CA       -43.6480   48.7090  -42.1340 C.3    17  THR17       0.2028
     32  C        -44.4440   50.0060  -42.2760 C.2    17  THR17       0.2642
     33  O        -44.5570   50.5520  -43.3760 O.2    17  THR17      -0.2714
     34  CB       -44.6050   47.5060  -41.9500 C.3    17  THR17       0.1808
     35  OG1      -43.8680   46.2890  -42.1390 O.3    17  THR17      -0.2208
     36  CG2      -45.7480   47.5610  -42.9500 C.3    17  THR17       0.0379
     37  N        -44.9780   50.5090  -41.1700 N.am   18  CYS18      -0.1967
     38  CA       -45.7570   51.7440  -41.2090 C.3    18  CYS18       0.1712
     39  C        -45.0380   52.9160  -41.8820 C.2    18  CYS18       0.2296
     40  O        -45.6170   53.6080  -42.7190 O.2    18  CYS18      -0.2864
     41  CB       -46.1820   52.1500  -39.7960 C.3    18  CYS18       0.0983
     42  SG       -47.5360   51.1660  -39.1430 S.3    18  CYS18      -0.0798
     43  N        -51.5840   55.5470  -43.2210 N.3    28  PHE28      -0.1228
     44  CA       -51.1210   54.8620  -42.0210 C.3    28  PHE28       0.1721
     45  C        -51.9110   53.5930  -41.7070 C.2    28  PHE28       0.2437
     46  O        -53.0660   53.6570  -41.2730 O.2    28  PHE28      -0.2733
     47  CB       -51.1850   55.8020  -40.8190 C.3    28  PHE28       0.0547
     48  CG       -50.5650   55.2320  -39.5770 C.ar   28  PHE28      -0.0202
     49  CD1      -49.1870   55.0570  -39.4930 C.ar   28  PHE28      -0.0042
     50  CD2      -51.3580   54.8520  -38.4980 C.ar   28  PHE28      -0.0042
     51  CE1      -48.6060   54.5140  -38.3560 C.ar   28  PHE28      -0.0003
     52  CE2      -50.7880   54.3080  -37.3550 C.ar   28  PHE28      -0.0003
     53  CZ       -49.4090   54.1390  -37.2860 C.ar   28  PHE28      -0.0000
     54  N        -51.2840   52.4200  -41.9070 N.am   29  PRO29      -0.2718
     55  CA       -51.8830   51.1050  -41.6610 C.3    29  PRO29       0.1535
     56  C        -52.5940   51.0120  -40.3200 C.2    29  PRO29       0.2599
     57  O        -51.9860   51.1860  -39.2630 O.2    29  PRO29      -0.2715
     58  CB       -50.6860   50.1680  -41.7520 C.3    29  PRO29       0.0310
     59  CG       -49.8510   50.8230  -42.8010 C.3    29  PRO29       0.0237
     60  CD       -49.8950   52.2740  -42.3820 C.3    29  PRO29       0.0939
     61  N        -53.8880   50.7300  -40.3730 N.am   30  SER30      -0.1936
     62  CA       -54.7010   50.6160  -39.1750 C.3    30  SER30       0.2055
     63  C        -54.1650   49.5610  -38.1990 C.2    30  SER30       0.2643
     64  O        -53.5330   49.8960  -37.1930 O.2    30  SER30      -0.2714
     65  CB       -56.1440   50.2810  -39.5640 C.3    30  SER30       0.2130
     66  OG       -56.9810   50.1920  -38.4250 O.3    30  SER30      -0.2179
     67  N        -54.4140   48.2910  -38.5140 N.am   31  GLU31      -0.1963
     68  CA       -53.9960   47.1710  -37.6700 C.3    31  GLU31       0.1733
     69  C        -52.5650   46.6810  -37.8900 C.2    31  GLU31       0.2616
     70  O        -51.9170   47.0000  -38.8880 O.2    31  GLU31      -0.2715
     71  CB       -54.9640   46.0010  -37.8590 C.3    31  GLU31       0.0429
     72  CG       -55.1730   45.6140  -39.3190 C.3    31  GLU31       0.1163
     73  CD       -56.1570   44.4730  -39.4950 C.2    31  GLU31       0.3649
     74  OE1      -55.8400   43.3390  -39.0770 O.co2  31  GLU31      -0.2457
     75  OE2      -57.2510   44.7100  -40.0500 O.co2  31  GLU31      -0.2457
     76  N        -52.0880   45.8850  -36.9390 N.am   32  TYR32      -0.1960
     77  CA       -50.7410   45.3380  -36.9910 C.3    32  TYR32       0.1771
     78  C        -50.7300   43.9210  -37.5410 C.2    32  TYR32       0.2619
     79  O        -51.5250   43.0690  -37.1280 O.2    32  TYR32      -0.2715
     80  CB       -50.1130   45.3550  -35.5860 C.3    32  TYR32       0.0574
     81  CG       -48.7750   44.6350  -35.4420 C.ar   32  TYR32      -0.0198
     82  CD1      -47.7020   44.9240  -36.2850 C.ar   32  TYR32      -0.0009
     83  CD2      -48.5720   43.7020  -34.4190 C.ar   32  TYR32      -0.0009
     84  CE1      -46.4550   44.3040  -36.1140 C.ar   32  TYR32       0.0417
     85  CE2      -47.3310   43.0780  -34.2400 C.ar   32  TYR32       0.0417
     86  CZ       -46.2810   43.3880  -35.0860 C.ar   32  TYR32       0.1957
     87  OH       -45.0590   42.7820  -34.9020 O.3    32  TYR32      -0.2866
     88  N        -49.8240   43.6950  -38.4860 N.am   33  VAL33      -0.1964
     89  CA       -49.6410   42.3940  -39.1020 C.3    33  VAL33       0.1712
     90  C        -48.1530   42.2230  -39.3830 C.2    33  VAL33       0.2458
     91  O        -47.5990   42.8170  -40.3070 O.2    33  VAL33      -0.2730
     92  CB       -50.4500   42.2630  -40.4100 C.3    33  VAL33       0.0289
     93  CG1      -49.9980   41.0220  -41.1940 C.3    33  VAL33       0.0023
     94  CG2      -51.9390   42.1570  -40.0740 C.3    33  VAL33       0.0023
     95  N        -47.4740   41.4300  -38.5560 N.am   34  PRO34      -0.2716
     96  CA       -46.0420   41.2500  -38.8030 C.3    34  PRO34       0.1536
     97  C        -45.7310   40.7610  -40.2200 C.2    34  PRO34       0.2599
     98  O        -46.4520   39.9370  -40.7790 O.2    34  PRO34      -0.2715
     99  CB       -45.6140   40.2770  -37.7020 C.3    34  PRO34       0.0310
    100  CG       -46.9310   39.6700  -37.1940 C.3    34  PRO34       0.0237
    101  CD       -47.9000   40.7910  -37.2980 C.3    34  PRO34       0.0939
    102  N        -44.6600   41.2850  -40.7990 N.am   35  THR35      -0.1951
    103  CA       -44.2780   40.9210  -42.1520 C.3    35  THR35       0.1897
    104  C        -43.2130   39.8290  -42.2170 C.2    35  THR35       0.2313
    105  O        -42.5080   39.5560  -41.2380 O.2    35  THR35      -0.2863
    106  CB       -43.7630   42.1680  -42.9360 C.3    35  THR35       0.1794
    107  OG1      -42.4460   42.5170  -42.4910 O.3    35  THR35      -0.2208
    108  CG2      -44.6880   43.3590  -42.7180 C.3    35  THR35       0.0378
    109  N        -38.2670   44.0460  -43.9040 N.3    58  THR58      -0.1203
    110  CA       -37.9450   42.7240  -43.3530 C.3    58  THR58       0.1994
    111  C        -38.6650   42.3840  -42.0480 C.2    58  THR58       0.2618
    112  O        -39.4490   43.1810  -41.5260 O.2    58  THR58      -0.2717
    113  CB       -36.4250   42.5700  -43.0920 C.3    58  THR58       0.1784
    114  OG1      -36.0430   43.3930  -41.9830 O.3    58  THR58      -0.2211
    115  CG2      -35.6240   42.9840  -44.3210 C.3    58  THR58       0.0376
    116  N        -38.3820   41.1880  -41.5340 N.am   59  ALA59      -0.1965
    117  CA       -38.9780   40.7090  -40.2860 C.3    59  ALA59       0.1728
    118  C        -38.0940   41.0650  -39.0980 C.2    59  ALA59       0.2617
    119  O        -36.8720   40.9070  -39.1470 O.2    59  ALA59      -0.2715
    120  CB       -39.1810   39.1990  -40.3470 C.3    59  ALA59       0.0334
    121  N        -38.7190   41.5350  -38.0250 N.am   60  GLY60      -0.1940
    122  CA       -37.9660   41.9210  -36.8440 C.3    60  GLY60       0.2014
    123  C        -37.7270   40.8250  -35.8210 C.2    60  GLY60       0.2638
    124  O        -36.6530   40.7610  -35.2180 O.2    60  GLY60      -0.2714
    125  N        -38.7240   39.9700  -35.6220 N.am   61  LEU61      -0.1977
    126  CA       -38.6350   38.8740  -34.6620 C.3    61  LEU61       0.1596
    127  C        -37.4110   37.9930  -34.9180 C.2    61  LEU61       0.2287
    128  O        -37.1070   37.6480  -36.0610 O.2    61  LEU61      -0.2864
    129  CB       -39.9060   38.0280  -34.7300 C.3    61  LEU61       0.0297
    130  CG       -40.4580   37.4650  -33.4140 C.3    61  LEU61       0.0022
    131  CD1      -41.6250   36.5140  -33.6960 C.3    61  LEU61       0.0001
    132  CD2      -39.3460   36.7450  -32.6710 C.3    61  LEU61       0.0001
    133  N        -38.3340   56.1560  -34.4210 N.3   115  THR115     -0.1203
    134  CA       -39.6890   56.1610  -34.9560 C.3   115  THR115      0.1994
    135  C        -40.7330   56.3820  -33.8640 C.2   115  THR115      0.2617
    136  O        -40.4000   56.4570  -32.6800 O.2   115  THR115     -0.2717
    137  CB       -40.0020   54.8340  -35.6850 C.3   115  THR115      0.1784
    138  OG1      -39.9570   53.7530  -34.7440 O.3   115  THR115     -0.2211
    139  CG2      -38.9780   54.5690  -36.7870 C.3   115  THR115      0.0376
    140  N        -41.9960   56.4730  -34.2790 N.am  116  GLN116     -0.1979
    141  CA       -43.1120   56.6930  -33.3630 C.3   116  GLN116      0.1601
    142  C        -42.8840   57.8890  -32.4380 C.2   116  GLN116      0.2287
    143  O        -43.3860   57.9040  -31.3120 O.2   116  GLN116     -0.2864
    144  CB       -43.3770   55.4350  -32.5210 C.3   116  GLN116      0.0394
    145  CG       -43.9260   54.2450  -33.3050 C.3   116  GLN116      0.0908
    146  CD       -44.4360   53.1170  -32.4090 C.2   116  GLN116      0.2608
    147  OE1      -45.2840   53.3290  -31.5340 O.2   116  GLN116     -0.2717
    148  NE2      -43.9240   51.9080  -32.6310 N.am  116  GLN116     -0.0878
    149  N        -44.2180   60.6150  -32.3040 N.3   118  ASP118     -0.1225
    150  CA       -45.4730   61.2550  -31.9240 C.3   118  ASP118      0.1805
    151  C        -46.0050   60.7530  -30.5830 C.2   118  ASP118      0.2597
    152  O        -46.8120   61.4240  -29.9370 O.2   118  ASP118     -0.2718
    153  CB       -46.5350   61.0330  -33.0090 C.3   118  ASP118      0.1424
    154  CG       -46.9050   59.5710  -33.1840 C.2   118  ASP118      0.3668
    155  OD1      -46.0340   58.7860  -33.6110 O.co2 118  ASP118     -0.2456
    156  OD2      -48.0650   59.2040  -32.8940 O.co2 118  ASP118     -0.2456
    157  N        -45.5600   59.5720  -30.1690 N.am  119  LEU119     -0.1979
    158  CA       -46.0000   58.9940  -28.9000 C.3   119  LEU119      0.1596
    159  C        -45.1540   59.4940  -27.7310 C.2   119  LEU119      0.2287
    160  O        -45.5680   59.4180  -26.5720 O.2   119  LEU119     -0.2864
    161  CB       -45.9400   57.4620  -28.9670 C.3   119  LEU119      0.0297
    162  CG       -47.0160   56.7700  -29.8080 C.3   119  LEU119      0.0022
    163  CD1      -46.7650   55.2700  -29.8500 C.3   119  LEU119      0.0001
    164  CD2      -48.3860   57.0670  -29.2120 C.3   119  LEU119      0.0001
    165  N        -44.6920   57.7810  -38.2190 N.3   159  ALA159     -0.1231
    166  CA       -45.4370   57.2480  -39.3530 C.3   159  ALA159      0.1694
    167  C        -46.8570   57.8140  -39.3610 C.2   159  ALA159      0.2591
    168  O        -47.4690   57.9750  -40.4190 O.2   159  ALA159     -0.2718
    169  CB       -45.4760   55.7250  -39.2800 C.3   159  ALA159      0.0304
    170  N        -47.3600   58.1300  -38.1720 N.am  160  LEU160     -0.1980
    171  CA       -48.7080   58.6620  -38.0270 C.3   160  LEU160      0.1596
    172  C        -48.8270   60.1180  -38.4810 C.2   160  LEU160      0.2287
    173  O        -49.7050   60.4470  -39.2790 O.2   160  LEU160     -0.2864
    174  CB       -49.1640   58.5230  -36.5690 C.3   160  LEU160      0.0297
    175  CG       -50.6300   58.8300  -36.2520 C.3   160  LEU160      0.0022
    176  CD1      -51.5380   58.0340  -37.1660 C.3   160  LEU160      0.0001
    177  CD2      -50.9180   58.4880  -34.8030 C.3   160  LEU160      0.0001
@<TRIPOS>BOND
     1   115   113    1
     2   109   110    1
     3    33    32    2
     4   110   113    1
     5   110   111    1
     6    43    44    1
     7   113   114    1
     8    36    34    1
     9   106   108    1
    10   106   107    1
    11   106   103    1
    12    59    60    1
    13    59    58    1
    14    40    39    2
    15    60    54    1
    16    32    31    1
    17    32    37   am
    18   104   103    1
    19   104   105    2
    20   103   102    1
    21    35    34    1
    22    31    34    1
    23    31    30    1
    24    24    23    2
    25   111   116   am
    26   111   112    2
    27    44    45    1
    28    44    47    1
    29    54    45   am
    30    54    55    1
    31    39    38    1
    32    58    55    1
    33    45    46    2
    34    55    56    1
    35   116   117    1
    36    38    37    1
    37    38    41    1
    38    93    92    1
    39    23    30   am
    40    23    22    1
    41    47    48    1
    42   102    97   am
    43    98    97    2
    44   168   167    2
    45    92    94    1
    46    92    89    1
    47    61    56   am
    48    61    62    1
    49   120   117    1
    50    56    57    2
    51    91    90    2
    52   117   118    1
    53    97    96    1
    54    75    73   ar
    55    25    22    1
    56    25    26    1
    57    22    21    1
    58    41    42    1
    59    48    49   ar
    60    48    50   ar
    61    65    62    1
    62    65    66    1
    63    73    72    1
    64    73    74   ar
    65    49    51   ar
    66    90    89    1
    67    90    95   am
    68   167   166    1
    69   167   170   am
    70   166   169    1
    71   166   165    1
    72    72    71    1
    73   173   172    2
    74    27    28    1
    75    27    26    1
    76    20    19    2
    77    62    63    1
    78   119   118    2
    79    28    29    1
    80    89    88    1
    81   118   121   am
    82    70    69    2
    83    96    95    1
    84    96    99    1
    85    21    19   am
    86    95   101    1
    87    67    63   am
    88    67    68    1
    89    50    52   ar
    90    88    78   am
    91   172   171    1
    92    19    18    1
    93    51    53   ar
    94    63    64    2
    95   170   171    1
    96   171   174    1
    97   121   122    1
    98    69    68    1
    99    69    76   am
   100    71    68    1
   101    99   100    1
   102    78    79    2
   103    78    77    1
   104    52    53   ar
   105   101   100    1
   106   176   175    1
   107    18    17    1
   108    77    76    1
   109    77    80    1
   110   122   123    1
   111   139   137    1
   112   174   175    1
   113    82    84   ar
   114    82    81   ar
   115   175   177    1
   116    84    86   ar
   117   128   127    2
   118    17    12   am
   119   123   125   am
   120   123   124    2
   121   137   134    1
   122   137   138    1
   123   125   126    1
   124    80    81    1
   125    16    14    1
   126    81    83   ar
   127    86    87    1
   128    86    85   ar
   129    12    13    2
   130    12    11    1
   131   134   133    1
   132   134   135    1
   133   127   126    1
   134   129   126    1
   135   129   130    1
   136     2     1    1
   137     2     3    1
   138     5     6    1
   139     5     3   am
   140    83    85   ar
   141   140   135   am
   142   140   141    1
   143    10    11    1
   144    10     7   am
   145    14    11    1
   146    14    15    1
   147     6     7    1
   148     6     9    1
   149   135   136    2
   150     3     4    2
   151     7     8    2
   152   131   130    1
   153   155   154   ar
   154   130   132    1
   155   141   144    1
   156   141   142    1
   157   145   144    1
   158   145   146    1
   159   154   153    1
   160   154   156   ar
   161   153   150    1
   162   148   146   am
   163   142   143    2
   164   146   147    2
   165   149   150    1
   166   150   151    1
   167   151   157   am
   168   151   152    2
   169   157   158    1
   170   163   162    1
   171   162   164    1
   172   162   161    1
   173   161   158    1
   174   158   159    1
   175   159   160    2
