@<TRIPOS>MOLECULE
tmp/5cjxI01.pdb
 95 92 0 0 0
SMALL
GASTEIGER

@<TRIPOS>ATOM
      1  N         15.4100   60.9400   40.4800 N.3   141  PRO141     -0.2116
      2  CA        15.1560   59.4950   40.5190 C.3   141  PRO141      0.1372
      3  C         14.5810   58.9500   39.2230 C.2   141  PRO141      0.2244
      4  O         13.6230   59.4960   38.6710 O.2   141  PRO141     -0.2868
      5  CB        14.1550   59.3470   41.6700 C.3   141  PRO141      0.0268
      6  CG        14.3090   60.6060   42.4640 C.3   141  PRO141      0.0207
      7  CD        14.5610   61.6610   41.4370 C.3   141  PRO141      0.0892
      8  N         11.3460   53.1370   42.5440 N.3   181  LYS181     -0.1245
      9  CA        11.9400   54.4470   42.7820 C.3   181  LYS181      0.1561
     10  C         13.0320   54.3470   43.8400 C.2   181  LYS181      0.2260
     11  O         12.7500   53.9270   44.9680 O.2   181  LYS181     -0.2867
     12  CB        10.8750   55.4440   43.2210 C.3   181  LYS181      0.0271
     13  CG         9.8570   55.7970   42.1380 C.3   181  LYS181      0.0035
     14  CD        10.5520   56.3540   40.9020 C.3   181  LYS181      0.0206
     15  CE         9.5710   56.7030   39.7850 C.3   181  LYS181      0.1093
     16  NZ         8.9180   58.0140   39.9700 N.3   181  LYS181     -0.1314
     17  N         14.2300   56.4230   45.7440 N.3   183  VAL183     -0.1245
     18  CA        14.1690   57.6950   46.4580 C.3   183  VAL183      0.1561
     19  C         14.3670   57.4690   47.9510 C.2   183  VAL183      0.2260
     20  O         13.6590   56.6650   48.5710 O.2   183  VAL183     -0.2867
     21  CB        12.8300   58.3990   46.1930 C.3   183  VAL183      0.0252
     22  CG1       12.8170   59.7420   46.8820 C.3   183  VAL183      0.0019
     23  CG2       12.5870   58.5440   44.7080 C.3   183  VAL183      0.0019
     24  N          7.8000   58.5950   49.3910 N.3   190  LEU190     -0.1231
     25  CA         7.6720   59.5510   48.2970 C.3   190  LEU190      0.1693
     26  C          7.7610   58.8230   46.9640 C.2   190  LEU190      0.2592
     27  O          8.7370   58.1080   46.7080 O.2   190  LEU190     -0.2718
     28  CB         8.7480   60.6350   48.3870 C.3   190  LEU190      0.0284
     29  CG         8.6310   61.6110   49.5590 C.3   190  LEU190      0.0019
     30  CD1        9.5960   62.7770   49.3840 C.3   190  LEU190      0.0001
     31  CD2        7.1990   62.1070   49.7170 C.3   190  LEU190      0.0001
     32  N          6.7380   59.0100   46.1230 N.am  191  ASN191     -0.1974
     33  CA         6.7170   58.5090   44.7460 C.3   191  ASN191      0.1688
     34  C          6.8010   56.9840   44.6860 C.2   191  ASN191      0.2292
     35  O          7.3810   56.4220   43.7540 O.2   191  ASN191     -0.2864
     36  CB         7.8400   59.1310   43.9050 C.3   191  ASN191      0.1181
     37  CG         7.5960   60.6020   43.5680 C.2   191  ASN191      0.2629
     38  OD1        6.4600   61.0780   43.5780 O.2   191  ASN191     -0.2716
     39  ND2        8.6780   61.3260   43.2580 N.am  191  ASN191     -0.0877
     40  N         14.3000   64.5150   52.8800 N.3   295  PHE295     -0.1227
     41  CA        14.2970   64.0610   51.4970 C.3   295  PHE295      0.1736
     42  C         15.0230   65.1120   50.6770 C.2   295  PHE295      0.2595
     43  O         15.1000   66.2800   51.0660 O.2   295  PHE295     -0.2718
     44  CB        12.8790   63.8510   50.9530 C.3   295  PHE295      0.0547
     45  CG        12.0130   65.0710   51.0490 C.ar  295  PHE295     -0.0202
     46  CD1       11.5400   65.4900   52.2720 C.ar  295  PHE295     -0.0042
     47  CD2       11.6800   65.8010   49.9220 C.ar  295  PHE295     -0.0042
     48  CE1       10.7620   66.6090   52.3840 C.ar  295  PHE295     -0.0003
     49  CE2       10.8900   66.9210   50.0310 C.ar  295  PHE295     -0.0003
     50  CZ        10.4340   67.3170   51.2700 C.ar  295  PHE295     -0.0000
     51  N         15.5550   64.6860   49.5390 N.am  296  ASN296     -0.1960
     52  CA        16.1950   65.6070   48.6140 C.3   296  ASN296      0.1819
     53  C         15.1790   66.0480   47.5700 C.2   296  ASN296      0.2621
     54  O         14.4530   65.2210   47.0100 O.2   296  ASN296     -0.2715
     55  CB        17.4100   64.9670   47.9450 C.3   296  ASN296      0.1195
     56  CG        18.1140   65.9140   46.9930 C.2   296  ASN296      0.2630
     57  OD1       17.6670   66.1270   45.8650 O.2   296  ASN296     -0.2716
     58  ND2       19.2130   66.5020   47.4510 N.am  296  ASN296     -0.0877
     59  N         15.1300   67.3530   47.3230 N.am  297  CYS297     -0.1954
     60  CA        14.2030   67.9510   46.3730 C.3   297  CYS297      0.1843
     61  C         14.9690   68.9590   45.5330 C.2   297  CYS297      0.2626
     62  O         15.4900   69.9430   46.0660 O.2   297  CYS297     -0.2714
     63  CB        13.0340   68.6140   47.1060 C.3   297  CYS297      0.0997
     64  SG        12.0880   69.8640   46.1980 S.3   297  CYS297     -0.0797
     65  N         15.0570   68.7020   44.2310 N.am  298  GLY298     -0.1954
     66  CA        15.7610   69.6030   43.3360 C.3   298  GLY298      0.1869
     67  C         17.2140   69.8330   43.6870 C.2   298  GLY298      0.2309
     68  O         17.7300   70.9310   43.4620 O.2   298  GLY298     -0.2863
     69  N          9.2630   71.6340   43.9660 N.3   350  CYS350     -0.1221
     70  CA         9.0180   70.2590   43.5590 C.3   350  CYS350      0.1808
     71  C          7.8040   69.7340   44.3120 C.2   350  CYS350      0.2601
     72  O          7.5710   70.0950   45.4690 O.2   350  CYS350     -0.2717
     73  CB        10.2320   69.3520   43.8290 C.3   350  CYS350      0.0970
     74  SG        10.4190   68.8910   45.5690 S.3   350  CYS350     -0.0800
     75  N          7.0280   68.8820   43.6450 N.am  351  VAL351     -0.1965
     76  CA         5.8210   68.3050   44.2230 C.3   351  VAL351      0.1727
     77  C          5.8200   66.8060   43.9420 C.2   351  VAL351      0.2617
     78  O          5.9010   66.3840   42.7820 O.2   351  VAL351     -0.2715
     79  CB         4.5410   68.9800   43.6870 C.3   351  VAL351      0.0290
     80  CG1        4.4960   70.4300   44.1270 C.3   351  VAL351      0.0023
     81  CG2        4.4690   68.9190   42.1670 C.3   351  VAL351      0.0023
     82  N          5.7540   66.0050   45.0030 N.am  352  SER352     -0.1936
     83  CA         5.7620   64.5540   44.9070 C.3   352  SER352      0.2055
     84  C          4.5050   63.9780   45.5440 C.2   352  SER352      0.2643
     85  O          3.8310   64.6350   46.3390 O.2   352  SER352     -0.2714
     86  CB         7.0090   63.9610   45.5790 C.3   352  SER352      0.2130
     87  OG         7.1480   64.4130   46.9120 O.3   352  SER352     -0.2179
     88  N          4.1760   62.7480   45.1710 N.am  353  ASN353     -0.1971
     89  CA         3.0730   62.0510   45.8130 C.3   353  ASN353      0.1688
     90  C          3.5560   61.3820   47.0930 C.2   353  ASN353      0.2292
     91  O          4.6240   60.7640   47.1240 O.2   353  ASN353     -0.2864
     92  CB         2.4660   61.0020   44.8770 C.3   353  ASN353      0.1181
     93  CG         1.8300   61.6130   43.6360 C.2   353  ASN353      0.2629
     94  OD1        2.0830   62.7680   43.2960 O.2   353  ASN353     -0.2716
     95  ND2        0.9920   60.8330   42.9570 N.am  353  ASN353     -0.0877
@<TRIPOS>BOND
     1     4     3    2
     2     3     2    1
     3    15    16    1
     4    15    14    1
     5     1     2    1
     6     1     7    1
     7     2     5    1
     8    14    13    1
     9     7     6    1
    10     5     6    1
    11    13    12    1
    12    81    79    1
    13     8     9    1
    14     9    12    1
    15     9    10    1
    16    78    77    2
    17    95    93   am
    18    39    37   am
    19    94    93    2
    20    66    67    1
    21    66    65    1
    22    68    67    2
    23    70    73    1
    24    70    69    1
    25    70    71    1
    26    37    38    2
    27    37    36    1
    28    93    92    1
    29    75    76    1
    30    75    71   am
    31    79    80    1
    32    79    76    1
    33    35    34    2
    34    73    74    1
    35    10    11    2
    36    36    33    1
    37    77    76    1
    38    77    82   am
    39    65    61   am
    40    71    72    2
    41    34    33    1
    42    23    21    1
    43    33    32    1
    44    92    89    1
    45    83    82    1
    46    83    84    1
    47    83    86    1
    48    88    84   am
    49    88    89    1
    50    61    62    2
    51    61    60    1
    52    84    85    2
    53    74    64    1
    54    86    87    1
    55    17    18    1
    56    89    90    1
    57    57    56    2
    58    32    26   am
    59    21    18    1
    60    21    22    1
    61    64    63    1
    62    60    63    1
    63    60    59    1
    64    18    19    1
    65    27    26    2
    66    26    25    1
    67    56    58   am
    68    56    55    1
    69    54    53    2
    70    90    91    2
    71    59    53   am
    72    53    52    1
    73    55    52    1
    74    19    20    2
    75    25    28    1
    76    25    24    1
    77    28    29    1
    78    52    51    1
    79    30    29    1
    80    51    42   am
    81    29    31    1
    82    47    49   ar
    83    47    45   ar
    84    49    50   ar
    85    42    43    2
    86    42    41    1
    87    44    45    1
    88    44    41    1
    89    45    46   ar
    90    50    48   ar
    91    41    40    1
    92    46    48   ar
